REMARK  Name = ZINCrH000004jXLR.0
REMARK                            x       y       z     vdW  Elec       q    Type
REMARK                         _______ _______ _______ _____ _____    ______ ____
ROOT
ATOM      1  C   LIG    1        4.763  -4.979  -1.501  0.00  0.00    +0.240 C 
ENDROOT
BRANCH   1   2
ATOM      2  C   LIG    1        5.166  -5.221  -2.933  0.00  0.00    -0.120 A 
ATOM      3  C   LIG    1        4.427  -6.084  -3.721  0.00  0.00    +0.050 A 
ATOM      4  C   LIG    1        4.792  -6.304  -5.035  0.00  0.00    -0.080 A 
ATOM      5  C   LIG    1        5.907  -5.668  -5.561  0.00  0.00    +0.130 A 
ATOM      6  C   LIG    1        6.650  -4.807  -4.766  0.00  0.00    -0.020 A 
ATOM      7  C   LIG    1        6.278  -4.586  -3.454  0.00  0.00    +0.070 A 
BRANCH   5   8
ATOM      8  O   LIG    1        6.271  -5.888  -6.851  0.00  0.00    -0.310 OA
BRANCH   8   9
ATOM      9  C   LIG    1        5.460  -6.786  -7.611  0.00  0.00    +0.190 C 
BRANCH   9  10
ATOM     10  C   LIG    1        6.021  -6.906  -9.029  0.00  0.00    +0.170 C 
ATOM     11  C   LIG    1        5.084  -7.779  -9.891  0.00  0.00    +0.020 C 
ATOM     12  C   LIG    1        6.092  -8.606 -10.737  0.00  0.00    +0.010 C 
ATOM     13  C   LIG    1        7.252  -8.783  -9.725  0.00  0.00    +0.200 C 
ATOM     14  O   LIG    1        7.301  -7.548  -8.992  0.00  0.00    -0.370 OA
ENDBRANCH   9  10
ENDBRANCH   8   9
ENDBRANCH   5   8
ENDBRANCH   1   2
BRANCH   1  16
ATOM     15  C   LIG    1        2.569  -4.156  -2.111  0.00  0.00    +0.190 C 
ATOM     16  N   LIG    1        3.837  -3.840  -1.440  0.00  0.00    -0.530 NA
BRANCH  16  17
ATOM     17  C   LIG    1        3.607  -3.423  -0.050  0.00  0.00    +0.300 C 
BRANCH  17  18
ATOM     18  C   LIG    1        2.858  -2.115  -0.036  0.00  0.00    +0.290 A 
ATOM     19  N   LIG    1        1.562  -1.998  -0.023  0.00  0.00    -0.490 NA
ATOM     20  C   LIG    1        1.223  -0.684  -0.013  0.00  0.00    +0.050 A 
ATOM     21  C   LIG    1        0.002  -0.004   0.002  0.00  0.00    +0.070 A 
ATOM     22  C   LIG    1       -0.017   1.362   0.009  0.00  0.00    +0.000 A 
ATOM     23  C   LIG    1        1.167   2.086   0.002  0.00  0.00    +0.030 A 
ATOM     24  C   LIG    1        2.383   1.437  -0.014  0.00  0.00    +0.010 A 
ATOM     25  C   LIG    1        2.422   0.049  -0.021  0.00  0.00    +0.050 A 
ATOM     26  N   LIG    1        3.439  -0.884  -0.035  0.00  0.00    -0.480 N 
ATOM     27  C   LIG    1        4.876  -0.603  -0.048  0.00  0.00    +0.330 C 
ENDBRANCH  17  18
ENDBRANCH  16  17
ENDBRANCH   1  16
TORSDOF 7
