REMARK  Name = ZINCvU00000006b3.0
REMARK                            x       y       z     vdW  Elec       q    Type
REMARK                         _______ _______ _______ _____ _____    ______ ____
ROOT
ATOM      1  C   LIG    1       -0.361   0.463   0.168  0.00  0.00    +0.250 C 
ENDROOT
BRANCH   1   2
ATOM      2  C   LIG    1       -1.082   0.890  -1.085  0.00  0.00    -0.130 A 
ATOM      3  C   LIG    1       -1.492   2.201  -1.234  0.00  0.00    +0.040 A 
ATOM      4  C   LIG    1       -2.150   2.593  -2.385  0.00  0.00    +0.010 A 
ATOM      5  C   LIG    1       -2.406   1.672  -3.383  0.00  0.00    +0.030 A 
ATOM      6  C   LIG    1       -2.002   0.358  -3.231  0.00  0.00    +0.010 A 
ATOM      7  C   LIG    1       -1.340  -0.033  -2.082  0.00  0.00    +0.030 A 
ENDBRANCH   1   2
BRANCH   1  10
ATOM      8  N   LIG    1        1.856   0.375  -0.926  0.00  0.00    -0.660 N 
ATOM      9  H   LIG    1        1.498  -0.294  -1.531  0.00  0.00    +0.410 HD
ATOM     10  C   LIG    1        1.090   0.859   0.071  0.00  0.00    +0.520 C 
ATOM     11  O   LIG    1        1.568   1.614   0.891  0.00  0.00    -0.490 OA
BRANCH   8  17
ATOM     12  C   LIG    1        5.214   3.903  -0.255  0.00  0.00    +0.090 C 
ATOM     13  C   LIG    1        4.821   2.543  -0.775  0.00  0.00    -0.070 A 
ATOM     14  C   LIG    1        5.757   1.752  -1.414  0.00  0.00    -0.010 A 
ATOM     15  C   LIG    1        5.401   0.504  -1.892  0.00  0.00    +0.040 A 
ATOM     16  C   LIG    1        4.109   0.044  -1.732  0.00  0.00    -0.120 A 
ATOM     17  C   LIG    1        3.166   0.837  -1.090  0.00  0.00    +0.150 A 
ATOM     18  C   LIG    1        3.722  -1.315  -2.253  0.00  0.00    +0.080 C 
ATOM     19  C   LIG    1        3.525   2.092  -0.617  0.00  0.00    +0.010 A 
ENDBRANCH   8  17
ENDBRANCH   1  10
BRANCH   1  20
ATOM     20  O   LIG    1       -0.964   1.112   1.318  0.00  0.00    -0.320 OA
BRANCH  20  21
ATOM     21  C   LIG    1       -1.976   0.463   1.925  0.00  0.00    +0.520 C 
ATOM     22  O   LIG    1       -2.345  -0.616   1.505  0.00  0.00    -0.480 OA
BRANCH  21  23
ATOM     23  C   LIG    1       -2.638   1.062   3.102  0.00  0.00    -0.140 A 
ATOM     24  C   LIG    1       -2.280   2.341   3.532  0.00  0.00    +0.160 A 
ATOM     25  C   LIG    1       -2.902   2.895   4.632  0.00  0.00    +0.020 A 
ATOM     26  C   LIG    1       -3.878   2.186   5.309  0.00  0.00    +0.150 A 
ATOM     27  C   LIG    1       -4.238   0.918   4.888  0.00  0.00    -0.070 A 
ATOM     28  C   LIG    1       -3.629   0.355   3.786  0.00  0.00    +0.060 A 
ATOM     29  C   LIG    1       -4.027  -1.024   3.325  0.00  0.00    +0.140 C 
BRANCH  27  30
ATOM     30  N   LIG    1       -5.284   0.167   5.618  0.00  0.00    +0.030 N 
ATOM     31  O   LIG    1       -5.661  -0.914   5.201  0.00  0.00    -0.150 OA
ATOM     32  O   LIG    1       -5.767   0.629   6.636  0.00  0.00    -0.160 OA
ENDBRANCH  27  30
ENDBRANCH  21  23
ENDBRANCH  20  21
ENDBRANCH   1  20
TORSDOF 7
