REMARK  Name = ZINCrH000004rZtm.0
REMARK                            x       y       z     vdW  Elec       q    Type
REMARK                         _______ _______ _______ _____ _____    ______ ____
ROOT
ATOM      1  N   LIG    1       -1.318  -1.027   0.954  0.00  0.00    -0.620 N 
ATOM      2  H   LIG    1       -2.210  -0.656   1.050  0.00  0.00    +0.420 HD
ATOM      3  C   LIG    1       -1.158  -2.342   0.705  0.00  0.00    +0.570 C 
ATOM      4  O   LIG    1       -0.041  -2.806   0.585  0.00  0.00    -0.480 OA
ENDROOT
BRANCH   3   5
ATOM      5  C   LIG    1       -2.342  -3.220   0.578  0.00  0.00    -0.170 A 
ATOM      6  C   LIG    1       -3.623  -2.727   0.848  0.00  0.00    +0.110 A 
ATOM      7  C   LIG    1       -4.700  -3.586   0.710  0.00  0.00    +0.040 A 
ATOM      8  C   LIG    1       -4.473  -4.904   0.320  0.00  0.00    +0.120 A 
ATOM      9  N   LIG    1       -3.243  -5.340   0.077  0.00  0.00    -0.460 NA
ATOM     10  C   LIG    1       -2.195  -4.555   0.192  0.00  0.00    +0.200 A 
ATOM     11  C   LIG    1       -0.821  -5.101  -0.097  0.00  0.00    +0.160 C 
BRANCH   8  12
ATOM     12  C   LIG    1       -5.621  -5.832   0.175  0.00  0.00    +0.560 C 
ATOM     13  N   LIG    1       -5.411  -7.109  -0.202  0.00  0.00    -0.600 N 
ATOM     14  C   LIG    1       -4.050  -7.580  -0.468  0.00  0.00    +0.300 C 
ATOM     15  C   LIG    1       -6.545  -8.026  -0.346  0.00  0.00    +0.300 C 
ATOM     16  O   LIG    1       -6.750  -5.441   0.396  0.00  0.00    -0.530 OA
ENDBRANCH   8  12
ENDBRANCH   3   5
BRANCH   1  20
ATOM     17  C   LIG    1        0.922   1.700   1.393  0.00  0.00    +0.130 A 
ATOM     18  C   LIG    1        2.009   0.927   1.216  0.00  0.00    -0.100 A 
ATOM     19  S   LIG    1        1.468  -0.725   0.925  0.00  0.00    +0.210 S 
ATOM     20  C   LIG    1       -0.208  -0.203   1.074  0.00  0.00    +0.270 A 
ATOM     21  N   LIG    1       -0.242   1.072   1.312  0.00  0.00    -0.490 NA
BRANCH  17  28
ATOM     22  C   LIG    1       -0.735   3.546  -0.097  0.00  0.00    +0.090 C 
ATOM     23  C   LIG    1        0.226   4.053   0.947  0.00  0.00    -0.050 A 
ATOM     24  C   LIG    1        0.317   5.406   1.204  0.00  0.00    +0.010 A 
ATOM     25  C   LIG    1        1.202   5.873   2.158  0.00  0.00    +0.010 A 
ATOM     26  C   LIG    1        1.997   4.988   2.864  0.00  0.00    +0.000 A 
ATOM     27  C   LIG    1        1.911   3.633   2.620  0.00  0.00    +0.020 A 
ATOM     28  C   LIG    1        1.020   3.156   1.660  0.00  0.00    -0.030 A 
ENDBRANCH  17  28
ENDBRANCH   1  20
TORSDOF 4
