REMARK  Name = ZINCnE000001D5Ov.0
REMARK                            x       y       z     vdW  Elec       q    Type
REMARK                         _______ _______ _______ _____ _____    ______ ____
ROOT
ATOM      1  S   LIG    1       -1.079  -0.765   0.999  0.00  0.00    +2.690 S 
ATOM      2  O   LIG    1       -0.979  -0.130   2.265  0.00  0.00    -0.960 OA
ATOM      3  O   LIG    1       -0.880  -2.160   0.811  0.00  0.00    -0.950 OA
ENDROOT
BRANCH   1   7
ATOM      4  C   LIG    1       -5.225   0.156  -0.568  0.00  0.00    -0.010 A 
ATOM      5  C   LIG    1       -4.588  -1.012  -0.944  0.00  0.00    -0.010 A 
ATOM      6  C   LIG    1       -3.322  -1.293  -0.466  0.00  0.00    +0.130 A 
ATOM      7  C   LIG    1       -2.693  -0.407   0.389  0.00  0.00    -0.680 A 
ATOM      8  C   LIG    1       -3.332   0.758   0.768  0.00  0.00    +0.130 A 
ATOM      9  C   LIG    1       -4.596   1.042   0.286  0.00  0.00    +0.000 A 
BRANCH   4  11
ATOM     10  C   LIG    1       -7.571  -0.642  -0.655  0.00  0.00    +0.040 C 
ATOM     11  C   LIG    1       -6.606   0.462  -1.089  0.00  0.00    -0.040 C 
ATOM     12  C   LIG    1       -6.569   0.536  -2.617  0.00  0.00    +0.040 C 
ATOM     13  C   LIG    1       -7.078   1.804  -0.525  0.00  0.00    +0.030 C 
ENDBRANCH   4  11
ENDBRANCH   1   7
BRANCH   1  14
ATOM     14  N   LIG    1        0.002  -0.001   0.004  0.00  0.00    -1.050 N 
ATOM     15  H   LIG    1        0.591   0.682   0.362  0.00  0.00    +0.420 HD
BRANCH  14  16
ATOM     16  C   LIG    1        0.066  -0.339  -1.350  0.00  0.00    +0.110 A 
ATOM     17  C   LIG    1        0.092  -1.675  -1.732  0.00  0.00    -0.010 A 
ATOM     18  C   LIG    1        0.149  -2.015  -3.071  0.00  0.00    +0.000 A 
ATOM     19  C   LIG    1        0.192  -1.031  -4.037  0.00  0.00    +0.040 A 
ATOM     20  C   LIG    1        0.172   0.316  -3.663  0.00  0.00    -0.120 A 
ATOM     21  C   LIG    1        0.108   0.659  -2.312  0.00  0.00    +0.040 A 
BRANCH  20  22
ATOM     22  C   LIG    1        0.217   1.371  -4.694  0.00  0.00    +0.520 C 
ATOM     23  O   LIG    1        0.273   1.068  -5.877  0.00  0.00    -0.680 OA
ATOM     24  O   LIG    1        0.200   2.548  -4.365  0.00  0.00    -0.690 OA
ENDBRANCH  20  22
ENDBRANCH  14  16
ENDBRANCH   1  14
TORSDOF 5
