REMARK  Name = ZINCvU00000003IM.0
REMARK                            x       y       z     vdW  Elec       q    Type
REMARK                         _______ _______ _______ _____ _____    ______ ____
ROOT
ATOM      1  N   LIG    1       -3.993   3.877   1.873  0.00  0.00    -0.570 N 
ATOM      2  C   LIG    1       -4.442   2.923   1.050  0.00  0.00    +0.700 C 
ATOM      3  N   LIG    1       -3.693   2.807  -0.061  0.00  0.00    -0.720 N 
ATOM      4  H   LIG    1       -3.833   2.185  -0.792  0.00  0.00    +0.440 HD
ATOM      5  C   LIG    1       -2.620   3.811   0.048  0.00  0.00    +0.170 C 
ATOM      6  C   LIG    1       -2.708   4.819  -1.100  0.00  0.00    +0.090 C 
ATOM      7  O   LIG    1       -5.419   2.237   1.282  0.00  0.00    -0.520 OA
ATOM      8  C   LIG    1       -2.897   4.485   1.377  0.00  0.00    +0.530 C 
ATOM      9  O   LIG    1       -2.263   5.383   1.888  0.00  0.00    -0.450 OA
ENDROOT
BRANCH   5  10
ATOM     10  C   LIG    1       -1.270   3.143   0.062  0.00  0.00    -0.090 A 
ATOM     11  C   LIG    1       -1.173   1.792  -0.074  0.00  0.00    +0.040 A 
ATOM     12  C   LIG    1        0.068   1.156  -0.056  0.00  0.00    +0.010 A 
ATOM     13  C   LIG    1        1.218   1.869   0.085  0.00  0.00    +0.040 A 
ATOM     14  C   LIG    1        1.159   3.266   0.223  0.00  0.00    -0.050 A 
ATOM     15  C   LIG    1        2.325   4.035   0.371  0.00  0.00    +0.020 A 
ATOM     16  C   LIG    1        2.229   5.387   0.501  0.00  0.00    +0.010 A 
ATOM     17  C   LIG    1        0.989   6.022   0.489  0.00  0.00    +0.010 A 
ATOM     18  C   LIG    1       -0.162   5.309   0.347  0.00  0.00    +0.040 A 
ATOM     19  C   LIG    1       -0.103   3.912   0.211  0.00  0.00    -0.030 A 
ENDBRANCH   5  10
BRANCH   1  20
ATOM     20  C   LIG    1       -4.614   4.219   3.155  0.00  0.00    +0.430 C 
BRANCH  20  23
ATOM     21  C   LIG    1       -3.831   1.538   5.490  0.00  0.00    +0.120 A 
ATOM     22  N   LIG    1       -4.434   2.175   4.528  0.00  0.00    -0.440 NA
ATOM     23  C   LIG    1       -4.002   3.383   4.249  0.00  0.00    +0.040 A 
ATOM     24  C   LIG    1       -2.988   3.827   4.999  0.00  0.00    -0.040 A 
ATOM     25  S   LIG    1       -2.563   2.565   6.154  0.00  0.00    +0.100 S 
BRANCH  21  30
ATOM     26  C   LIG    1       -5.113  -3.774   7.296  0.00  0.00    +0.100 C 
ATOM     27  C   LIG    1       -4.777  -2.383   6.823  0.00  0.00    -0.070 A 
ATOM     28  C   LIG    1       -3.754  -1.677   7.430  0.00  0.00    +0.010 A 
ATOM     29  C   LIG    1       -3.441  -0.404   7.002  0.00  0.00    +0.030 A 
ATOM     30  C   LIG    1       -4.160   0.173   5.954  0.00  0.00    -0.040 A 
ATOM     31  C   LIG    1       -5.194  -0.542   5.349  0.00  0.00    +0.080 A 
ATOM     32  C   LIG    1       -5.493  -1.817   5.783  0.00  0.00    +0.010 A 
ENDBRANCH  21  30
ENDBRANCH  20  23
ENDBRANCH   1  20
TORSDOF 4
