REMARK  Name = ZINCqH0000051dYe.0
REMARK                            x       y       z     vdW  Elec       q    Type
REMARK                         _______ _______ _______ _____ _____    ______ ____
ROOT
ATOM      1  C   LIG    1       -7.228  -0.386   7.969  0.00  0.00    +0.110 A 
ATOM      2  C   LIG    1       -7.537   0.724   7.194  0.00  0.00    +0.060 A 
ATOM      3  C   LIG    1       -6.831   0.973   6.033  0.00  0.00    +0.010 A 
ATOM      4  C   LIG    1       -5.814   0.115   5.641  0.00  0.00    +0.120 A 
ATOM      5  C   LIG    1       -5.509  -0.997   6.413  0.00  0.00    -0.060 A 
ATOM      6  C   LIG    1       -6.209  -1.244   7.577  0.00  0.00    +0.030 A 
ENDROOT
BRANCH   1   9
ATOM      7  O   LIG    1       -9.828   0.112   8.248  0.00  0.00    -0.510 OA
ATOM      8  C   LIG    1       -9.248  -0.312   9.226  0.00  0.00    +0.510 C 
ATOM      9  N   LIG    1       -7.943  -0.639   9.147  0.00  0.00    -0.670 N 
ATOM     10  H   LIG    1       -7.499  -1.050   9.905  0.00  0.00    +0.410 HD
BRANCH   8  11
ATOM     11  C   LIG    1       -9.988  -0.474  10.528  0.00  0.00    +0.120 C 
BRANCH  11  12
ATOM     12  C   LIG    1      -11.421  -0.042  10.349  0.00  0.00    -0.070 A 
ATOM     13  C   LIG    1      -11.781   1.272  10.581  0.00  0.00    +0.020 A 
ATOM     14  C   LIG    1      -13.094   1.669  10.413  0.00  0.00    +0.000 A 
ATOM     15  C   LIG    1      -14.049   0.750  10.022  0.00  0.00    +0.000 A 
ATOM     16  C   LIG    1      -13.691  -0.566   9.795  0.00  0.00    +0.000 A 
ATOM     17  C   LIG    1      -12.377  -0.962   9.959  0.00  0.00    +0.020 A 
ENDBRANCH  11  12
ENDBRANCH   8  11
ENDBRANCH   1   9
BRANCH   4  18
ATOM     18  O   LIG    1       -5.120   0.360   4.498  0.00  0.00    -0.310 OA
BRANCH  18  19
ATOM     19  C   LIG    1       -4.086  -0.565   4.156  0.00  0.00    +0.350 C 
BRANCH  19  20
ATOM     20  C   LIG    1       -3.433  -0.134   2.868  0.00  0.00    +0.170 A 
ATOM     21  N   LIG    1       -3.790  -0.484   1.669  0.00  0.00    -0.360 NA
ATOM     22  O   LIG    1       -3.067   0.037   0.846  0.00  0.00    +0.090 OA
ATOM     23  C   LIG    1       -2.146   0.785   1.461  0.00  0.00    +0.220 A 
ATOM     24  N   LIG    1       -2.373   0.686   2.749  0.00  0.00    -0.460 NA
BRANCH  23  25
ATOM     25  C   LIG    1       -1.059   1.593   0.801  0.00  0.00    +0.060 C 
ATOM     26  C   LIG    1       -0.044   0.840  -0.062  0.00  0.00    +0.070 C 
ATOM     27  C   LIG    1       -1.103   1.724  -0.724  0.00  0.00    +0.070 C 
ENDBRANCH  23  25
ENDBRANCH  19  20
ENDBRANCH  18  19
ENDBRANCH   4  18
TORSDOF 7
