REMARK  Name = ZINCbu0000000GEc.0
REMARK                            x       y       z     vdW  Elec       q    Type
REMARK                         _______ _______ _______ _____ _____    ______ ____
ROOT
ATOM      1  C   LIG    1       -0.795   6.496   1.295  0.00  0.00    +0.060 C 
ATOM      2  C   LIG    1       -0.079   6.003   0.036  0.00  0.00    +0.030 C 
ENDROOT
BRANCH   2   3
ATOM      3  C   LIG    1       -0.059   4.497   0.027  0.00  0.00    -0.100 A 
ATOM      4  C   LIG    1        1.148   3.822   0.012  0.00  0.00    +0.050 A 
ATOM      5  C   LIG    1        1.167   2.440   0.004  0.00  0.00    +0.040 A 
ATOM      6  C   LIG    1       -0.021   1.732   0.012  0.00  0.00    -0.020 A 
ATOM      7  C   LIG    1       -1.229   2.407   0.021  0.00  0.00    +0.030 A 
ATOM      8 CL   LIG    1        0.002  -0.004   0.002  0.00  0.00    -0.050 Cl
ATOM      9  C   LIG    1       -1.247   3.789   0.035  0.00  0.00    +0.030 A 
ENDBRANCH   2   3
BRANCH   2  10
ATOM     10  C   LIG    1       -0.820   6.511  -1.203  0.00  0.00    +0.270 C 
BRANCH  10  11
ATOM     11  N   LIG    1       -0.737   7.976  -1.257  0.00  0.00    -0.640 N 
ATOM     12  H   LIG    1        0.232   8.257  -1.306  0.00  0.00    +0.440 HD
ATOM     13  H   LIG    1       -1.159   8.368  -0.429  0.00  0.00    +0.430 HD
ATOM     14  H   LIG    1       -1.225   8.311  -2.075  0.00  0.00    +0.440 HD
ENDBRANCH  10  11
ENDBRANCH   2  10
TORSDOF 3
