REMARK  Name = ZINCvU000000075a.0
REMARK                            x       y       z     vdW  Elec       q    Type
REMARK                         _______ _______ _______ _____ _____    ______ ____
ROOT
ATOM      1  C   LIG    1        2.524   5.592   0.008  0.00  0.00    +0.380 C 
ATOM      2  C   LIG    1        2.827   6.102  -1.363  0.00  0.00    -0.230 A 
ATOM      3  C   LIG    1        4.002   6.796  -1.298  0.00  0.00    +0.090 A 
ATOM      4  C   LIG    1        4.489   6.752   0.090  0.00  0.00    +0.570 C 
ATOM      5  O   LIG    1        5.514   7.272   0.485  0.00  0.00    -0.450 OA
ATOM      6  O   LIG    1        4.553   7.394  -2.373  0.00  0.00    -0.170 OA
ATOM      7  C   LIG    1        4.074   7.122  -3.609  0.00  0.00    +0.160 A 
ATOM      8  C   LIG    1        4.798   7.546  -4.723  0.00  0.00    +0.030 A 
ATOM      9  C   LIG    1        4.330   7.288  -5.992  0.00  0.00    +0.130 A 
ATOM     10  C   LIG    1        3.136   6.606  -6.185  0.00  0.00    -0.120 A 
ATOM     11  C   LIG    1        2.404   6.175  -5.100  0.00  0.00    +0.160 A 
ATOM     12 BR   LIG    1        2.514   6.268  -7.938  0.00  0.00    -0.020 Br
ATOM     13  C   LIG    1        2.870   6.428  -3.810  0.00  0.00    -0.210 A 
ATOM     14  C   LIG    1        2.100   5.961  -2.628  0.00  0.00    +0.460 A 
ATOM     15  O   LIG    1        0.973   5.505  -2.704  0.00  0.00    -0.410 OA
ATOM     16  N   LIG    1        3.632   6.051   0.861  0.00  0.00    -0.500 N 
ENDROOT
BRANCH  16  17
ATOM     17  C   LIG    1        3.772   5.806   2.220  0.00  0.00    +0.260 A 
ATOM     18  N   LIG    1        2.932   5.132   2.943  0.00  0.00    -0.480 NA
ATOM     19  C   LIG    1        3.223   4.992   4.222  0.00  0.00    +0.090 A 
ATOM     20  C   LIG    1        4.359   5.583   4.601  0.00  0.00    -0.250 A 
ATOM     21  C   LIG    1        4.930   5.590   5.995  0.00  0.00    +0.160 C 
ATOM     22  C   LIG    1        2.341   4.232   5.179  0.00  0.00    +0.160 C 
ATOM     23  S   LIG    1        5.072   6.353   3.186  0.00  0.00    +0.210 S 
ENDBRANCH  16  17
BRANCH   1  28
ATOM     24  C   LIG    1        1.185   2.058   0.002  0.00  0.00    +0.130 A 
ATOM     25  C   LIG    1        2.359   1.320  -0.008  0.00  0.00    -0.070 A 
ATOM     26  C   LIG    1        3.580   1.966  -0.023  0.00  0.00    +0.050 A 
ATOM     27  C   LIG    1        3.633   3.348  -0.015  0.00  0.00    -0.030 A 
ATOM     28  C   LIG    1        2.463   4.086   0.000  0.00  0.00    -0.050 A 
ATOM     29  C   LIG    1        1.240   3.445   0.009  0.00  0.00    +0.030 A 
BRANCH  24  31
ATOM     30  C   LIG    1        0.002  -0.004   0.002  0.00  0.00    +0.250 C 
ATOM     31  O   LIG    1       -0.017   1.425   0.010  0.00  0.00    -0.310 OA
ENDBRANCH  24  31
ENDBRANCH   1  28
TORSDOF 3
