REMARK  Name = ZINCvU0000000IVQ.0
REMARK                            x       y       z     vdW  Elec       q    Type
REMARK                         _______ _______ _______ _____ _____    ______ ____
ROOT
ATOM      1  N   LIG    1       -0.729   1.579   1.207  0.00  0.00    -0.530 N 
ATOM      2  C   LIG    1       -0.383   2.766   1.758  0.00  0.00    +0.560 A 
ATOM      3  C   LIG    1       -1.111   3.196   2.959  0.00  0.00    -0.200 A 
ATOM      4  C   LIG    1       -0.831   4.403   3.596  0.00  0.00    +0.130 A 
ATOM      5  C   LIG    1       -1.532   4.757   4.714  0.00  0.00    +0.020 A 
ATOM      6  C   LIG    1       -2.523   3.926   5.224  0.00  0.00    +0.010 A 
ATOM      7  C   LIG    1       -2.820   2.726   4.615  0.00  0.00    +0.040 A 
ATOM      8 CL   LIG    1       -3.396   4.404   6.647  0.00  0.00    -0.050 Cl
ATOM      9  C   LIG    1       -2.117   2.343   3.470  0.00  0.00    +0.180 A 
ATOM     10  N   LIG    1       -2.374   1.173   2.838  0.00  0.00    -0.530 NA
ATOM     11  O   LIG    1        0.496   3.454   1.273  0.00  0.00    -0.500 OA
ATOM     12  C   LIG    1       -1.713   0.815   1.765  0.00  0.00    +0.370 A 
ENDROOT
BRANCH   1  13
ATOM     13  C   LIG    1       -0.036   1.107   0.005  0.00  0.00    +0.300 C 
BRANCH  13  14
ATOM     14  C   LIG    1       -0.776   1.605  -1.238  0.00  0.00    +0.020 C 
BRANCH  14  15
ATOM     15  C   LIG    1       -0.053   1.112  -2.493  0.00  0.00    +0.180 C 
BRANCH  15  17
ATOM     16  C   LIG    1       -0.148   1.169  -4.888  0.00  0.00    +0.200 C 
ATOM     17  O   LIG    1       -0.744   1.577  -3.655  0.00  0.00    -0.390 OA
ENDBRANCH  15  17
ENDBRANCH  14  15
ENDBRANCH  13  14
ENDBRANCH   1  13
BRANCH  12  18
ATOM     18  S   LIG    1       -2.115  -0.724   1.006  0.00  0.00    +0.080 S 
BRANCH  18  19
ATOM     19  C   LIG    1       -3.428  -1.288   2.116  0.00  0.00    +0.020 C 
ATOM     20  C   LIG    1       -4.625  -0.340   2.014  0.00  0.00    +0.090 C 
BRANCH  19  21
ATOM     21  C   LIG    1       -3.855  -2.679   1.723  0.00  0.00    +0.540 C 
ATOM     22  N   LIG    1       -4.506  -3.460   2.607  0.00  0.00    -0.660 N 
ATOM     23  H   LIG    1       -4.630  -3.158   3.521  0.00  0.00    +0.420 HD
ATOM     24  O   LIG    1       -3.612  -3.096   0.610  0.00  0.00    -0.500 OA
BRANCH  22  25
ATOM     25  C   LIG    1       -5.004  -4.705   2.208  0.00  0.00    +0.160 A 
ATOM     26  C   LIG    1       -5.303  -4.939   0.873  0.00  0.00    +0.030 A 
ATOM     27  C   LIG    1       -5.794  -6.169   0.481  0.00  0.00    +0.050 A 
ATOM     28  C   LIG    1       -5.987  -7.168   1.417  0.00  0.00    +0.020 A 
ATOM     29  C   LIG    1       -5.690  -6.939   2.749  0.00  0.00    -0.020 A 
ATOM     30 CL   LIG    1       -5.933  -8.196   3.921  0.00  0.00    -0.060 Cl
ATOM     31  C   LIG    1       -5.193  -5.711   3.146  0.00  0.00    -0.100 A 
ATOM     32  C   LIG    1       -4.864  -5.464   4.596  0.00  0.00    +0.110 C 
ENDBRANCH  22  25
ENDBRANCH  19  21
ENDBRANCH  18  19
ENDBRANCH  12  18
TORSDOF 8
