REMARK  Name = ZINCrD000000fKkP.0
REMARK                            x       y       z     vdW  Elec       q    Type
REMARK                         _______ _______ _______ _____ _____    ______ ____
ROOT
ATOM      1  N   LIG    1       -3.036   1.075  -0.965  0.00  0.00    -0.640 N 
ATOM      2  H   LIG    1       -3.874   1.557  -1.044  0.00  0.00    +0.420 HD
ATOM      3  C   LIG    1       -1.924   1.718  -0.558  0.00  0.00    +0.590 C 
ATOM      4  O   LIG    1       -0.860   1.130  -0.522  0.00  0.00    -0.490 OA
ENDROOT
BRANCH   1   8
ATOM      5  C   LIG    1       -2.913  -2.947  -1.847  0.00  0.00    +0.070 A 
ATOM      6  C   LIG    1       -1.725  -2.220  -1.896  0.00  0.00    +0.090 A 
ATOM      7  C   LIG    1       -1.766  -0.870  -1.600  0.00  0.00    +0.010 A 
ATOM      8  C   LIG    1       -2.983  -0.286  -1.266  0.00  0.00    +0.330 A 
ATOM      9  N   LIG    1       -4.091  -1.009  -1.224  0.00  0.00    -0.490 NA
ATOM     10  C   LIG    1       -4.090  -2.297  -1.505  0.00  0.00    +0.280 A 
BRANCH   5  13
ATOM     11  C   LIG    1       -1.909  -6.573  -2.026  0.00  0.00    +0.110 C 
ATOM     12  C   LIG    1       -1.863  -5.083  -1.799  0.00  0.00    +0.510 C 
ATOM     13  N   LIG    1       -2.918  -4.317  -2.140  0.00  0.00    -0.670 N 
ATOM     14  H   LIG    1       -3.681  -4.714  -2.588  0.00  0.00    +0.410 HD
ATOM     15  O   LIG    1       -0.877  -4.575  -1.309  0.00  0.00    -0.520 OA
ENDBRANCH   5  13
ENDBRANCH   1   8
BRANCH   3  16
ATOM     16  C   LIG    1       -1.997   3.131  -0.159  0.00  0.00    +0.030 A 
ATOM     17  C   LIG    1       -3.104   3.952  -0.241  0.00  0.00    -0.040 A 
ATOM     18  C   LIG    1       -2.739   5.206   0.243  0.00  0.00    +0.100 A 
ATOM     19  N   LIG    1       -1.478   5.171   0.597  0.00  0.00    -0.250 NA
ATOM     20  N   LIG    1       -0.977   3.885   0.359  0.00  0.00    -0.280 N 
BRANCH  20  21
ATOM     21  C   LIG    1        0.330   3.449   0.606  0.00  0.00    +0.130 A 
ATOM     22  C   LIG    1        0.550   2.228   1.231  0.00  0.00    +0.060 A 
ATOM     23  C   LIG    1        1.840   1.798   1.469  0.00  0.00    +0.020 A 
ATOM     24  C   LIG    1        2.913   2.587   1.096  0.00  0.00    +0.020 A 
ATOM     25  C   LIG    1        2.698   3.805   0.478  0.00  0.00    +0.020 A 
ATOM     26  C   LIG    1        1.409   4.239   0.232  0.00  0.00    +0.030 A 
ENDBRANCH  20  21
BRANCH  18  27
ATOM     27  C   LIG    1       -3.644   6.407   0.337  0.00  0.00    +0.040 C 
ATOM     28  C   LIG    1       -4.948   6.374  -0.463  0.00  0.00    +0.050 C 
ATOM     29  C   LIG    1       -3.797   7.277  -0.912  0.00  0.00    +0.040 C 
ENDBRANCH  18  27
ENDBRANCH   3  16
TORSDOF 5
