REMARK  Name = ZINC9p0000002naT.0
REMARK                            x       y       z     vdW  Elec       q    Type
REMARK                         _______ _______ _______ _____ _____    ______ ____
ROOT
ATOM      1  C   LIG    1       -0.019   1.526   0.010  0.00  0.00    +0.180 C 
ENDROOT
BRANCH   1   2
ATOM      2  C   LIG    1        1.338   2.196  -0.217  0.00  0.00    -0.030 C 
ATOM      3  C   LIG    1        1.250   3.512  -1.008  0.00  0.00    +0.020 C 
ATOM      4  C   LIG    1        2.529   3.064  -1.739  0.00  0.00    +0.030 C 
ATOM      5  C   LIG    1        2.117   1.619  -1.411  0.00  0.00    +0.040 C 
ENDBRANCH   1   2
BRANCH   1   6
ATOM      6  N   LIG    1       -0.724   2.207   1.104  0.00  0.00    -0.640 N 
ATOM      7  H   LIG    1       -1.655   1.829   1.191  0.00  0.00    +0.430 HD
ATOM      8  H   LIG    1       -0.779   3.195   0.905  0.00  0.00    +0.440 HD
ATOM      9  H   LIG    1       -0.221   2.066   1.968  0.00  0.00    +0.430 HD
ENDBRANCH   1   6
BRANCH   1  10
ATOM     10  C   LIG    1        0.193   0.056   0.378  0.00  0.00    +0.050 C 
BRANCH  10  12
ATOM     11  C   LIG    1       -0.951  -2.114   0.851  0.00  0.00    +0.030 C 
ATOM     12  C   LIG    1       -1.163  -0.644   0.483  0.00  0.00    -0.000 C 
ENDBRANCH  10  12
ENDBRANCH   1  10
TORSDOF 4
