REMARK  Name = ZINCtV00000L6kRi.0
REMARK                            x       y       z     vdW  Elec       q    Type
REMARK                         _______ _______ _______ _____ _____    ______ ____
ROOT
ATOM      1  C   LIG    1        4.308   5.645  -1.540  0.00  0.00    +0.070 C 
ATOM      2  C   LIG    1        3.627   6.002  -0.217  0.00  0.00    +0.190 C 
ENDROOT
BRANCH   2   3
ATOM      3  C   LIG    1        2.335   5.236  -0.095  0.00  0.00    +0.520 C 
ATOM      4  N   LIG    1        2.355   3.891  -0.001  0.00  0.00    -0.670 N 
ATOM      5  H   LIG    1        3.202   3.422   0.055  0.00  0.00    +0.420 HD
ATOM      6  O   LIG    1        1.277   5.829  -0.082  0.00  0.00    -0.490 OA
BRANCH   4   7
ATOM      7  C   LIG    1        1.154   3.173   0.018  0.00  0.00    +0.160 A 
ATOM      8  C   LIG    1        0.033   3.709   0.637  0.00  0.00    +0.100 A 
ATOM      9  C   LIG    1       -1.151   2.997   0.654  0.00  0.00    -0.160 A 
ATOM     10  C   LIG    1       -1.222   1.755   0.051  0.00  0.00    +0.080 A 
ATOM     11  C   LIG    1       -0.106   1.216  -0.562  0.00  0.00    +0.060 A 
ATOM     12  C   LIG    1        1.081   1.922  -0.582  0.00  0.00    -0.030 A 
ATOM     13 CL   LIG    1        2.481   1.247  -1.358  0.00  0.00    -0.050 Cl
BRANCH   9  14
ATOM     14  C   LIG    1       -2.369   3.579   1.326  0.00  0.00    +0.510 C 
ATOM     15  F   LIG    1       -1.969   4.408   2.379  0.00  0.00    -0.170 F 
ATOM     16  F   LIG    1       -3.166   2.542   1.824  0.00  0.00    -0.170 F 
ATOM     17  F   LIG    1       -3.102   4.325   0.397  0.00  0.00    -0.170 F 
ENDBRANCH   9  14
ENDBRANCH   4   7
ENDBRANCH   2   3
BRANCH   2  18
ATOM     18  O   LIG    1        3.349   7.427  -0.185  0.00  0.00    -0.330 OA
BRANCH  18  19
ATOM     19  C   LIG    1        4.303   8.222   0.327  0.00  0.00    +0.470 C 
ATOM     20  O   LIG    1        5.335   7.743   0.734  0.00  0.00    -0.500 OA
BRANCH  19  21
ATOM     21  C   LIG    1        4.085   9.711   0.394  0.00  0.00    +0.030 C 
ATOM     22  C   LIG    1        3.866  10.259  -1.018  0.00  0.00    +0.040 C 
ATOM     23  C   LIG    1        3.646  11.771  -0.951  0.00  0.00    +0.020 C 
ATOM     24  C   LIG    1        4.875  12.438  -0.330  0.00  0.00    -0.010 C 
ATOM     25  C   LIG    1        5.094  11.891   1.082  0.00  0.00    +0.020 C 
ATOM     26  C   LIG    1        5.315  10.379   1.014  0.00  0.00    +0.040 C 
BRANCH  24  27
ATOM     27  C   LIG    1        4.655  13.951  -0.262  0.00  0.00    -0.060 C 
ATOM     28  C   LIG    1        3.424  14.249   0.597  0.00  0.00    +0.020 C 
ATOM     29  C   LIG    1        4.436  14.498  -1.674  0.00  0.00    +0.020 C 
ATOM     30  C   LIG    1        5.884  14.618   0.358  0.00  0.00    +0.020 C 
ENDBRANCH  24  27
ENDBRANCH  19  21
ENDBRANCH  18  19
ENDBRANCH   2  18
TORSDOF 7
