REMARK  Name = ZINCvU0000000BBi.0
REMARK                            x       y       z     vdW  Elec       q    Type
REMARK                         _______ _______ _______ _____ _____    ______ ____
ROOT
ATOM      1  C   LIG    1        0.520   4.622  -0.642  0.00  0.00    +0.000 C 
ATOM      2  C   LIG    1       -0.233   4.320  -1.939  0.00  0.00    +0.090 C 
ENDROOT
BRANCH   1   3
ATOM      3  C   LIG    1       -0.254   4.072   0.528  0.00  0.00    +0.420 C 
ATOM      4  O   LIG    1       -1.016   4.792   1.144  0.00  0.00    -0.460 OA
BRANCH   3   5
ATOM      5  C   LIG    1       -0.096   2.732   0.906  0.00  0.00    -0.220 C 
ATOM      6  C   LIG    1       -0.895   2.198   1.862  0.00  0.00    +0.270 C 
ATOM      7  N   LIG    1       -0.914   0.901   2.270  0.00  0.00    -0.530 N 
ATOM      8  C   LIG    1       -1.853   0.685   3.278  0.00  0.00    +0.130 A 
ATOM      9  C   LIG    1       -2.191  -0.476   3.971  0.00  0.00    -0.020 A 
ATOM     10  C   LIG    1       -3.169  -0.442   4.943  0.00  0.00    +0.040 A 
ATOM     11  C   LIG    1       -3.822   0.741   5.237  0.00  0.00    -0.010 A 
ATOM     12  C   LIG    1       -3.492   1.898   4.552  0.00  0.00    +0.070 A 
ATOM     13  C   LIG    1       -2.516   1.868   3.582  0.00  0.00    -0.130 A 
ATOM     14  C   LIG    1       -0.047  -0.144   1.721  0.00  0.00    +0.330 C 
ATOM     15  C   LIG    1       -1.938   2.932   2.677  0.00  0.00    +0.000 C 
ATOM     16  C   LIG    1       -1.287   4.042   3.505  0.00  0.00    +0.080 C 
ATOM     17  C   LIG    1       -3.025   3.510   1.769  0.00  0.00    +0.080 C 
ENDBRANCH   3   5
ENDBRANCH   1   3
BRANCH   1  18
ATOM     18  S   LIG    1        0.706   6.412  -0.456  0.00  0.00    +0.110 S 
BRANCH  18  22
ATOM     19  C   LIG    1        2.967   7.768  -3.303  0.00  0.00    +0.220 A 
ATOM     20  N   LIG    1        2.932   6.486  -3.574  0.00  0.00    -0.240 NA
ATOM     21  N   LIG    1        2.209   5.883  -2.698  0.00  0.00    -0.290 NA
ATOM     22  C   LIG    1        1.746   6.758  -1.836  0.00  0.00    +0.120 A 
ATOM     23  O   LIG    1        2.217   7.967  -2.196  0.00  0.00    -0.200 OA
BRANCH  19  29
ATOM     24  C   LIG    1        4.435   8.452  -5.200  0.00  0.00    +0.180 A 
ATOM     25  C   LIG    1        5.111   9.431  -5.909  0.00  0.00    -0.070 A 
ATOM     26  C   LIG    1        5.052  10.750  -5.498  0.00  0.00    +0.080 A 
ATOM     27  C   LIG    1        4.320  11.101  -4.378  0.00  0.00    -0.020 A 
ATOM     28  C   LIG    1        3.636  10.139  -3.664  0.00  0.00    +0.100 A 
ATOM     29  C   LIG    1        3.692   8.804  -4.066  0.00  0.00    -0.060 A 
BRANCH  24  31
ATOM     30  C   LIG    1        5.269   6.873  -6.769  0.00  0.00    +0.250 C 
ATOM     31  O   LIG    1        4.492   7.156  -5.603  0.00  0.00    -0.290 OA
ENDBRANCH  24  31
ENDBRANCH  19  29
ENDBRANCH  18  22
ENDBRANCH   1  18
TORSDOF 6
