REMARK  Name = ZINCkj000005lQoe.0
REMARK                            x       y       z     vdW  Elec       q    Type
REMARK                         _______ _______ _______ _____ _____    ______ ____
ROOT
ATOM      1  O   LIG    1        2.972   0.667  -1.430  0.00  0.00    -0.560 OA
ATOM      2  C   LIG    1        4.057   0.170  -1.662  0.00  0.00    +0.710 C 
ATOM      3  N   LIG    1        4.484   0.047  -2.935  0.00  0.00    -0.640 N 
ATOM      4  C   LIG    1        3.707   0.603  -4.053  0.00  0.00    +0.300 C 
ATOM      5  C   LIG    1        3.486  -0.490  -5.097  0.00  0.00    +0.240 C 
ATOM      6  O   LIG    1        4.747  -1.054  -5.469  0.00  0.00    -0.340 OA
ATOM      7  C   LIG    1        5.461  -1.641  -4.384  0.00  0.00    +0.060 C 
ATOM      8  C   LIG    1        4.870  -2.973  -3.903  0.00  0.00    +0.290 C 
ATOM      9  N   LIG    1        5.790  -3.613  -4.872  0.00  0.00    -0.530 N 
ATOM     10  H   LIG    1        6.213  -4.456  -4.514  0.00  0.00    +0.430 HD
ATOM     11  H   LIG    1        5.373  -3.745  -5.781  0.00  0.00    +0.450 HD
ATOM     12  C   LIG    1        6.696  -2.443  -4.817  0.00  0.00    +0.360 C 
ATOM     13  C   LIG    1        5.741  -0.654  -3.251  0.00  0.00    +0.300 C 
ATOM     14  N   LIG    1        4.833  -0.259  -0.647  0.00  0.00    -0.740 N 
ATOM     15  H   LIG    1        5.665  -0.721  -0.834  0.00  0.00    +0.390 HD
ENDROOT
BRANCH  14  16
ATOM     16  C   LIG    1        4.419  -0.028   0.739  0.00  0.00    +0.340 C 
BRANCH  16  17
ATOM     17  C   LIG    1        5.453  -0.601   1.674  0.00  0.00    -0.100 A 
ATOM     18  C   LIG    1        6.508   0.184   2.102  0.00  0.00    +0.050 A 
ATOM     19  C   LIG    1        7.459  -0.342   2.955  0.00  0.00    +0.050 A 
ATOM     20  C   LIG    1        7.350  -1.651   3.389  0.00  0.00    -0.080 A 
ATOM     21  C   LIG    1        6.295  -2.436   2.961  0.00  0.00    +0.050 A 
ATOM     22 BR   LIG    1        8.648  -2.369   4.562  0.00  0.00    -0.040 Br
ATOM     23  C   LIG    1        5.347  -1.910   2.104  0.00  0.00    +0.030 A 
ENDBRANCH  16  17
ENDBRANCH  14  16
TORSDOF 2
