REMARK  Name = ZINCtV00000L6kwb.0
REMARK                            x       y       z     vdW  Elec       q    Type
REMARK                         _______ _______ _______ _____ _____    ______ ____
ROOT
ATOM      1  O   LIG    1       -2.420   0.995  -0.360  0.00  0.00    -0.510 OA
ATOM      2  C   LIG    1       -2.100   2.171  -0.267  0.00  0.00    +0.550 A 
ATOM      3  C   LIG    1       -3.069   3.130   0.052  0.00  0.00    -0.320 A 
ATOM      4  C   LIG    1       -2.694   4.471   0.156  0.00  0.00    +0.160 A 
ATOM      5  C   LIG    1       -1.349   4.817  -0.057  0.00  0.00    -0.120 A 
ATOM      6  C   LIG    1       -0.432   3.838  -0.373  0.00  0.00    +0.420 A 
ATOM      7  N   LIG    1        0.918   3.923  -0.637  0.00  0.00    -0.610 N 
ATOM      8  H   LIG    1        1.447   4.736  -0.637  0.00  0.00    +0.450 HD
ATOM      9  C   LIG    1        1.389   2.643  -0.901  0.00  0.00    +0.110 A 
ATOM     10  C   LIG    1        2.646   2.148  -1.222  0.00  0.00    +0.030 A 
ATOM     11  C   LIG    1        2.818   0.795  -1.436  0.00  0.00    +0.060 A 
ATOM     12  C   LIG    1        1.743  -0.070  -1.333  0.00  0.00    +0.030 A 
ATOM     13  C   LIG    1        0.489   0.412  -1.014  0.00  0.00    +0.080 A 
ATOM     14  C   LIG    1        0.306   1.770  -0.796  0.00  0.00    +0.060 A 
ATOM     15  N   LIG    1       -0.818   2.532  -0.473  0.00  0.00    -0.440 N 
ENDROOT
BRANCH   4  16
ATOM     16  C   LIG    1       -3.695   5.509   0.492  0.00  0.00    -0.060 A 
ATOM     17  C   LIG    1       -4.719   5.811  -0.406  0.00  0.00    +0.070 A 
ATOM     18  C   LIG    1       -5.652   6.775  -0.085  0.00  0.00    +0.030 A 
ATOM     19  C   LIG    1       -5.567   7.451   1.121  0.00  0.00    -0.020 A 
ATOM     20  C   LIG    1       -4.549   7.159   2.013  0.00  0.00    +0.030 A 
ATOM     21 CL   LIG    1       -6.741   8.668   1.515  0.00  0.00    -0.060 Cl
ATOM     22  C   LIG    1       -3.614   6.193   1.705  0.00  0.00    +0.060 A 
ENDBRANCH   4  16
BRANCH   3  23
ATOM     23  S   LIG    1       -4.743   2.650   0.318  0.00  0.00    +0.070 S 
BRANCH  23  24
ATOM     24  C   LIG    1       -4.649   1.685   1.790  0.00  0.00    -0.090 A 
ATOM     25  C   LIG    1       -3.450   1.592   2.486  0.00  0.00    +0.020 A 
ATOM     26  C   LIG    1       -3.381   0.840   3.642  0.00  0.00    +0.040 A 
ATOM     27  C   LIG    1       -4.502   0.170   4.102  0.00  0.00    -0.040 A 
ATOM     28  C   LIG    1       -5.696   0.256   3.407  0.00  0.00    +0.050 A 
ATOM     29 CL   LIG    1       -4.410  -0.780   5.552  0.00  0.00    -0.070 Cl
ATOM     30  C   LIG    1       -5.773   1.011   2.254  0.00  0.00    +0.050 A 
ENDBRANCH  23  24
ENDBRANCH   3  23
TORSDOF 3
