REMARK  Name = ZINCrH00000No56t.0
REMARK                            x       y       z     vdW  Elec       q    Type
REMARK                         _______ _______ _______ _____ _____    ______ ____
ROOT
ATOM      1  C   LIG    1        2.727   0.499  -3.373  0.00  0.00    +0.330 A 
ATOM      2  N   LIG    1        1.648   0.838  -2.696  0.00  0.00    -0.530 NA
ATOM      3  C   LIG    1        1.977   1.128  -1.440  0.00  0.00    +0.260 A 
ATOM      4  N   LIG    1        3.268   0.986  -1.290  0.00  0.00    -0.310 NA
ATOM      5  N   LIG    1        3.783   0.572  -2.530  0.00  0.00    -0.370 N 
ENDROOT
BRANCH   1   9
ATOM      6  C   LIG    1        2.870  -0.624  -7.472  0.00  0.00    +0.130 A 
ATOM      7  C   LIG    1        4.019  -0.181  -6.834  0.00  0.00    -0.030 A 
ATOM      8  C   LIG    1        3.974   0.190  -5.505  0.00  0.00    +0.030 A 
ATOM      9  C   LIG    1        2.775   0.108  -4.798  0.00  0.00    -0.040 A 
ATOM     10  C   LIG    1        1.618  -0.338  -5.440  0.00  0.00    +0.030 A 
ATOM     11  C   LIG    1        1.668  -0.703  -6.773  0.00  0.00    +0.100 A 
BRANCH  11  12
ATOM     12  O   LIG    1        0.543  -1.138  -7.401  0.00  0.00    -0.300 OA
ATOM     13  C   LIG    1       -0.655  -1.193  -6.623  0.00  0.00    +0.240 C 
ENDBRANCH  11  12
BRANCH   6  14
ATOM     14  O   LIG    1        2.918  -0.982  -8.782  0.00  0.00    -0.290 OA
BRANCH  14  15
ATOM     15  C   LIG    1        4.183  -0.877  -9.438  0.00  0.00    +0.210 C 
BRANCH  15  16
ATOM     16  C   LIG    1        4.040  -1.321 -10.896  0.00  0.00    +0.190 C 
BRANCH  16  18
ATOM     17  C   LIG    1        2.978  -0.739 -12.964  0.00  0.00    +0.200 C 
ATOM     18  O   LIG    1        3.179  -0.413 -11.587  0.00  0.00    -0.380 OA
ENDBRANCH  16  18
ENDBRANCH  15  16
ENDBRANCH  14  15
ENDBRANCH   6  14
ENDBRANCH   1   9
BRANCH   3  19
ATOM     19  C   LIG    1        1.015   1.557  -0.362  0.00  0.00    +0.050 C 
ATOM     20  C   LIG    1       -0.480   1.477  -0.677  0.00  0.00    +0.060 C 
ATOM     21  C   LIG    1        0.214   2.839  -0.601  0.00  0.00    -0.020 C 
ATOM     22  C   LIG    1       -0.089   3.719   0.614  0.00  0.00    +0.060 C 
ENDBRANCH   3  19
BRANCH   5  23
ATOM     23  C   LIG    1        5.183   0.282  -2.848  0.00  0.00    +0.350 C 
BRANCH  23  24
ATOM     24  C   LIG    1        5.902   1.582  -3.216  0.00  0.00    +0.010 C 
BRANCH  24  25
ATOM     25  C   LIG    1        7.364   1.280  -3.548  0.00  0.00    +0.390 C 
ATOM     26  F   LIG    1        8.049   2.479  -3.773  0.00  0.00    -0.200 F 
ATOM     27  F   LIG    1        7.426   0.485  -4.698  0.00  0.00    -0.200 F 
ENDBRANCH  24  25
ENDBRANCH  23  24
ENDBRANCH   5  23
TORSDOF 10
