REMARK  Name = ZINCrH000004sJA3.0
REMARK                            x       y       z     vdW  Elec       q    Type
REMARK                         _______ _______ _______ _____ _____    ______ ____
ROOT
ATOM      1  C   LIG    1       -1.328   1.041   0.870  0.00  0.00    +0.510 C 
ATOM      2  N   LIG    1       -0.142   0.598   0.409  0.00  0.00    -0.720 N 
ATOM      3  H   LIG    1       -0.066  -0.299   0.049  0.00  0.00    +0.410 HD
ATOM      4  O   LIG    1       -1.423   2.163   1.322  0.00  0.00    -0.530 OA
ENDROOT
BRANCH   1   5
ATOM      5  C   LIG    1       -2.537   0.143   0.825  0.00  0.00    +0.140 C 
BRANCH   5  12
ATOM      6  C   LIG    1       -4.582   1.934  -0.804  0.00  0.00    +0.150 C 
ATOM      7  C   LIG    1       -4.630   1.662   0.678  0.00  0.00    +0.090 A 
ATOM      8  N   LIG    1       -5.523   2.125   1.514  0.00  0.00    -0.290 NA
ATOM      9  N   LIG    1       -5.216   1.643   2.793  0.00  0.00    -0.360 N 
ATOM     10  C   LIG    1       -4.113   0.872   2.693  0.00  0.00    +0.100 A 
ATOM     11  C   LIG    1       -3.431   0.145   3.823  0.00  0.00    +0.140 C 
ATOM     12  C   LIG    1       -3.727   0.872   1.396  0.00  0.00    -0.220 A 
BRANCH   9  13
ATOM     13  C   LIG    1       -5.963   1.922   4.022  0.00  0.00    +0.320 C 
BRANCH  13  14
ATOM     14  C   LIG    1       -7.048   0.860   4.211  0.00  0.00    -0.040 C 
ATOM     15  C   LIG    1       -8.072   0.970   3.080  0.00  0.00    +0.020 C 
ATOM     16  C   LIG    1       -7.747   1.077   5.554  0.00  0.00    +0.030 C 
ENDBRANCH  13  14
ENDBRANCH   9  13
ENDBRANCH   5  12
ENDBRANCH   1   5
BRANCH   2  17
ATOM     17  C   LIG    1        1.032   1.473   0.448  0.00  0.00    +0.270 C 
BRANCH  17  18
ATOM     18  C   LIG    1        2.238   0.735  -0.137  0.00  0.00    +0.210 C 
BRANCH  18  19
ATOM     19  C   LIG    1        3.471   1.589   0.015  0.00  0.00    -0.110 A 
ATOM     20  C   LIG    1        3.562   2.493   1.056  0.00  0.00    +0.040 A 
ATOM     21  C   LIG    1        4.693   3.276   1.194  0.00  0.00    +0.020 A 
ATOM     22  C   LIG    1        5.733   3.155   0.292  0.00  0.00    +0.030 A 
ATOM     23  C   LIG    1        5.643   2.251  -0.750  0.00  0.00    +0.030 A 
ATOM     24  C   LIG    1        4.514   1.463  -0.885  0.00  0.00    -0.030 A 
ATOM     25 CL   LIG    1        4.404   0.321  -2.189  0.00  0.00    -0.060 Cl
ENDBRANCH  18  19
BRANCH  18  26
ATOM     26  N   LIG    1        2.430  -0.533   0.579  0.00  0.00    -0.520 NA
ATOM     27  C   LIG    1        2.803  -0.296   1.980  0.00  0.00    +0.190 C 
ATOM     28  C   LIG    1        3.427  -1.373  -0.097  0.00  0.00    +0.190 C 
ENDBRANCH  18  26
ENDBRANCH  17  18
ENDBRANCH   2  17
TORSDOF 8
