REMARK  Name = ZINCrD0000073m4j.0
REMARK                            x       y       z     vdW  Elec       q    Type
REMARK                         _______ _______ _______ _____ _____    ______ ____
ROOT
ATOM      1  C   LIG    1        1.208   1.675  -0.001  0.00  0.00    +0.220 A 
ATOM      2  N   LIG    1       -0.014   1.209   0.009  0.00  0.00    -0.370 NA
ATOM      3  O   LIG    1        0.002  -0.004   0.002  0.00  0.00    +0.100 OA
ATOM      4  C   LIG    1        1.264  -0.445  -0.012  0.00  0.00    +0.180 A 
ATOM      5  N   LIG    1        2.041   0.610  -0.014  0.00  0.00    -0.440 NA
ENDROOT
BRANCH   1   9
ATOM      6  C   LIG    1        2.355   5.774   0.009  0.00  0.00    +0.130 A 
ATOM      7  C   LIG    1        3.324   4.782  -0.006  0.00  0.00    -0.030 A 
ATOM      8  C   LIG    1        2.954   3.453  -0.009  0.00  0.00    +0.080 A 
ATOM      9  C   LIG    1        1.605   3.104   0.003  0.00  0.00    -0.030 A 
ATOM     10  C   LIG    1        0.630   4.100   0.012  0.00  0.00    +0.000 A 
ATOM     11  C   LIG    1        1.005   5.431   0.020  0.00  0.00    +0.100 A 
BRANCH   6  13
ATOM     12  C   LIG    1        4.124   7.362  -0.000  0.00  0.00    +0.240 C 
ATOM     13  O   LIG    1        2.723   7.082   0.012  0.00  0.00    -0.300 OA
ENDBRANCH   6  13
BRANCH  11  14
ATOM     14  O   LIG    1        0.055   6.405   0.034  0.00  0.00    -0.300 OA
ATOM     15  C   LIG    1       -1.309   5.980   0.045  0.00  0.00    +0.240 C 
ENDBRANCH  11  14
ENDBRANCH   1   9
BRANCH   4  16
ATOM     16  C   LIG    1        1.709  -1.885  -0.024  0.00  0.00    +0.420 C 
BRANCH  16  17
ATOM     17  O   LIG    1        1.865  -2.354   1.341  0.00  0.00    -0.340 OA
BRANCH  17  18
ATOM     18  C   LIG    1        2.260  -3.631   1.508  0.00  0.00    +0.520 C 
ATOM     19  O   LIG    1        2.470  -4.333   0.538  0.00  0.00    -0.490 OA
BRANCH  18  20
ATOM     20  C   LIG    1        2.440  -4.177   2.868  0.00  0.00    -0.070 A 
ATOM     21  C   LIG    1        2.205  -3.370   3.983  0.00  0.00    +0.040 A 
ATOM     22  C   LIG    1        2.369  -3.884   5.253  0.00  0.00    +0.070 A 
ATOM     23  C   LIG    1        2.775  -5.195   5.427  0.00  0.00    -0.080 A 
ATOM     24  C   LIG    1        3.017  -6.006   4.322  0.00  0.00    +0.220 A 
ATOM     25 CL   LIG    1        2.985  -5.831   7.029  0.00  0.00    -0.060 Cl
ATOM     26  C   LIG    1        2.850  -5.500   3.043  0.00  0.00    +0.030 A 
BRANCH  24  27
ATOM     27  N   LIG    1        3.427  -7.330   4.502  0.00  0.00    -0.870 N 
ATOM     28  H   LIG    1        3.543  -7.684   5.398  0.00  0.00    +0.410 HD
ATOM     29  H   LIG    1        3.595  -7.895   3.732  0.00  0.00    +0.410 HD
ENDBRANCH  24  27
ENDBRANCH  18  20
ENDBRANCH  17  18
ENDBRANCH  16  17
ENDBRANCH   4  16
TORSDOF 8
