REMARK  Name = ZINCpk00000y6xGM.0
REMARK                            x       y       z     vdW  Elec       q    Type
REMARK                         _______ _______ _______ _____ _____    ______ ____
ROOT
ATOM      1  N   LIG    1       -2.894   1.836   3.942  0.00  0.00    -0.710 N 
ATOM      2  H   LIG    1       -2.718   0.949   3.591  0.00  0.00    +0.410 HD
ATOM      3  C   LIG    1       -4.065   2.097   4.556  0.00  0.00    +0.610 C 
ATOM      4  O   LIG    1       -4.286   3.208   4.996  0.00  0.00    -0.530 OA
ENDROOT
BRANCH   3   5
ATOM      5  C   LIG    1       -5.080   1.033   4.694  0.00  0.00    -0.010 A 
ATOM      6  N   LIG    1       -4.982  -0.214   4.262  0.00  0.00    -0.260 NA
ATOM      7  N   LIG    1       -6.053  -0.871   4.554  0.00  0.00    -0.260 N 
ATOM      8  C   LIG    1       -6.919  -0.075   5.195  0.00  0.00    -0.030 A 
ATOM      9  C   LIG    1       -8.294  -0.375   5.735  0.00  0.00    +0.250 C 
ATOM     10  C   LIG    1       -8.275  -1.708   6.486  0.00  0.00    +0.070 C 
ATOM     11  O   LIG    1       -8.656   0.683   6.634  0.00  0.00    -0.370 OA
ATOM     12  C   LIG    1       -8.498   1.999   6.097  0.00  0.00    +0.140 C 
ATOM     13  C   LIG    1       -9.158   3.014   7.033  0.00  0.00    +0.070 C 
ATOM     14  C   LIG    1       -7.002   2.326   5.961  0.00  0.00    +0.110 C 
ATOM     15  C   LIG    1       -6.289  -2.280   4.229  0.00  0.00    +0.360 C 
ATOM     16  C   LIG    1       -6.337   1.149   5.302  0.00  0.00    -0.140 A 
ENDBRANCH   3   5
BRANCH   1  17
ATOM     17  C   LIG    1       -1.887   2.891   3.806  0.00  0.00    +0.360 C 
BRANCH  17  19
ATOM     18  C   LIG    1       -0.478   2.348   1.744  0.00  0.00    +0.280 A 
ATOM     19  C   LIG    1       -0.680   2.344   3.088  0.00  0.00    -0.270 A 
ATOM     20  C   LIG    1        0.431   1.742   3.687  0.00  0.00    +0.100 A 
ATOM     21  N   LIG    1        1.269   1.397   2.744  0.00  0.00    -0.280 NA
ATOM     22  C   LIG    1        0.630   1.528   5.165  0.00  0.00    +0.160 C 
ATOM     23  N   LIG    1        0.718   1.762   1.509  0.00  0.00    -0.380 N 
ATOM     24  C   LIG    1        1.329   1.550   0.195  0.00  0.00    +0.360 C 
BRANCH  18  26
ATOM     25  C   LIG    1       -1.203   4.232   0.492  0.00  0.00    +0.250 C 
ATOM     26  O   LIG    1       -1.325   2.844   0.807  0.00  0.00    -0.310 OA
ENDBRANCH  18  26
ENDBRANCH  17  19
ENDBRANCH   1  17
TORSDOF 4
