REMARK  Name = ZINCvU0000000AjA.0
REMARK                            x       y       z     vdW  Elec       q    Type
REMARK                         _______ _______ _______ _____ _____    ______ ____
ROOT
ATOM      1  O   LIG    1       -1.714   2.256   1.150  0.00  0.00    -0.520 OA
ATOM      2  C   LIG    1       -0.718   1.572   1.248  0.00  0.00    +0.540 C 
ATOM      3  N   LIG    1       -0.242   1.246   2.466  0.00  0.00    -0.600 N 
ATOM      4  C   LIG    1        0.961   0.413   2.601  0.00  0.00    +0.270 C 
ATOM      5  C   LIG    1        0.643  -0.778   3.504  0.00  0.00    +0.030 C 
ATOM      6  C   LIG    1        0.077  -0.270   4.832  0.00  0.00    +0.030 C 
ATOM      7  C   LIG    1       -1.219   0.503   4.575  0.00  0.00    +0.080 C 
ATOM      8  C   LIG    1       -0.918   1.712   3.684  0.00  0.00    +0.300 C 
ENDROOT
BRANCH   7   9
ATOM      9  C   LIG    1       -1.792   0.974   5.886  0.00  0.00    +0.100 A 
ATOM     10  N   LIG    1       -2.949   0.649   6.324  0.00  0.00    -0.460 NA
ATOM     11  C   LIG    1       -3.333   1.145   7.515  0.00  0.00    +0.080 A 
ATOM     12  C   LIG    1       -4.536   0.953   8.225  0.00  0.00    +0.080 A 
ATOM     13  C   LIG    1       -4.728   1.555   9.432  0.00  0.00    +0.030 A 
ATOM     14  C   LIG    1       -3.747   2.365   9.985  0.00  0.00    +0.040 A 
ATOM     15  C   LIG    1       -2.563   2.571   9.315  0.00  0.00    +0.060 A 
ATOM     16  C   LIG    1       -2.349   1.964   8.079  0.00  0.00    -0.180 A 
ATOM     17  S   LIG    1       -0.977   2.003   6.976  0.00  0.00    +0.110 S 
ENDBRANCH   7   9
BRANCH   2  18
ATOM     18  C   LIG    1       -0.013   1.086   0.008  0.00  0.00    +0.120 C 
BRANCH  18  19
ATOM     19  S   LIG    1       -0.888   1.685  -1.458  0.00  0.00    +0.050 S 
BRANCH  19  20
ATOM     20  C   LIG    1        0.122   0.990  -2.724  0.00  0.00    +0.180 A 
ATOM     21  N   LIG    1        1.193   0.254  -2.534  0.00  0.00    -0.490 NA
ATOM     22  C   LIG    1        1.705  -0.100  -3.724  0.00  0.00    +0.150 A 
ATOM     23  C   LIG    1        0.935   0.429  -4.690  0.00  0.00    +0.140 A 
ATOM     24  N   LIG    1       -0.078   1.119  -4.064  0.00  0.00    -0.440 N 
BRANCH  24  25
ATOM     25  C   LIG    1       -1.164   1.856  -4.715  0.00  0.00    +0.350 C 
BRANCH  25  26
ATOM     26  C   LIG    1       -0.783   3.310  -4.834  0.00  0.00    -0.120 A 
ATOM     27  C   LIG    1       -1.108   4.194  -3.823  0.00  0.00    +0.040 A 
ATOM     28  C   LIG    1       -0.755   5.527  -3.930  0.00  0.00    +0.010 A 
ATOM     29  C   LIG    1       -0.086   5.976  -5.053  0.00  0.00    +0.010 A 
ATOM     30  C   LIG    1        0.234   5.093  -6.067  0.00  0.00    +0.010 A 
ATOM     31  C   LIG    1       -0.115   3.760  -5.957  0.00  0.00    +0.020 A 
ENDBRANCH  25  26
ENDBRANCH  24  25
ENDBRANCH  19  20
ENDBRANCH  18  19
ENDBRANCH   2  18
TORSDOF 6
