REMARK  Name = ZINCnE000008Jfpq.0
REMARK                            x       y       z     vdW  Elec       q    Type
REMARK                         _______ _______ _______ _____ _____    ______ ____
ROOT
ATOM      1  S   LIG    1       -2.108   2.318   3.669  0.00  0.00    +2.610 S 
ATOM      2  O   LIG    1       -2.719   3.141   4.654  0.00  0.00    -1.040 OA
ATOM      3  O   LIG    1       -1.094   1.370   3.969  0.00  0.00    -1.020 OA
ENDROOT
BRANCH   1   6
ATOM      4  C   LIG    1       -1.003   5.633   1.677  0.00  0.00    +0.060 A 
ATOM      5  C   LIG    1       -1.532   4.775   2.630  0.00  0.00    +0.070 A 
ATOM      6  C   LIG    1       -1.430   3.408   2.462  0.00  0.00    -0.620 A 
ATOM      7  C   LIG    1       -0.787   2.893   1.346  0.00  0.00    +0.200 A 
ATOM      8  C   LIG    1       -0.258   3.750   0.393  0.00  0.00    -0.060 A 
ATOM      9  C   LIG    1       -0.365   5.117   0.558  0.00  0.00    -0.040 A 
ATOM     10  C   LIG    1        0.209   6.049  -0.478  0.00  0.00    +0.100 C 
BRANCH   4  12
ATOM     11  C   LIG    1       -1.777   7.439   3.016  0.00  0.00    +0.240 C 
ATOM     12  O   LIG    1       -1.108   6.979   1.840  0.00  0.00    -0.320 OA
ENDBRANCH   4  12
BRANCH   7  13
ATOM     13  O   LIG    1       -0.682   1.547   1.184  0.00  0.00    -0.290 OA
ATOM     14  C   LIG    1       -0.013   1.086   0.008  0.00  0.00    +0.230 C 
ENDBRANCH   7  13
ENDBRANCH   1   6
BRANCH   1  15
ATOM     15  N   LIG    1       -3.333   1.478   2.938  0.00  0.00    -1.080 NA
BRANCH  15  16
ATOM     16  C   LIG    1       -4.061   0.531   3.662  0.00  0.00    +0.280 A 
ATOM     17  C   LIG    1       -3.754   0.289   4.995  0.00  0.00    -0.170 A 
ATOM     18  C   LIG    1       -4.478  -0.645   5.710  0.00  0.00    +0.030 A 
ATOM     19  C   LIG    1       -5.501  -1.346   5.098  0.00  0.00    -0.200 A 
ATOM     20  C   LIG    1       -5.805  -1.111   3.769  0.00  0.00    +0.020 A 
ATOM     21  C   LIG    1       -6.286  -2.367   5.880  0.00  0.00    +0.060 C 
ATOM     22  C   LIG    1       -5.088  -0.175   3.050  0.00  0.00    -0.150 A 
ATOM     23  C   LIG    1       -5.421   0.080   1.602  0.00  0.00    +0.060 C 
ENDBRANCH  15  16
ENDBRANCH   1  15
TORSDOF 5
