REMARK  Name = ZINCrg000000mWYN.0
REMARK                            x       y       z     vdW  Elec       q    Type
REMARK                         _______ _______ _______ _____ _____    ______ ____
ROOT
ATOM      1  C   LIG    1       -1.547   3.295   4.981  0.00  0.00    +0.220 C 
ENDROOT
BRANCH   1   2
ATOM      2  N   LIG    1       -0.865   2.822   3.769  0.00  0.00    -0.520 NA
ATOM      3  C   LIG    1       -0.941   1.359   3.658  0.00  0.00    +0.190 C 
ATOM      4  C   LIG    1       -0.153   0.901   2.429  0.00  0.00    +0.190 C 
ATOM      5  N   LIG    1       -0.704   1.546   1.229  0.00  0.00    -0.530 NA
ATOM      6  C   LIG    1       -0.627   3.009   1.339  0.00  0.00    +0.200 C 
ATOM      7  C   LIG    1       -1.415   3.467   2.569  0.00  0.00    +0.190 C 
BRANCH   5   8
ATOM      8  C   LIG    1       -0.021   1.073   0.017  0.00  0.00    +0.200 C 
BRANCH   8   9
ATOM      9  C   LIG    1       -0.764   1.561  -1.200  0.00  0.00    +0.530 C 
ATOM     10  N   LIG    1       -0.318   1.247  -2.433  0.00  0.00    -0.620 N 
ATOM     11  C   LIG    1        0.878   0.445  -2.733  0.00  0.00    +0.240 C 
ATOM     12  C   LIG    1        1.005   0.370  -4.269  0.00  0.00    +0.030 C 
ATOM     13  C   LIG    1        0.203   1.610  -4.743  0.00  0.00    +0.040 C 
ATOM     14  C   LIG    1       -0.944   1.655  -3.703  0.00  0.00    +0.260 C 
ATOM     15  O   LIG    1       -1.763   2.236  -1.071  0.00  0.00    -0.520 OA
ENDBRANCH   8   9
ENDBRANCH   5   8
ENDBRANCH   1   2
BRANCH   1  18
ATOM     16  N   LIG    1       -1.764   5.407   6.249  0.00  0.00    -0.670 N 
ATOM     17  H   LIG    1       -2.400   4.960   6.829  0.00  0.00    +0.420 HD
ATOM     18  C   LIG    1       -1.242   4.756   5.191  0.00  0.00    +0.510 C 
ATOM     19  O   LIG    1       -0.527   5.345   4.409  0.00  0.00    -0.500 OA
BRANCH  16  25
ATOM     20  C   LIG    1       -2.257   7.576   7.217  0.00  0.00    -0.220 A 
ATOM     21  C   LIG    1       -1.866   8.894   7.476  0.00  0.00    +0.090 A 
ATOM     22  C   LIG    1       -0.647   9.350   7.027  0.00  0.00    -0.030 A 
ATOM     23  C   LIG    1        0.200   8.508   6.324  0.00  0.00    +0.070 A 
ATOM     24  C   LIG    1       -0.167   7.202   6.065  0.00  0.00    +0.000 A 
ATOM     25  C   LIG    1       -1.392   6.723   6.509  0.00  0.00    +0.220 A 
BRANCH  20  27
ATOM     26  C   LIG    1       -4.527   8.031   8.348  0.00  0.00    +0.080 C 
ATOM     27  C   LIG    1       -3.558   7.084   7.687  0.00  0.00    +0.400 C 
ATOM     28  O   LIG    1       -3.853   5.917   7.543  0.00  0.00    -0.470 OA
ENDBRANCH  20  27
ENDBRANCH  16  25
ENDBRANCH   1  18
TORSDOF 6
