REMARK  Name = ZINCqH0000004VuE.0
REMARK                            x       y       z     vdW  Elec       q    Type
REMARK                         _______ _______ _______ _____ _____    ______ ____
ROOT
ATOM      1  C   LIG    1        4.785   2.639   0.513  0.00  0.00    +0.560 C 
ATOM      2  N   LIG    1        5.287   1.395   0.641  0.00  0.00    -0.720 N 
ATOM      3  H   LIG    1        4.702   0.625   0.560  0.00  0.00    +0.400 HD
ATOM      4  O   LIG    1        5.517   3.604   0.614  0.00  0.00    -0.470 OA
ENDROOT
BRANCH   1  10
ATOM      5  N   LIG    1       -0.662   3.227  -0.459  0.00  0.00    -0.390 N 
ATOM      6  N   LIG    1       -1.079   1.898  -0.345  0.00  0.00    -0.240 NA
ATOM      7  C   LIG    1       -0.065   1.132  -0.065  0.00  0.00    +0.290 A 
ATOM      8  C   LIG    1        1.121   1.979   0.008  0.00  0.00    -0.250 A 
ATOM      9  C   LIG    1        2.473   1.740   0.263  0.00  0.00    +0.180 A 
ATOM     10  C   LIG    1        3.344   2.830   0.251  0.00  0.00    -0.230 A 
ATOM     11  C   LIG    1        2.834   4.109  -0.013  0.00  0.00    +0.260 A 
ATOM     12  N   LIG    1        1.558   4.300  -0.249  0.00  0.00    -0.510 NA
ATOM     13  C   LIG    1        3.772   5.288  -0.028  0.00  0.00    +0.160 C 
ATOM     14  C   LIG    1        0.687   3.297  -0.249  0.00  0.00    +0.340 A 
BRANCH   5  16
ATOM     15  C   LIG    1       -1.605   4.561  -2.279  0.00  0.00    +0.030 C 
ATOM     16  C   LIG    1       -1.532   4.366  -0.763  0.00  0.00    +0.340 C 
ENDBRANCH   5  16
ENDBRANCH   1  10
BRANCH   2  17
ATOM     17  C   LIG    1        6.716   1.206   0.901  0.00  0.00    +0.260 C 
ATOM     18  C   LIG    1        7.557   1.698  -0.303  0.00  0.00    +0.050 C 
ATOM     19  C   LIG    1        7.468   0.509  -1.292  0.00  0.00    +0.020 C 
ATOM     20  C   LIG    1        7.529  -0.740  -0.387  0.00  0.00    +0.020 C 
ATOM     21  C   LIG    1        7.051  -0.297   1.007  0.00  0.00    +0.030 C 
BRANCH  17  22
ATOM     22  C   LIG    1        7.122   1.926   2.161  0.00  0.00    +0.040 A 
ATOM     23  N   LIG    1        6.921   3.180   2.391  0.00  0.00    -0.410 NA
ATOM     24  C   LIG    1        7.337   3.652   3.550  0.00  0.00    +0.060 A 
ATOM     25  C   LIG    1        7.929   2.748   4.336  0.00  0.00    -0.100 A 
ATOM     26  C   LIG    1        7.164   5.093   3.952  0.00  0.00    +0.140 C 
ATOM     27  S   LIG    1        7.921   1.203   3.488  0.00  0.00    +0.110 S 
ENDBRANCH  17  22
ENDBRANCH   2  17
TORSDOF 4
