REMARK  Name = ZINCah0000002oXb.0
REMARK                            x       y       z     vdW  Elec       q    Type
REMARK                         _______ _______ _______ _____ _____    ______ ____
ROOT
ATOM      1  N   LIG    1       -2.103   1.072   1.277  0.00  0.00    -0.490 N 
ATOM      2  C   LIG    1       -3.246   1.847   1.292  0.00  0.00    +0.600 A 
ATOM      3  N   LIG    1       -4.322   0.988   1.297  0.00  0.00    -0.570 N 
ATOM      4  H   LIG    1       -5.260   1.237   1.308  0.00  0.00    +0.450 HD
ATOM      5  N   LIG    1       -3.803  -0.315   1.285  0.00  0.00    -0.470 N 
ATOM      6  H   LIG    1       -4.321  -1.135   1.285  0.00  0.00    +0.460 HD
ATOM      7  N   LIG    1       -3.296   3.148   1.300  0.00  0.00    -0.740 NA
ATOM      8  H   LIG    1       -4.154   3.600   1.311  0.00  0.00    +0.360 HD
ATOM      9  C   LIG    1       -2.460  -0.225   1.268  0.00  0.00    +0.530 A 
ATOM     10  S   LIG    1       -1.377  -1.551   1.242  0.00  0.00    -0.530 S 
ENDROOT
BRANCH   1  12
ATOM     11  C   LIG    1       -0.013   1.086   0.008  0.00  0.00    +0.060 C 
ATOM     12  C   LIG    1       -0.729   1.579   1.267  0.00  0.00    +0.280 C 
ATOM     13  C   LIG    1        0.011   1.072   2.506  0.00  0.00    +0.060 C 
ENDBRANCH   1  12
TORSDOF 1
