REMARK  Name = ZINCrD000000ArCf.0
REMARK                            x       y       z     vdW  Elec       q    Type
REMARK                         _______ _______ _______ _____ _____    ______ ____
ROOT
ATOM      1  C   LIG    1       -2.270   5.651   0.293  0.00  0.00    +0.180 A 
ATOM      2  C   LIG    1       -1.118   6.380   0.042  0.00  0.00    -0.080 A 
ATOM      3  C   LIG    1       -1.169   7.759  -0.008  0.00  0.00    +0.080 A 
ATOM      4  C   LIG    1       -2.365   8.425   0.205  0.00  0.00    -0.030 A 
ATOM      5  C   LIG    1       -3.519   7.715   0.462  0.00  0.00    +0.080 A 
ATOM      6  C   LIG    1       -3.482   6.320   0.509  0.00  0.00    -0.170 A 
ENDROOT
BRANCH   6   7
ATOM      7  C   LIG    1       -4.714   5.555   0.783  0.00  0.00    +0.550 C 
ATOM      8  N   LIG    1       -5.878   6.202   0.990  0.00  0.00    -0.730 N 
ATOM      9  H   LIG    1       -5.906   7.171   0.958  0.00  0.00    +0.400 HD
ATOM     10  O   LIG    1       -4.678   4.340   0.823  0.00  0.00    -0.510 OA
BRANCH   8  11
ATOM     11  C   LIG    1       -7.100   5.442   1.262  0.00  0.00    +0.290 C 
BRANCH  11  12
ATOM     12  C   LIG    1       -8.269   6.410   1.457  0.00  0.00    +0.140 C 
ATOM     13  C   LIG    1       -9.552   5.635   1.831  0.00  0.00    +0.010 C 
ATOM     14  C   LIG    1      -10.679   6.398   1.099  0.00  0.00    +0.000 C 
ATOM     15  C   LIG    1       -9.943   7.544   0.370  0.00  0.00    +0.190 C 
ATOM     16  O   LIG    1       -8.585   7.074   0.214  0.00  0.00    -0.370 OA
ENDBRANCH  11  12
ENDBRANCH   8  11
ENDBRANCH   6   7
BRANCH   1  17
ATOM     17  O   LIG    1       -2.223   4.296   0.336  0.00  0.00    -0.250 OA
BRANCH  17  18
ATOM     18  C   LIG    1       -0.952   3.683   0.107  0.00  0.00    +0.240 C 
BRANCH  18  20
ATOM     19  O   LIG    1       -2.176   1.691   0.428  0.00  0.00    -0.470 OA
ATOM     20  C   LIG    1       -1.093   2.186   0.193  0.00  0.00    +0.510 C 
ATOM     21  N   LIG    1       -0.017   1.395   0.010  0.00  0.00    -0.670 N 
ATOM     22  H   LIG    1        0.861   1.791  -0.106  0.00  0.00    +0.410 HD
BRANCH  21  23
ATOM     23  C   LIG    1       -0.167   0.004  -0.020  0.00  0.00    +0.160 A 
ATOM     24  C   LIG    1        0.843  -0.815   0.467  0.00  0.00    +0.000 A 
ATOM     25  C   LIG    1        0.690  -2.187   0.441  0.00  0.00    +0.070 A 
ATOM     26  C   LIG    1       -0.464  -2.746  -0.079  0.00  0.00    -0.110 A 
ATOM     27  C   LIG    1       -1.469  -1.933  -0.570  0.00  0.00    +0.070 A 
ATOM     28 BR   LIG    1       -0.666  -4.626  -0.120  0.00  0.00    -0.050 Br
ATOM     29  C   LIG    1       -1.324  -0.560  -0.542  0.00  0.00    +0.020 A 
ENDBRANCH  21  23
ENDBRANCH  18  20
ENDBRANCH  17  18
ENDBRANCH   1  17
TORSDOF 7
