REMARK  Name = ZINCrH000004nZrO.0
REMARK                            x       y       z     vdW  Elec       q    Type
REMARK                         _______ _______ _______ _____ _____    ______ ____
ROOT
ATOM      1  C   LIG    1       -1.852   3.103   2.326  0.00  0.00    +0.560 C 
ATOM      2  N   LIG    1       -2.163   2.268   1.315  0.00  0.00    -0.610 N 
ATOM      3  C   LIG    1       -3.202   1.252   1.496  0.00  0.00    +0.290 C 
ATOM      4  O   LIG    1       -0.935   3.892   2.203  0.00  0.00    -0.510 OA
ENDROOT
BRANCH   1   9
ATOM      5  C   LIG    1       -3.725   1.800   5.315  0.00  0.00    +0.110 A 
ATOM      6  C   LIG    1       -4.077   2.985   5.947  0.00  0.00    +0.050 A 
ATOM      7  C   LIG    1       -3.707   4.201   5.403  0.00  0.00    +0.050 A 
ATOM      8  C   LIG    1       -2.980   4.245   4.231  0.00  0.00    +0.090 A 
ATOM      9  C   LIG    1       -2.626   3.059   3.585  0.00  0.00    -0.110 A 
ATOM     10  C   LIG    1       -3.000   1.833   4.134  0.00  0.00    +0.050 A 
BRANCH   5  15
ATOM     11  C   LIG    1       -3.923   0.173   7.163  0.00  0.00    +0.200 A 
ATOM     12  N   LIG    1       -4.408  -1.040   7.295  0.00  0.00    -0.480 NA
ATOM     13  C   LIG    1       -4.905  -1.452   6.117  0.00  0.00    +0.170 A 
ATOM     14  C   LIG    1       -4.733  -0.468   5.217  0.00  0.00    +0.140 A 
ATOM     15  N   LIG    1       -4.103   0.569   5.871  0.00  0.00    -0.400 N 
BRANCH  11  17
ATOM     16  C   LIG    1       -3.293  -0.039   9.818  0.00  0.00    +0.150 C 
ATOM     17  S   LIG    1       -3.167   1.126   8.438  0.00  0.00    -0.020 S 
ENDBRANCH  11  17
ENDBRANCH   5  15
ENDBRANCH   1   9
BRANCH   2  18
ATOM     18  C   LIG    1       -1.461   2.377   0.033  0.00  0.00    +0.380 C 
BRANCH  18  19
ATOM     19  C   LIG    1       -0.305   1.411   0.010  0.00  0.00    -0.030 A 
ATOM     20  C   LIG    1        0.003   0.674   1.138  0.00  0.00    +0.030 A 
ATOM     21  C   LIG    1        1.068  -0.207   1.119  0.00  0.00    +0.080 A 
ATOM     22  C   LIG    1        1.824  -0.354  -0.029  0.00  0.00    +0.030 A 
ATOM     23  C   LIG    1        1.515   0.382  -1.158  0.00  0.00    +0.110 A 
ATOM     24  C   LIG    1        0.451   1.265  -1.139  0.00  0.00    -0.040 A 
BRANCH  24  25
ATOM     25  N   LIG    1        0.121   2.053  -2.347  0.00  0.00    +0.030 N 
ATOM     26  O   LIG    1       -0.750   2.903  -2.301  0.00  0.00    -0.160 OA
ATOM     27  O   LIG    1        0.721   1.852  -3.388  0.00  0.00    -0.160 OA
ENDBRANCH  24  25
ENDBRANCH  18  19
ENDBRANCH   2  18
TORSDOF 6
