REMARK  Name = ZINCrD000000AfvT.0
REMARK                            x       y       z     vdW  Elec       q    Type
REMARK                         _______ _______ _______ _____ _____    ______ ____
ROOT
ATOM      1  O   LIG    1       -1.468   2.090   3.808  0.00  0.00    -0.530 OA
ATOM      2  C   LIG    1       -0.473   1.407   3.684  0.00  0.00    +0.520 C 
ATOM      3  N   LIG    1       -0.020   1.094   2.454  0.00  0.00    -0.730 N 
ATOM      4  H   LIG    1        0.775   0.547   2.354  0.00  0.00    +0.400 HD
ENDROOT
BRANCH   3   5
ATOM      5  C   LIG    1       -0.729   1.579   1.267  0.00  0.00    +0.270 C 
BRANCH   5   6
ATOM      6  C   LIG    1       -0.013   1.086   0.008  0.00  0.00    +0.090 C 
BRANCH   6   7
ATOM      7  C   LIG    1       -0.742   1.585  -1.213  0.00  0.00    -0.060 A 
ATOM      8  C   LIG    1       -1.667   0.798  -1.825  0.00  0.00    +0.040 A 
ATOM      9  C   LIG    1       -2.353   1.240  -2.955  0.00  0.00    +0.020 A 
ATOM     10  C   LIG    1       -2.116   2.474  -3.478  0.00  0.00    +0.030 A 
ATOM     11  C   LIG    1       -1.167   3.314  -2.872  0.00  0.00    -0.100 A 
ATOM     12  C   LIG    1       -0.892   4.597  -3.381  0.00  0.00    +0.080 A 
ATOM     13  C   LIG    1        0.032   5.364  -2.730  0.00  0.00    -0.040 A 
ATOM     14  C   LIG    1        0.683   4.863  -1.605  0.00  0.00    +0.290 A 
ATOM     15  N   LIG    1        0.428   3.666  -1.137  0.00  0.00    -0.470 NA
ATOM     16  C   LIG    1       -0.472   2.868  -1.720  0.00  0.00    +0.130 A 
ENDBRANCH   6   7
ENDBRANCH   5   6
ENDBRANCH   3   5
BRANCH   2  17
ATOM     17  C   LIG    1        0.256   0.907   4.905  0.00  0.00    +0.050 C 
BRANCH  17  18
ATOM     18  C   LIG    1       -0.461   1.401   6.164  0.00  0.00    +0.290 C 
BRANCH  18  19
ATOM     19  N   LIG    1        0.248   0.915   7.350  0.00  0.00    -0.730 N 
ATOM     20  H   LIG    1        1.043   0.369   7.251  0.00  0.00    +0.400 HD
ATOM     21  C   LIG    1       -0.205   1.228   8.581  0.00  0.00    +0.560 C 
ATOM     22  O   LIG    1       -1.202   1.913   8.705  0.00  0.00    -0.530 OA
BRANCH  21  23
ATOM     23  C   LIG    1        0.509   0.739   9.778  0.00  0.00    -0.130 A 
ATOM     24  C   LIG    1        1.651  -0.053   9.638  0.00  0.00    +0.070 A 
ATOM     25  C   LIG    1        2.316  -0.503  10.759  0.00  0.00    +0.020 A 
ATOM     26  C   LIG    1        1.848  -0.180  12.022  0.00  0.00    -0.010 A 
ATOM     27  C   LIG    1        0.713   0.601  12.167  0.00  0.00    +0.020 A 
ATOM     28 CL   LIG    1        2.687  -0.756  13.428  0.00  0.00    -0.060 Cl
ATOM     29  C   LIG    1        0.043   1.061  11.053  0.00  0.00    +0.100 A 
ENDBRANCH  21  23
ENDBRANCH  18  19
ENDBRANCH  17  18
ENDBRANCH   2  17
TORSDOF 7
