REMARK  Name = ZINCrD000000ANWr.0
REMARK                            x       y       z     vdW  Elec       q    Type
REMARK                         _______ _______ _______ _____ _____    ______ ____
ROOT
ATOM      1  O   LIG    1       -4.591  -0.245  -1.190  0.00  0.00    -0.580 OA
ATOM      2  C   LIG    1       -3.496  -0.718  -1.430  0.00  0.00    +0.710 C 
ATOM      3  N   LIG    1       -2.393  -0.179  -0.873  0.00  0.00    -0.740 N 
ATOM      4  H   LIG    1       -1.520  -0.556  -1.065  0.00  0.00    +0.400 HD
ATOM      5  N   LIG    1       -3.386  -1.780  -2.252  0.00  0.00    -0.740 N 
ATOM      6  H   LIG    1       -2.513  -2.156  -2.443  0.00  0.00    +0.400 HD
ENDROOT
BRANCH   5   7
ATOM      7  C   LIG    1       -4.585  -2.365  -2.857  0.00  0.00    +0.280 C 
ATOM      8  C   LIG    1       -5.141  -3.506  -1.979  0.00  0.00    +0.070 C 
ATOM      9  C   LIG    1       -5.681  -4.530  -2.955  0.00  0.00    -0.090 A 
ATOM     10  C   LIG    1       -6.558  -5.583  -2.757  0.00  0.00    +0.010 A 
ATOM     11  C   LIG    1       -6.913  -6.399  -3.813  0.00  0.00    +0.000 A 
ATOM     12  C   LIG    1       -6.393  -6.164  -5.072  0.00  0.00    +0.000 A 
ATOM     13  C   LIG    1       -5.519  -5.114  -5.271  0.00  0.00    +0.020 A 
ATOM     14  C   LIG    1       -5.161  -4.295  -4.214  0.00  0.00    -0.100 A 
ATOM     15  C   LIG    1       -4.236  -3.097  -4.170  0.00  0.00    +0.080 C 
ENDBRANCH   5   7
BRANCH   3  16
ATOM     16  C   LIG    1       -2.513   0.976   0.021  0.00  0.00    +0.340 C 
BRANCH  16  17
ATOM     17  C   LIG    1       -1.219   1.749   0.017  0.00  0.00    -0.090 A 
ATOM     18  C   LIG    1       -0.013   1.076   0.008  0.00  0.00    +0.030 A 
ATOM     19  C   LIG    1        1.176   1.782   0.000  0.00  0.00    +0.030 A 
ATOM     20  C   LIG    1        1.160   3.169   0.007  0.00  0.00    +0.050 A 
ATOM     21  O   LIG    1        2.338   3.850   0.003  0.00  0.00    -0.310 OA
ATOM     22  C   LIG    1        2.280   5.233  -0.365  0.00  0.00    +0.220 C 
ATOM     23  C   LIG    1        1.114   5.883   0.391  0.00  0.00    +0.220 C 
ATOM     24  O   LIG    1       -0.092   5.207   0.023  0.00  0.00    -0.310 OA
ATOM     25  C   LIG    1       -0.054   3.846   0.020  0.00  0.00    +0.060 A 
ATOM     26  C   LIG    1       -1.242   3.131   0.030  0.00  0.00    +0.040 A 
ENDBRANCH  16  17
BRANCH  16  27
ATOM     27  C   LIG    1       -2.814   0.492   1.440  0.00  0.00    -0.060 C 
ATOM     28  C   LIG    1       -2.732  -1.012   1.707  0.00  0.00    +0.010 C 
ATOM     29  C   LIG    1       -4.094  -0.318   1.654  0.00  0.00    +0.030 C 
ENDBRANCH  16  27
ENDBRANCH   3  16
TORSDOF 4
