REMARK  Name = ZINCkj000005fgRG.1
REMARK                            x       y       z     vdW  Elec       q    Type
REMARK                         _______ _______ _______ _____ _____    ______ ____
ROOT
ATOM      1  C   LIG    1       -3.356   2.720   7.104  0.00  0.00    +0.240 C 
ATOM      2  C   LIG    1       -2.285   2.276   6.354  0.00  0.00    -0.050 C 
ATOM      3  C   LIG    1       -1.978   2.947   5.168  0.00  0.00    +0.460 C 
ATOM      4  N   LIG    1       -2.720   3.989   4.806  0.00  0.00    -0.560 NA
ATOM      5  C   LIG    1       -3.743   4.380   5.551  0.00  0.00    +0.640 C 
ATOM      6  N   LIG    1       -4.056   3.763   6.681  0.00  0.00    -0.560 NA
ATOM      7  H   LIG    1       -4.809   4.078   7.205  0.00  0.00    +0.440 HD
ENDROOT
BRANCH   3   8
ATOM      8  N   LIG    1       -0.912   2.537   4.384  0.00  0.00    -0.440 NA
ATOM      9  C   LIG    1       -0.778   3.395   3.178  0.00  0.00    +0.260 C 
ATOM     10  C   LIG    1        0.034   2.540   2.181  0.00  0.00    -0.020 C 
ATOM     11  C   LIG    1       -0.729   1.579   1.267  0.00  0.00    +0.000 C 
ATOM     12  C   LIG    1       -0.208   1.080   2.616  0.00  0.00    -0.020 C 
ATOM     13  C   LIG    1       -1.159   1.141   3.831  0.00  0.00    +0.280 C 
BRANCH  11  14
ATOM     14  C   LIG    1       -0.013   1.086   0.008  0.00  0.00    +0.210 C 
BRANCH  14  15
ATOM     15  O   LIG    1       -0.704   1.559  -1.150  0.00  0.00    -0.570 OA
ATOM     16  H   LIG    1       -0.304   1.284  -1.986  0.00  0.00    +0.390 HD
ENDBRANCH  14  15
ENDBRANCH  11  14
ENDBRANCH   3   8
BRANCH   1  18
ATOM     17  C   LIG    1       -4.239   3.059   9.397  0.00  0.00    +0.060 C 
ATOM     18  C   LIG    1       -3.724   2.027   8.390  0.00  0.00    +0.060 C 
ATOM     19  C   LIG    1       -4.817   0.992   8.117  0.00  0.00    +0.070 C 
ENDBRANCH   1  18
BRANCH   5  20
ATOM     20  N   LIG    1       -4.499   5.465   5.144  0.00  0.00    -0.560 NA
ATOM     21  C   LIG    1       -4.168   6.162   3.898  0.00  0.00    +0.360 C 
ATOM     22  C   LIG    1       -5.630   5.917   5.958  0.00  0.00    +0.330 C 
ENDBRANCH   5  20
TORSDOF 5
