REMARK  Name = ZINCrH000004nxT4.0
REMARK                            x       y       z     vdW  Elec       q    Type
REMARK                         _______ _______ _______ _____ _____    ______ ____
ROOT
ATOM      1  N   LIG    1        1.736   5.743   0.022  0.00  0.00    -0.300 N 
ATOM      2  N   LIG    1        0.340   5.668   0.074  0.00  0.00    -0.270 NA
ATOM      3  C   LIG    1       -0.017   4.413   0.044  0.00  0.00    +0.270 A 
ATOM      4  C   LIG    1        1.154   3.625  -0.019  0.00  0.00    -0.290 A 
ATOM      5  C   LIG    1        2.229   4.493  -0.035  0.00  0.00    +0.160 A 
ATOM      6  C   LIG    1        3.684   4.110  -0.102  0.00  0.00    +0.170 C 
ENDROOT
BRANCH   1  12
ATOM      7  C   LIG    1        2.227   7.920   0.965  0.00  0.00    +0.150 A 
ATOM      8  C   LIG    1        2.979   9.084   0.967  0.00  0.00    -0.060 A 
ATOM      9  C   LIG    1        3.991   9.254   0.040  0.00  0.00    +0.070 A 
ATOM     10  C   LIG    1        4.256   8.266  -0.890  0.00  0.00    +0.000 A 
ATOM     11  C   LIG    1        3.515   7.099  -0.894  0.00  0.00    +0.060 A 
ATOM     12  C   LIG    1        2.494   6.923   0.028  0.00  0.00    +0.100 A 
BRANCH   7  14
ATOM     13  C   LIG    1        1.016   8.814   2.805  0.00  0.00    +0.240 C 
ATOM     14  O   LIG    1        1.232   7.750   1.875  0.00  0.00    -0.300 OA
ENDBRANCH   7  14
ENDBRANCH   1  12
BRANCH   4  15
ATOM     15  C   LIG    1        1.218   2.153  -0.066  0.00  0.00    +0.600 C 
ATOM     16  N   LIG    1        0.082   1.429  -0.043  0.00  0.00    -0.720 N 
ATOM     17  H   LIG    1       -0.778   1.876  -0.001  0.00  0.00    +0.400 HD
ATOM     18  O   LIG    1        2.295   1.593  -0.124  0.00  0.00    -0.550 OA
BRANCH  16  19
ATOM     19  C   LIG    1        0.144  -0.034  -0.089  0.00  0.00    +0.330 C 
BRANCH  19  20
ATOM     20  C   LIG    1       -1.252  -0.598  -0.052  0.00  0.00    -0.140 A 
ATOM     21  C   LIG    1       -1.940  -0.822  -1.230  0.00  0.00    +0.020 A 
ATOM     22  C   LIG    1       -3.223  -1.340  -1.196  0.00  0.00    -0.010 A 
ATOM     23  C   LIG    1       -3.819  -1.635   0.015  0.00  0.00    +0.080 A 
ATOM     24  C   LIG    1       -3.135  -1.414   1.196  0.00  0.00    -0.070 A 
ATOM     25 CL   LIG    1       -1.194  -0.452  -2.754  0.00  0.00    -0.050 Cl
ATOM     26  C   LIG    1       -1.847  -0.900   1.164  0.00  0.00    +0.160 A 
BRANCH  26  27
ATOM     27  O   LIG    1       -1.171  -0.687   2.324  0.00  0.00    -0.310 OA
ATOM     28  C   LIG    1       -1.846  -1.020   3.539  0.00  0.00    +0.240 C 
ENDBRANCH  26  27
ENDBRANCH  19  20
ENDBRANCH  16  19
ENDBRANCH   4  15
TORSDOF 6
