REMARK  Name = ZINCvU0000000Gl7.0
REMARK                            x       y       z     vdW  Elec       q    Type
REMARK                         _______ _______ _______ _____ _____    ______ ____
ROOT
ATOM      1  C   LIG    1        0.131   5.234   1.430  0.00  0.00    +0.520 C 
ATOM      2  O   LIG    1        0.408   6.028   0.553  0.00  0.00    -0.490 OA
ENDROOT
BRANCH   1   3
ATOM      3  C   LIG    1       -0.510   5.703   2.676  0.00  0.00    -0.070 A 
ATOM      4  C   LIG    1       -0.942   4.810   3.644  0.00  0.00    +0.080 A 
ATOM      5  C   LIG    1       -1.541   5.301   4.818  0.00  0.00    +0.230 A 
ATOM      6  N   LIG    1       -1.720   6.590   5.030  0.00  0.00    -0.440 NA
ATOM      7  C   LIG    1       -1.339   7.517   4.149  0.00  0.00    +0.130 A 
ATOM      8  C   LIG    1       -1.542   8.886   4.403  0.00  0.00    +0.050 A 
ATOM      9  C   LIG    1       -1.142   9.809   3.486  0.00  0.00    +0.040 A 
ATOM     10  C   LIG    1       -0.534   9.422   2.294  0.00  0.00    +0.030 A 
ATOM     11  C   LIG    1       -0.320   8.104   2.015  0.00  0.00    +0.050 A 
ATOM     12  C   LIG    1       -0.718   7.129   2.935  0.00  0.00    -0.060 A 
BRANCH   5  13
ATOM     13  C   LIG    1       -1.992   4.341   5.844  0.00  0.00    +0.000 A 
ATOM     14  C   LIG    1       -2.586   4.656   7.027  0.00  0.00    +0.020 A 
ATOM     15  C   LIG    1       -2.846   3.440   7.686  0.00  0.00    -0.060 A 
ATOM     16  C   LIG    1       -2.396   2.452   6.887  0.00  0.00    +0.200 A 
ATOM     17  O   LIG    1       -1.880   3.000   5.775  0.00  0.00    -0.170 OA
ENDBRANCH   5  13
ENDBRANCH   1   3
BRANCH   1  18
ATOM     18  O   LIG    1        0.408   3.926   1.266  0.00  0.00    -0.340 OA
BRANCH  18  19
ATOM     19  C   LIG    1        1.038   3.537   0.016  0.00  0.00    +0.260 C 
BRANCH  19  20
ATOM     20  C   LIG    1        1.273   2.025   0.013  0.00  0.00    +0.230 C 
BRANCH  20  21
ATOM     21  O   LIG    1        0.015   1.347   0.029  0.00  0.00    -0.310 OA
BRANCH  21  25
ATOM     22  C   LIG    1        0.111  -2.780   0.025  0.00  0.00    +0.100 A 
ATOM     23  C   LIG    1       -1.106  -2.114   0.042  0.00  0.00    +0.030 A 
ATOM     24  C   LIG    1       -1.138  -0.733   0.043  0.00  0.00    +0.030 A 
ATOM     25  C   LIG    1        0.047  -0.012   0.028  0.00  0.00    +0.090 A 
ATOM     26  C   LIG    1        1.264  -0.678   0.006  0.00  0.00    -0.040 A 
ATOM     27  C   LIG    1        1.295  -2.058   0.010  0.00  0.00    -0.040 A 
BRANCH  22  28
ATOM     28  O   LIG    1        0.142  -4.139   0.024  0.00  0.00    -0.320 OA
BRANCH  28  29
ATOM     29  C   LIG    1        1.430  -4.758   0.006  0.00  0.00    +0.180 C 
BRANCH  29  31
ATOM     30  C   LIG    1        2.643  -6.942  -0.012  0.00  0.00    +0.040 C 
ATOM     31  C   LIG    1        1.264  -6.279   0.007  0.00  0.00    +0.020 C 
ENDBRANCH  29  31
ENDBRANCH  28  29
ENDBRANCH  22  28
ENDBRANCH  21  25
ENDBRANCH  20  21
ENDBRANCH  19  20
ENDBRANCH  18  19
ENDBRANCH   1  18
TORSDOF 10
