REMARK  Name = ZINCrD000000BzlS.0
REMARK                            x       y       z     vdW  Elec       q    Type
REMARK                         _______ _______ _______ _____ _____    ______ ____
ROOT
ATOM      1  C   LIG    1       -0.644  -4.901  -0.018  0.00  0.00    -0.120 A 
ATOM      2  C   LIG    1       -0.734  -4.214   1.194  0.00  0.00    +0.090 A 
ATOM      3  C   LIG    1       -0.934  -2.849   1.196  0.00  0.00    +0.040 A 
ATOM      4  C   LIG    1       -1.044  -2.161   0.000  0.00  0.00    -0.070 A 
ATOM      5  C   LIG    1       -0.962  -2.837  -1.204  0.00  0.00    +0.040 A 
ATOM      6  C   LIG    1       -0.757  -4.201  -1.220  0.00  0.00    +0.040 A 
ENDROOT
BRANCH   1   9
ATOM      7  N   LIG    1       -0.345  -7.025  -1.200  0.00  0.00    -0.520 N 
ATOM      8  H   LIG    1       -0.423  -6.540  -2.036  0.00  0.00    +0.430 HD
ATOM      9  C   LIG    1       -0.431  -6.364  -0.028  0.00  0.00    +0.560 C 
ATOM     10  O   LIG    1       -0.334  -6.971   1.020  0.00  0.00    -0.530 OA
BRANCH   7  13
ATOM     11  O   LIG    1       -0.154  -8.465  -3.429  0.00  0.00    -0.520 OA
ATOM     12  C   LIG    1       -0.057  -9.072  -2.381  0.00  0.00    +0.560 C 
ATOM     13  N   LIG    1       -0.143  -8.411  -1.209  0.00  0.00    -0.510 N 
ATOM     14  H   LIG    1       -0.066  -8.896  -0.372  0.00  0.00    +0.430 HD
BRANCH  12  15
ATOM     15  C   LIG    1        0.156 -10.538  -2.391  0.00  0.00    -0.080 A 
ATOM     16  C   LIG    1        0.277 -11.254  -1.196  0.00  0.00    +0.000 A 
ATOM     17  C   LIG    1        0.470 -12.621  -1.252  0.00  0.00    +0.270 A 
ATOM     18  N   LIG    1        0.551 -13.247  -2.409  0.00  0.00    -0.460 NA
ATOM     19  C   LIG    1        0.448 -12.609  -3.558  0.00  0.00    +0.270 A 
ATOM     20  C   LIG    1        0.249 -11.242  -3.595  0.00  0.00    +0.040 A 
ENDBRANCH  12  15
ENDBRANCH   7  13
ENDBRANCH   1   9
BRANCH   4  21
ATOM     21  C   LIG    1       -1.262  -0.670   0.011  0.00  0.00    +0.260 C 
BRANCH  21  22
ATOM     22  O   LIG    1        0.002  -0.004   0.002  0.00  0.00    -0.300 OA
BRANCH  22  23
ATOM     23  C   LIG    1       -0.016   1.355   0.009  0.00  0.00    +0.130 A 
ATOM     24  C   LIG    1       -1.226   2.033   0.019  0.00  0.00    -0.060 A 
ATOM     25  C   LIG    1       -1.243   3.414   0.031  0.00  0.00    +0.070 A 
ATOM     26  C   LIG    1       -0.054   4.122   0.024  0.00  0.00    -0.070 A 
ATOM     27  C   LIG    1        1.154   3.447   0.009  0.00  0.00    +0.070 A 
ATOM     28 CL   LIG    1       -0.077   5.857   0.033  0.00  0.00    -0.070 Cl
ATOM     29  C   LIG    1        1.175   2.066   0.002  0.00  0.00    +0.000 A 
ENDBRANCH  22  23
ENDBRANCH  21  22
ENDBRANCH   4  21
TORSDOF 6
