REMARK  Name = ZINCvU0000000Bpk.0
REMARK                            x       y       z     vdW  Elec       q    Type
REMARK                         _______ _______ _______ _____ _____    ______ ____
ROOT
ATOM      1  N   LIG    1       -1.887  -4.265  -0.299  0.00  0.00    -0.510 N 
ATOM      2  C   LIG    1       -2.401  -3.017  -0.240  0.00  0.00    +0.530 C 
ATOM      3  C   LIG    1       -1.236  -2.118  -0.115  0.00  0.00    -0.030 C 
ATOM      4  N   LIG    1       -0.136  -2.928  -0.117  0.00  0.00    -0.510 NA
ATOM      5  C   LIG    1       -1.255  -0.756  -0.023  0.00  0.00    +0.200 C 
ATOM      6  O   LIG    1       -3.575  -2.700  -0.281  0.00  0.00    -0.460 OA
ATOM      7  C   LIG    1       -0.519  -4.174  -0.218  0.00  0.00    +0.310 C 
ENDROOT
BRANCH   5   8
ATOM      8  C   LIG    1        0.005  -0.004  -0.017  0.00  0.00    -0.070 A 
ATOM      9  C   LIG    1        1.229  -0.682   0.029  0.00  0.00    +0.100 A 
ATOM     10  C   LIG    1        2.409   0.031   0.035  0.00  0.00    +0.030 A 
ATOM     11  C   LIG    1        2.386   1.415  -0.005  0.00  0.00    -0.010 A 
ATOM     12  C   LIG    1        1.177   2.095  -0.051  0.00  0.00    -0.040 A 
ATOM     13 CL   LIG    1        1.161   3.830  -0.102  0.00  0.00    -0.040 Cl
ATOM     14 CL   LIG    1        3.877   2.304   0.003  0.00  0.00    -0.040 Cl
ATOM     15  C   LIG    1       -0.011   1.396  -0.057  0.00  0.00    +0.080 A 
ENDBRANCH   5   8
BRANCH   1  20
ATOM     16  C   LIG    1       -4.875  -9.066  -0.790  0.00  0.00    +0.100 C 
ATOM     17  C   LIG    1       -4.082  -7.791  -0.659  0.00  0.00    -0.070 A 
ATOM     18  C   LIG    1       -4.335  -6.925   0.389  0.00  0.00    +0.020 A 
ATOM     19  C   LIG    1       -3.609  -5.756   0.511  0.00  0.00    +0.040 A 
ATOM     20  C   LIG    1       -2.625  -5.451  -0.420  0.00  0.00    +0.110 A 
ATOM     21  C   LIG    1       -2.378  -6.319  -1.474  0.00  0.00    +0.030 A 
ATOM     22  C   LIG    1       -3.102  -7.490  -1.588  0.00  0.00    +0.040 A 
ENDBRANCH   1  20
BRANCH   7  23
ATOM     23  S   LIG    1        0.576  -5.554  -0.254  0.00  0.00    +0.120 S 
BRANCH  23  24
ATOM     24  C   LIG    1        2.165  -4.699  -0.109  0.00  0.00    +0.100 C 
BRANCH  24  25
ATOM     25  C   LIG    1        3.283  -5.710  -0.118  0.00  0.00    +0.550 C 
ATOM     26  N   LIG    1        4.563  -5.300  -0.021  0.00  0.00    -0.610 N 
ATOM     27  C   LIG    1        5.009  -3.904   0.093  0.00  0.00    +0.230 C 
ATOM     28  C   LIG    1        6.551  -3.919   0.153  0.00  0.00    +0.040 C 
ATOM     29  C   LIG    1        6.909  -5.276  -0.507  0.00  0.00    +0.030 C 
ATOM     30  C   LIG    1        5.748  -6.177  -0.017  0.00  0.00    +0.250 C 
ATOM     31  O   LIG    1        3.030  -6.892  -0.214  0.00  0.00    -0.520 OA
ENDBRANCH  24  25
ENDBRANCH  23  24
ENDBRANCH   7  23
TORSDOF 5
