REMARK  Name = ZINCpe000000TL5j.0
REMARK                            x       y       z     vdW  Elec       q    Type
REMARK                         _______ _______ _______ _____ _____    ______ ____
ROOT
ATOM      1  N   LIG    1       -2.144  -0.446   0.129  0.00  0.00    -0.590 N 
ATOM      2  C   LIG    1       -1.395  -0.621  -0.978  0.00  0.00    +0.590 C 
ATOM      3  O   LIG    1       -1.868  -1.178  -1.950  0.00  0.00    -0.490 OA
ATOM      4  C   LIG    1       -1.611   0.315   1.262  0.00  0.00    +0.300 C 
ENDROOT
BRANCH   2   5
ATOM      5  C   LIG    1       -0.004  -0.137  -1.010  0.00  0.00    -0.090 A 
ATOM      6  C   LIG    1        0.280   1.204  -1.242  0.00  0.00    +0.160 A 
ATOM      7  C   LIG    1        1.612   1.626  -1.265  0.00  0.00    +0.040 A 
ATOM      8  C   LIG    1        2.625   0.752  -1.065  0.00  0.00    +0.320 A 
ATOM      9  N   LIG    1        2.392  -0.565  -0.834  0.00  0.00    -0.300 N 
ATOM     10  N   LIG    1        3.217  -1.674  -0.598  0.00  0.00    -0.100 NA
ATOM     11  N   LIG    1        2.441  -2.694  -0.444  0.00  0.00    -0.000 NA
ATOM     12  N   LIG    1        1.207  -2.348  -0.552  0.00  0.00    -0.310 NA
ATOM     13  C   LIG    1        1.115  -1.054  -0.797  0.00  0.00    +0.260 A 
ENDBRANCH   2   5
BRANCH   1  14
ATOM     14  C   LIG    1       -3.492  -1.016   0.200  0.00  0.00    +0.340 C 
BRANCH  14  15
ATOM     15  C   LIG    1       -4.059  -0.796   1.578  0.00  0.00    -0.160 A 
ATOM     16  C   LIG    1       -4.476  -1.872   2.346  0.00  0.00    +0.100 A 
ATOM     17  C   LIG    1       -4.986  -1.622   3.611  0.00  0.00    -0.030 A 
ATOM     18  C   LIG    1       -5.073  -0.317   4.056  0.00  0.00    +0.270 A 
ATOM     19  N   LIG    1       -4.672   0.683   3.296  0.00  0.00    -0.480 NA
ATOM     20  C   LIG    1       -4.176   0.483   2.091  0.00  0.00    +0.280 A 
ENDBRANCH  14  15
BRANCH  14  21
ATOM     21  C   LIG    1       -4.375  -0.345  -0.820  0.00  0.00    +0.460 C 
ATOM     22  O   LIG    1       -3.925   0.521  -1.533  0.00  0.00    -0.490 OA
BRANCH  21  23
ATOM     23  O   LIG    1       -5.662  -0.710  -0.937  0.00  0.00    -0.350 OA
BRANCH  23  25
ATOM     24  C   LIG    1       -7.883  -0.567  -1.926  0.00  0.00    +0.070 C 
ATOM     25  C   LIG    1       -6.453  -0.021  -1.941  0.00  0.00    +0.200 C 
ENDBRANCH  23  25
ENDBRANCH  21  23
ENDBRANCH  14  21
ENDBRANCH   1  14
TORSDOF 6
