REMARK  Name = ZINCtV00000L6jwv.0
REMARK                            x       y       z     vdW  Elec       q    Type
REMARK                         _______ _______ _______ _____ _____    ______ ____
ROOT
ATOM      1  C   LIG    1       -2.967   0.695   1.422  0.00  0.00    -0.190 A 
ATOM      2  C   LIG    1       -2.591  -0.474   2.062  0.00  0.00    +0.260 A 
ATOM      3  N   LIG    1       -3.009  -0.697   3.300  0.00  0.00    -0.530 NA
ATOM      4  C   LIG    1       -3.784   0.179   3.924  0.00  0.00    +0.350 A 
ATOM      5  N   LIG    1       -4.168   1.306   3.342  0.00  0.00    -0.540 NA
ATOM      6 CL   LIG    1       -1.582  -1.632   1.254  0.00  0.00    +0.010 Cl
ATOM      7  C   LIG    1       -3.783   1.595   2.105  0.00  0.00    +0.390 A 
ENDROOT
BRANCH   4   8
ATOM      8  S   LIG    1       -4.318  -0.165   5.567  0.00  0.00    +0.030 S 
ATOM      9  C   LIG    1       -3.520  -1.769   5.828  0.00  0.00    +0.140 C 
ENDBRANCH   4   8
BRANCH   1  10
ATOM     10  C   LIG    1       -2.508   0.985   0.016  0.00  0.00    +0.170 C 
BRANCH  10  14
ATOM     11  C   LIG    1        1.191   3.121   0.129  0.00  0.00    +0.130 A 
ATOM     12  C   LIG    1        1.191   1.734   0.092  0.00  0.00    -0.020 A 
ATOM     13  C   LIG    1       -0.006   1.046   0.059  0.00  0.00    +0.060 A 
ATOM     14  C   LIG    1       -1.203   1.738   0.058  0.00  0.00    -0.120 A 
ATOM     15  C   LIG    1       -1.206   3.120   0.101  0.00  0.00    +0.060 A 
ATOM     16  C   LIG    1       -0.011   3.813   0.134  0.00  0.00    -0.080 A 
BRANCH  11  18
ATOM     17  C   LIG    1        2.292   5.227   0.199  0.00  0.00    +0.250 C 
ATOM     18  O   LIG    1        2.368   3.800   0.161  0.00  0.00    -0.320 OA
ENDBRANCH  11  18
ENDBRANCH  10  14
ENDBRANCH   1  10
BRANCH   7  19
ATOM     19  O   LIG    1       -4.178   2.749   1.514  0.00  0.00    -0.230 OA
BRANCH  19  20
ATOM     20  C   LIG    1       -5.053   3.542   2.186  0.00  0.00    +0.120 A 
ATOM     21  C   LIG    1       -6.391   3.568   1.817  0.00  0.00    +0.030 A 
ATOM     22  C   LIG    1       -7.279   4.372   2.505  0.00  0.00    +0.090 A 
ATOM     23  C   LIG    1       -6.835   5.157   3.552  0.00  0.00    -0.180 A 
ATOM     24  C   LIG    1       -5.502   5.137   3.918  0.00  0.00    +0.100 A 
ATOM     25  C   LIG    1       -4.610   4.332   3.237  0.00  0.00    +0.030 A 
BRANCH  23  26
ATOM     26  C   LIG    1       -7.806   6.037   4.297  0.00  0.00    +0.510 C 
ATOM     27  F   LIG    1       -7.383   6.182   5.622  0.00  0.00    -0.170 F 
ATOM     28  F   LIG    1       -9.077   5.452   4.274  0.00  0.00    -0.170 F 
ATOM     29  F   LIG    1       -7.861   7.294   3.685  0.00  0.00    -0.170 F 
ENDBRANCH  23  26
ENDBRANCH  19  20
ENDBRANCH   7  19
TORSDOF 7
