REMARK  Name = ZINCpe00000FUk5V.0
REMARK                            x       y       z     vdW  Elec       q    Type
REMARK                         _______ _______ _______ _____ _____    ______ ____
ROOT
ATOM      1  C   LIG    1       -2.000   2.477   3.501  0.00  0.00    +0.300 C 
ATOM      2  C   LIG    1       -0.911   2.095   4.526  0.00  0.00    +0.050 C 
ATOM      3  C   LIG    1       -1.689   2.073   5.868  0.00  0.00    +0.040 C 
ATOM      4  C   LIG    1       -2.697   3.231   5.662  0.00  0.00    +0.270 C 
ATOM      5  N   LIG    1       -3.076   3.153   4.239  0.00  0.00    -0.580 N 
ENDROOT
BRANCH   5   6
ATOM      6  C   LIG    1       -4.260   3.640   3.686  0.00  0.00    +0.340 A 
ATOM      7  N   LIG    1       -4.495   3.516   2.405  0.00  0.00    -0.270 NA
ATOM      8  N   LIG    1       -5.688   4.010   1.865  0.00  0.00    -0.430 N 
ATOM      9  C   LIG    1       -6.603   4.614   2.644  0.00  0.00    +0.670 A 
ATOM     10  N   LIG    1       -6.401   4.761   3.967  0.00  0.00    -0.550 N 
ATOM     11  C   LIG    1       -7.414   5.423   4.793  0.00  0.00    +0.350 C 
ATOM     12  O   LIG    1       -7.630   5.033   2.146  0.00  0.00    -0.540 OA
ATOM     13  C   LIG    1       -5.944   3.868   0.430  0.00  0.00    +0.390 C 
ATOM     14  C   LIG    1       -5.269   4.296   4.534  0.00  0.00    +0.530 A 
ATOM     15  O   LIG    1       -5.081   4.421   5.730  0.00  0.00    -0.480 OA
ENDBRANCH   5   6
BRANCH   1  20
ATOM     16  C   LIG    1       -1.003   5.633   1.677  0.00  0.00    +0.090 A 
ATOM     17  C   LIG    1       -0.366   5.117   0.558  0.00  0.00    -0.040 A 
ATOM     18  C   LIG    1       -0.253   3.750   0.396  0.00  0.00    -0.040 A 
ATOM     19  C   LIG    1       -0.787   2.893   1.346  0.00  0.00    +0.110 A 
ATOM     20  C   LIG    1       -1.425   3.408   2.465  0.00  0.00    -0.080 A 
ATOM     21  C   LIG    1       -1.532   4.775   2.630  0.00  0.00    +0.030 A 
BRANCH  16  23
ATOM     22  C   LIG    1       -0.542   7.802   0.819  0.00  0.00    +0.230 C 
ATOM     23  O   LIG    1       -1.109   6.979   1.839  0.00  0.00    -0.320 OA
ENDBRANCH  16  23
BRANCH  19  24
ATOM     24  O   LIG    1       -0.682   1.547   1.184  0.00  0.00    -0.310 OA
ATOM     25  C   LIG    1       -0.013   1.086   0.008  0.00  0.00    +0.230 C 
ENDBRANCH  19  24
ENDBRANCH   1  20
TORSDOF 4
