REMARK  Name = ZINCpk000000oNkh.0
REMARK                            x       y       z     vdW  Elec       q    Type
REMARK                         _______ _______ _______ _____ _____    ______ ____
ROOT
ATOM      1  N   LIG    1       -2.592   4.122   0.039  0.00  0.00    -0.520 NA
ATOM      2  C   LIG    1       -3.282   3.753  -1.205  0.00  0.00    +0.190 C 
ATOM      3  C   LIG    1       -4.747   4.185  -1.119  0.00  0.00    +0.190 C 
ATOM      4  N   LIG    1       -4.816   5.635  -0.893  0.00  0.00    -0.540 NA
ATOM      5  C   LIG    1       -4.126   6.004   0.351  0.00  0.00    +0.190 C 
ATOM      6  C   LIG    1       -2.660   5.572   0.266  0.00  0.00    +0.180 C 
ENDROOT
BRANCH   1   7
ATOM      7  C   LIG    1       -1.199   3.655   0.027  0.00  0.00    +0.210 C 
BRANCH   7  10
ATOM      8  N   LIG    1        0.005   1.495   0.032  0.00  0.00    -0.740 N 
ATOM      9  H   LIG    1        0.837   1.994   0.014  0.00  0.00    +0.400 HD
ATOM     10  C   LIG    1       -1.173   2.149   0.040  0.00  0.00    +0.510 C 
ATOM     11  O   LIG    1       -2.213   1.525   0.058  0.00  0.00    -0.520 OA
BRANCH   8  13
ATOM     12  C   LIG    1        1.481  -0.456   0.025  0.00  0.00    +0.030 C 
ATOM     13  C   LIG    1        0.030   0.030   0.045  0.00  0.00    +0.250 C 
ENDBRANCH   8  13
ENDBRANCH   7  10
ENDBRANCH   1   7
BRANCH   4  14
ATOM     14  C   LIG    1       -6.209   6.101  -0.881  0.00  0.00    +0.310 C 
BRANCH  14  15
ATOM     15  C   LIG    1       -6.910   5.621  -2.125  0.00  0.00    +0.290 A 
ATOM     16  N   LIG    1       -7.626   4.538  -2.206  0.00  0.00    -0.480 NA
ATOM     17  C   LIG    1       -8.115   4.407  -3.467  0.00  0.00    +0.010 A 
ATOM     18  C   LIG    1       -8.926   3.454  -4.092  0.00  0.00    +0.160 A 
ATOM     19  C   LIG    1       -9.250   3.600  -5.424  0.00  0.00    -0.030 A 
ATOM     20  C   LIG    1       -8.778   4.686  -6.148  0.00  0.00    +0.070 A 
ATOM     21  C   LIG    1       -7.979   5.634  -5.546  0.00  0.00    +0.010 A 
ATOM     22  F   LIG    1       -9.390   2.395  -3.393  0.00  0.00    -0.130 F 
ATOM     23  C   LIG    1       -7.641   5.503  -4.206  0.00  0.00    +0.080 A 
ATOM     24  N   LIG    1       -6.882   6.254  -3.330  0.00  0.00    -0.480 N 
BRANCH  24  25
ATOM     25  C   LIG    1       -6.176   7.500  -3.640  0.00  0.00    +0.300 C 
ATOM     26  C   LIG    1       -4.804   7.174  -4.234  0.00  0.00    +0.050 C 
ENDBRANCH  24  25
ENDBRANCH  14  15
ENDBRANCH   4  14
TORSDOF 6
