REMARK  Name = ZINCvU0000000Caa.0
REMARK                            x       y       z     vdW  Elec       q    Type
REMARK                         _______ _______ _______ _____ _____    ______ ____
ROOT
ATOM      1  N   LIG    1        5.028  -4.379  -0.066  0.00  0.00    -0.350 N 
ATOM      2  N   LIG    1        4.207  -3.398  -0.054  0.00  0.00    -0.180 NA
ATOM      3  C   LIG    1        2.902  -3.527  -0.043  0.00  0.00    +0.050 A 
ATOM      4  C   LIG    1        2.315  -4.877  -0.038  0.00  0.00    -0.030 A 
ATOM      5  C   LIG    1        0.943  -5.101  -0.021  0.00  0.00    +0.070 A 
ATOM      6  C   LIG    1        0.468  -6.396  -0.018  0.00  0.00    +0.060 A 
ATOM      7  C   LIG    1        1.343  -7.474  -0.030  0.00  0.00    +0.030 A 
ATOM      8  C   LIG    1        2.708  -7.274  -0.058  0.00  0.00    +0.090 A 
ATOM      9  C   LIG    1        3.206  -5.975  -0.057  0.00  0.00    -0.140 A 
ATOM     10  C   LIG    1        4.644  -5.672  -0.069  0.00  0.00    +0.520 A 
ATOM     11  O   LIG    1        5.469  -6.567  -0.081  0.00  0.00    -0.490 OA
ENDROOT
BRANCH   3  12
ATOM     12  C   LIG    1        2.034  -2.335  -0.029  0.00  0.00    +0.600 C 
ATOM     13  N   LIG    1        2.580  -1.103  -0.028  0.00  0.00    -0.600 N 
ATOM     14  H   LIG    1        3.545  -1.000  -0.036  0.00  0.00    +0.430 HD
ATOM     15  O   LIG    1        0.824  -2.463  -0.018  0.00  0.00    -0.490 OA
BRANCH  13  16
ATOM     16  C   LIG    1        1.763   0.019  -0.015  0.00  0.00    +0.270 A 
ATOM     17  N   LIG    1        2.177   1.248  -0.012  0.00  0.00    -0.490 NA
ATOM     18  C   LIG    1        1.250   2.196   0.002  0.00  0.00    +0.130 A 
ATOM     19  C   LIG    1       -0.022   1.758   0.012  0.00  0.00    -0.100 A 
ATOM     20  S   LIG    1        0.002  -0.004   0.002  0.00  0.00    +0.220 S 
BRANCH  18  21
ATOM     21  C   LIG    1        1.592   3.639   0.006  0.00  0.00    -0.020 A 
ATOM     22  C   LIG    1        0.579   4.597   0.015  0.00  0.00    +0.050 A 
ATOM     23  C   LIG    1        0.902   5.939   0.024  0.00  0.00    +0.030 A 
ATOM     24  C   LIG    1        2.229   6.334   0.013  0.00  0.00    -0.030 A 
ATOM     25  C   LIG    1        3.238   5.386  -0.001  0.00  0.00    +0.030 A 
ATOM     26 CL   LIG    1        2.629   8.023   0.018  0.00  0.00    -0.070 Cl
ATOM     27  C   LIG    1        2.926   4.042  -0.005  0.00  0.00    +0.070 A 
ENDBRANCH  18  21
ENDBRANCH  13  16
ENDBRANCH   3  12
BRANCH   1  28
ATOM     28  C   LIG    1        6.463  -4.082  -0.079  0.00  0.00    +0.330 C 
BRANCH  28  29
ATOM     29  C   LIG    1        6.948  -3.972  -1.525  0.00  0.00    +0.000 C 
BRANCH  29  30
ATOM     30  C   LIG    1        8.447  -3.662  -1.538  0.00  0.00    +0.020 C 
BRANCH  30  32
ATOM     31  C   LIG    1       10.431  -3.242  -2.998  0.00  0.00    +0.010 C 
ATOM     32  C   LIG    1        8.932  -3.552  -2.985  0.00  0.00    +0.000 C 
ENDBRANCH  30  32
ENDBRANCH  29  30
ENDBRANCH  28  29
ENDBRANCH   1  28
TORSDOF 7
