REMARK  Name = ZINCkj000005mh2O.1
REMARK                            x       y       z     vdW  Elec       q    Type
REMARK                         _______ _______ _______ _____ _____    ______ ____
ROOT
ATOM      1  O   LIG    1        2.011   3.038  -0.803  0.00  0.00    -0.920 OA
ATOM      2  S   LIG    1        1.799   2.012   0.155  0.00  0.00    +2.610 S 
ATOM      3  C   LIG    1        0.070   1.463   0.127  0.00  0.00    -0.370 C 
ATOM      4  C   LIG    1        0.020  -0.062   0.029  0.00  0.00    +0.300 C 
ATOM      5  N   LIG    1       -1.329  -0.506  -0.329  0.00  0.00    -0.380 N 
ATOM      6  C   LIG    1       -1.310  -1.911  -0.755  0.00  0.00    +0.250 C 
ATOM      7  C   LIG    1       -0.409  -2.748   0.150  0.00  0.00    +0.050 C 
ATOM      8  C   LIG    1        0.953  -2.958  -0.517  0.00  0.00    +0.030 C 
ATOM      9  C   LIG    1        2.064  -2.618   0.478  0.00  0.00    +0.020 C 
ATOM     10  C   LIG    1        3.081  -1.684  -0.180  0.00  0.00    +0.030 C 
ATOM     11  C   LIG    1        3.070  -0.327   0.524  0.00  0.00    +0.280 C 
ATOM     12  H   LIG    1       -1.668   0.062  -1.099  0.00  0.00    +0.430 HD
ATOM     13  O   LIG    1        2.260   2.151   1.492  0.00  0.00    -0.920 OA
ATOM     14  N   LIG    1        2.647   0.705  -0.444  0.00  0.00    -1.120 NA
ATOM     15  H   LIG    1        2.852   0.628  -1.389  0.00  0.00    +0.430 HD
ENDROOT
BRANCH   5  16
ATOM     16  C   LIG    1       -2.238  -0.347   0.811  0.00  0.00    +0.320 C 
BRANCH  16  17
ATOM     17  C   LIG    1       -3.647  -0.664   0.379  0.00  0.00    -0.220 A 
ATOM     18  C   LIG    1       -4.431   0.306  -0.226  0.00  0.00    +0.090 A 
ATOM     19  C   LIG    1       -5.719  -0.033  -0.612  0.00  0.00    -0.010 A 
ATOM     20  C   LIG    1       -6.179  -1.314  -0.372  0.00  0.00    +0.310 A 
ATOM     21  N   LIG    1       -5.406  -2.210   0.211  0.00  0.00    -0.470 NA
ATOM     22  C   LIG    1       -4.175  -1.925   0.587  0.00  0.00    +0.290 A 
ENDBRANCH  16  17
ENDBRANCH   5  16
TORSDOF 2
