REMARK  Name = ZINCkj000005mh2O.2
REMARK                            x       y       z     vdW  Elec       q    Type
REMARK                         _______ _______ _______ _____ _____    ______ ____
ROOT
ATOM      1  O   LIG    1        0.543  -3.646  -2.048  0.00  0.00    -0.920 OA
ATOM      2  S   LIG    1        1.495  -2.721  -2.558  0.00  0.00    +2.610 S 
ATOM      3  C   LIG    1        1.805  -1.399  -1.353  0.00  0.00    -0.380 C 
ATOM      4  C   LIG    1        1.952  -0.067  -2.084  0.00  0.00    +0.290 C 
ATOM      5  N   LIG    1        2.909   0.809  -1.406  0.00  0.00    -0.380 N 
ATOM      6  C   LIG    1        4.258   0.235  -1.436  0.00  0.00    +0.250 C 
ATOM      7  C   LIG    1        4.824   0.307  -2.855  0.00  0.00    +0.030 C 
ATOM      8  C   LIG    1        6.126  -0.496  -2.924  0.00  0.00    +0.040 C 
ATOM      9  C   LIG    1        5.914  -1.739  -3.791  0.00  0.00    +0.030 C 
ATOM     10  C   LIG    1        5.221  -2.826  -2.968  0.00  0.00    +0.010 C 
ATOM     11  C   LIG    1        3.904  -3.218  -3.640  0.00  0.00    +0.290 C 
ATOM     12  H   LIG    1        2.927   1.705  -1.887  0.00  0.00    +0.430 HD
ATOM     13  O   LIG    1        1.366  -2.187  -3.867  0.00  0.00    -0.930 OA
ATOM     14  N   LIG    1        2.924  -3.578  -2.593  0.00  0.00    -1.110 NA
ATOM     15  H   LIG    1        3.105  -4.285  -1.953  0.00  0.00    +0.430 HD
ENDROOT
BRANCH   5  16
ATOM     16  C   LIG    1        2.495   1.040  -0.016  0.00  0.00    +0.320 C 
BRANCH  16  17
ATOM     17  C   LIG    1        1.180   1.775   0.000  0.00  0.00    -0.220 A 
ATOM     18  C   LIG    1        1.150   3.161   0.008  0.00  0.00    +0.100 A 
ATOM     19  C   LIG    1       -0.084   3.795   0.022  0.00  0.00    -0.010 A 
ATOM     20  C   LIG    1       -1.234   3.029   0.029  0.00  0.00    +0.310 A 
ATOM     21  N   LIG    1       -1.167   1.712   0.017  0.00  0.00    -0.470 NA
ATOM     22  C   LIG    1       -0.013   1.076   0.008  0.00  0.00    +0.280 A 
ENDBRANCH  16  17
ENDBRANCH   5  16
TORSDOF 2
