REMARK  Name = ZINCkj00000kKuku.0
REMARK                            x       y       z     vdW  Elec       q    Type
REMARK                         _______ _______ _______ _____ _____    ______ ____
ROOT
ATOM      1  N   LIG    1       -3.924   0.901   4.124  0.00  0.00    -0.380 N 
ATOM      2  C   LIG    1       -4.104  -0.163   3.130  0.00  0.00    +0.260 C 
ATOM      3  C   LIG    1       -5.588  -0.292   2.778  0.00  0.00    +0.060 C 
ATOM      4  C   LIG    1       -6.379  -0.635   4.044  0.00  0.00    +0.030 C 
ATOM      5  C   LIG    1       -6.125   0.444   5.101  0.00  0.00    +0.140 C 
ATOM      6  C   LIG    1       -4.621   0.546   5.366  0.00  0.00    +0.290 C 
ATOM      7  H   LIG    1       -4.302   1.764   3.764  0.00  0.00    +0.420 HD
ENDROOT
BRANCH   5   8
ATOM      8  O   LIG    1       -6.801   0.096   6.310  0.00  0.00    -0.540 OA
ATOM      9  H   LIG    1       -7.760   0.012   6.214  0.00  0.00    +0.410 HD
ENDBRANCH   5   8
BRANCH   1  10
ATOM     10  C   LIG    1       -2.492   1.074   4.401  0.00  0.00    +0.400 C 
BRANCH  10  15
ATOM     11  C   LIG    1       -0.013   1.086   0.008  0.00  0.00    +0.190 C 
ATOM     12  C   LIG    1       -0.718   1.572   1.248  0.00  0.00    +0.050 A 
ATOM     13  C   LIG    1       -0.917   2.858   1.587  0.00  0.00    -0.060 A 
ATOM     14  C   LIG    1       -1.616   2.855   2.815  0.00  0.00    +0.030 A 
ATOM     15  C   LIG    1       -1.796   1.567   3.158  0.00  0.00    -0.120 A 
ATOM     16  O   LIG    1       -1.250   0.794   2.205  0.00  0.00    -0.170 OA
ENDBRANCH  10  15
ENDBRANCH   1  10
BRANCH   5  17
ATOM     17  C   LIG    1       -6.646   1.790   4.592  0.00  0.00    +0.030 C 
BRANCH  17  18
ATOM     18  C   LIG    1       -8.125   1.687   4.326  0.00  0.00    +0.520 C 
ATOM     19  N   LIG    1       -8.804   2.759   3.869  0.00  0.00    -0.610 N 
ATOM     20  C   LIG    1       -8.102   4.023   3.631  0.00  0.00    +0.280 C 
ATOM     21  C   LIG    1      -10.242   2.659   3.609  0.00  0.00    +0.310 C 
ATOM     22  O   LIG    1       -8.706   0.641   4.523  0.00  0.00    -0.530 OA
ENDBRANCH  17  18
ENDBRANCH   5  17
TORSDOF 5
