REMARK  Name = ZINCkj00000kKuku.1
REMARK                            x       y       z     vdW  Elec       q    Type
REMARK                         _______ _______ _______ _____ _____    ______ ____
ROOT
ATOM      1  N   LIG    1       -3.927  -4.771   0.006  0.00  0.00    -0.380 N 
ATOM      2  C   LIG    1       -4.622  -4.348  -1.216  0.00  0.00    +0.240 C 
ATOM      3  C   LIG    1       -4.722  -2.822  -1.249  0.00  0.00    +0.060 C 
ATOM      4  C   LIG    1       -3.312  -2.223  -1.228  0.00  0.00    +0.030 C 
ATOM      5  C   LIG    1       -2.571  -2.730   0.012  0.00  0.00    +0.140 C 
ATOM      6  C   LIG    1       -2.551  -4.260  -0.002  0.00  0.00    +0.290 C 
ATOM      7  H   LIG    1       -4.415  -4.409   0.812  0.00  0.00    +0.430 HD
ENDROOT
BRANCH   5   8
ATOM      8  O   LIG    1       -3.240  -2.272   1.188  0.00  0.00    -0.570 OA
ATOM      9  H   LIG    1       -3.291  -1.309   1.262  0.00  0.00    +0.410 HD
ENDBRANCH   5   8
BRANCH   1  10
ATOM     10  C   LIG    1       -3.901  -6.238   0.070  0.00  0.00    +0.380 C 
BRANCH  10  15
ATOM     11  C   LIG    1       -8.220  -7.815   2.145  0.00  0.00    +0.190 C 
ATOM     12  C   LIG    1       -7.186  -7.445   1.113  0.00  0.00    +0.050 A 
ATOM     13  C   LIG    1       -7.343  -7.523  -0.221  0.00  0.00    -0.060 A 
ATOM     14  C   LIG    1       -6.135  -7.076  -0.802  0.00  0.00    +0.020 A 
ATOM     15  C   LIG    1       -5.308  -6.760   0.211  0.00  0.00    -0.110 A 
ATOM     16  O   LIG    1       -5.952  -6.982   1.368  0.00  0.00    -0.170 OA
ENDBRANCH  10  15
ENDBRANCH   1  10
BRANCH   5  17
ATOM     17  C   LIG    1       -1.135  -2.201   0.001  0.00  0.00    +0.050 C 
BRANCH  17  18
ATOM     18  C   LIG    1       -1.156  -0.694   0.009  0.00  0.00    +0.520 C 
ATOM     19  N   LIG    1        0.002  -0.004   0.002  0.00  0.00    -0.610 N 
ATOM     20  C   LIG    1        1.281  -0.719  -0.014  0.00  0.00    +0.290 C 
ATOM     21  C   LIG    1       -0.018   1.461   0.010  0.00  0.00    +0.300 C 
ATOM     22  O   LIG    1       -2.214  -0.102   0.023  0.00  0.00    -0.540 OA
ENDBRANCH  17  18
ENDBRANCH   5  17
TORSDOF 5
