REMARK  Name = ZINCpe000000SyUI.0
REMARK                            x       y       z     vdW  Elec       q    Type
REMARK                         _______ _______ _______ _____ _____    ______ ____
ROOT
ATOM      1  C   LIG    1       -0.018   1.503   0.010  0.00  0.00    +0.530 C 
ATOM      2  N   LIG    1       -1.097   2.312   0.006  0.00  0.00    -0.610 N 
ATOM      3  C   LIG    1       -2.446   1.742   0.113  0.00  0.00    +0.270 C 
ATOM      4  C   LIG    1       -3.285   2.198  -1.085  0.00  0.00    +0.330 C 
ATOM      5  N   LIG    1       -3.064   3.642  -1.254  0.00  0.00    -0.630 N 
ATOM      6  C   LIG    1       -3.978   4.612  -1.307  0.00  0.00    +0.700 C 
ATOM      7  N   LIG    1       -3.456   5.847  -1.268  0.00  0.00    -0.630 N 
ATOM      8  C   LIG    1       -1.987   5.751  -1.249  0.00  0.00    +0.270 C 
ATOM      9  O   LIG    1       -5.172   4.398  -1.384  0.00  0.00    -0.580 OA
ATOM     10  C   LIG    1       -1.716   4.241  -1.340  0.00  0.00    +0.200 C 
ATOM     11  C   LIG    1       -0.927   3.768  -0.112  0.00  0.00    +0.300 C 
ATOM     12  O   LIG    1        1.097   1.979  -0.004  0.00  0.00    -0.530 OA
ENDROOT
BRANCH   1  19
ATOM     13  C   LIG    1       -1.516  -4.138  -1.906  0.00  0.00    +0.100 C 
ATOM     14  C   LIG    1       -1.486  -2.632  -1.933  0.00  0.00    +0.510 C 
ATOM     15  N   LIG    1       -0.450  -1.968  -1.384  0.00  0.00    -0.610 N 
ATOM     16  C   LIG    1        0.658  -2.700  -0.754  0.00  0.00    +0.260 C 
ATOM     17  C   LIG    1        0.853  -2.168   0.670  0.00  0.00    +0.010 C 
ATOM     18  C   LIG    1        1.048  -0.651   0.622  0.00  0.00    +0.050 C 
ATOM     19  C   LIG    1       -0.199   0.007   0.027  0.00  0.00    -0.020 C 
ATOM     20  C   LIG    1       -0.406  -0.500  -1.403  0.00  0.00    +0.300 C 
ATOM     21  O   LIG    1       -2.394  -2.016  -2.451  0.00  0.00    -0.540 OA
ENDBRANCH   1  19
BRANCH   7  22
ATOM     22  C   LIG    1       -4.225   7.094  -1.247  0.00  0.00    +0.320 C 
BRANCH  22  23
ATOM     23  C   LIG    1       -4.513   7.491   0.203  0.00  0.00    -0.040 C 
ATOM     24  C   LIG    1       -5.422   6.443   0.848  0.00  0.00    +0.020 C 
ATOM     25  C   LIG    1       -5.207   8.854   0.229  0.00  0.00    +0.030 C 
ENDBRANCH  22  23
ENDBRANCH   7  22
TORSDOF 3
