REMARK  Name = ZINCtV00000L2PLG.0
REMARK                            x       y       z     vdW  Elec       q    Type
REMARK                         _______ _______ _______ _____ _____    ______ ____
ROOT
ATOM      1  S   LIG    1       -1.544   4.720   9.598  0.00  0.00    +0.110 S 
ENDROOT
BRANCH   1   2
ATOM      2  C   LIG    1       -1.304   4.055   7.984  0.00  0.00    -0.000 A 
ATOM      3  N   LIG    1       -2.237   3.864   7.104  0.00  0.00    -0.260 NA
ATOM      4  N   LIG    1       -1.823   3.330   5.903  0.00  0.00    -0.330 NA
ATOM      5  C   LIG    1       -0.553   3.088   5.806  0.00  0.00    +0.300 A 
ATOM      6  S   LIG    1        0.239   3.538   7.313  0.00  0.00    +0.100 S 
BRANCH   5   7
ATOM      7  N   LIG    1        0.082   2.552   4.691  0.00  0.00    -0.620 N 
ATOM      8  H   LIG    1        1.025   2.331   4.730  0.00  0.00    +0.430 HD
BRANCH   7   9
ATOM      9  C   LIG    1       -0.640   2.332   3.515  0.00  0.00    +0.150 A 
ATOM     10  C   LIG    1       -0.218   1.366   2.611  0.00  0.00    -0.020 A 
ATOM     11  C   LIG    1       -0.933   1.152   1.449  0.00  0.00    +0.040 A 
ATOM     12  C   LIG    1       -2.071   1.893   1.188  0.00  0.00    -0.100 A 
ATOM     13  C   LIG    1       -2.490   2.860   2.084  0.00  0.00    -0.060 A 
ATOM     14  C   LIG    1       -3.727   3.670   1.793  0.00  0.00    +0.090 C 
ATOM     15  C   LIG    1       -2.852   1.652  -0.078  0.00  0.00    +0.090 C 
ATOM     16  C   LIG    1       -1.780   3.080   3.248  0.00  0.00    +0.010 A 
ENDBRANCH   7   9
ENDBRANCH   5   7
ENDBRANCH   1   2
BRANCH   1  17
ATOM     17  C   LIG    1       -3.331   5.029   9.651  0.00  0.00    +0.100 C 
BRANCH  17  20
ATOM     18  N   LIG    1       -4.985   5.920  11.260  0.00  0.00    -0.660 N 
ATOM     19  H   LIG    1       -5.682   5.697  10.623  0.00  0.00    +0.410 HD
ATOM     20  C   LIG    1       -3.701   5.609  10.991  0.00  0.00    +0.540 C 
ATOM     21  O   LIG    1       -2.844   5.796  11.829  0.00  0.00    -0.500 OA
BRANCH  18  27
ATOM     22  C   LIG    1       -6.588   6.434  12.992  0.00  0.00    -0.100 A 
ATOM     23  C   LIG    1       -6.908   7.073  14.174  0.00  0.00    +0.040 A 
ATOM     24  C   LIG    1       -5.961   7.843  14.824  0.00  0.00    -0.010 A 
ATOM     25  C   LIG    1       -4.691   7.976  14.294  0.00  0.00    +0.030 A 
ATOM     26  C   LIG    1       -4.363   7.335  13.115  0.00  0.00    +0.020 A 
ATOM     27  C   LIG    1       -5.313   6.566  12.457  0.00  0.00    +0.150 A 
BRANCH  22  28
ATOM     28  C   LIG    1       -7.620   5.595  12.285  0.00  0.00    +0.020 C 
ATOM     29  C   LIG    1       -8.165   4.538  13.248  0.00  0.00    +0.030 C 
BRANCH  28  31
ATOM     30  C   LIG    1       -9.751   5.661  10.983  0.00  0.00    +0.010 C 
ATOM     31  C   LIG    1       -8.765   6.490  11.808  0.00  0.00    +0.010 C 
ENDBRANCH  28  31
ENDBRANCH  22  28
ENDBRANCH  18  27
ENDBRANCH  17  20
ENDBRANCH   1  17
TORSDOF 8
