REMARK  Name = ZINCrg00000SjzYN.0
REMARK                            x       y       z     vdW  Elec       q    Type
REMARK                         _______ _______ _______ _____ _____    ______ ____
ROOT
ATOM      1  N   LIG    1        3.534   3.595   0.933  0.00  0.00    -0.430 N 
ATOM      2  C   LIG    1        2.836   3.939  -0.314  0.00  0.00    +0.220 C 
ATOM      3  C   LIG    1        1.384   3.462  -0.231  0.00  0.00    +0.220 C 
ATOM      4  N   LIG    1        1.360   2.011  -0.000  0.00  0.00    -0.530 NA
ATOM      5  C   LIG    1        2.058   1.667   1.247  0.00  0.00    +0.210 C 
ATOM      6  C   LIG    1        3.510   2.144   1.164  0.00  0.00    +0.230 C 
ENDROOT
BRANCH   1   8
ATOM      7  C   LIG    1        5.766   3.936   1.934  0.00  0.00    +0.020 A 
ATOM      8  C   LIG    1        4.826   4.072   0.923  0.00  0.00    +0.240 A 
ATOM      9  O   LIG    1        5.419   4.765  -0.067  0.00  0.00    -0.200 OA
ATOM     10  C   LIG    1        6.682   5.045   0.311  0.00  0.00    +0.280 A 
ATOM     11  N   LIG    1        6.900   4.551   1.506  0.00  0.00    -0.400 NA
BRANCH  10  12
ATOM     12  C   LIG    1        7.663   5.789  -0.491  0.00  0.00    +0.040 A 
ATOM     13  C   LIG    1        8.943   6.081  -0.123  0.00  0.00    +0.050 A 
ATOM     14  C   LIG    1        9.516   6.801  -1.188  0.00  0.00    -0.060 A 
ATOM     15  C   LIG    1        8.572   6.914  -2.144  0.00  0.00    +0.220 A 
ATOM     16  O   LIG    1        7.456   6.297  -1.723  0.00  0.00    -0.160 OA
ENDBRANCH  10  12
BRANCH   7  18
ATOM     17  N   LIG    1        5.429   2.746   4.184  0.00  0.00    -0.390 NA
ATOM     18  C   LIG    1        5.578   3.272   3.189  0.00  0.00    +0.300 C 
ENDBRANCH   7  18
ENDBRANCH   1   8
BRANCH   4  19
ATOM     19  C   LIG    1       -0.018   1.503   0.010  0.00  0.00    +0.250 C 
BRANCH  19  20
ATOM     20  C   LIG    1        0.002  -0.004   0.002  0.00  0.00    +0.530 C 
ATOM     21  N   LIG    1       -1.156  -0.694   0.009  0.00  0.00    -0.580 N 
ATOM     22  C   LIG    1       -1.247  -2.159   0.002  0.00  0.00    +0.280 C 
ATOM     23  C   LIG    1       -2.698  -2.479  -0.421  0.00  0.00    +0.060 C 
ATOM     24  C   LIG    1       -3.445  -1.198   0.018  0.00  0.00    +0.070 C 
ATOM     25  C   LIG    1       -2.375  -0.129   0.030  0.00  0.00    +0.520 C 
ATOM     26  O   LIG    1       -2.587   1.065   0.052  0.00  0.00    -0.490 OA
ATOM     27  O   LIG    1        1.060  -0.596  -0.011  0.00  0.00    -0.480 OA
ENDBRANCH  19  20
ENDBRANCH   4  19
TORSDOF 5
