REMARK  Name = ZINCqH0000033MBM.0
REMARK                            x       y       z     vdW  Elec       q    Type
REMARK                         _______ _______ _______ _____ _____    ______ ____
ROOT
ATOM      1  C   LIG    1        3.656   6.032   0.019  0.00  0.00    +0.260 C 
ENDROOT
BRANCH   1   4
ATOM      2  N   LIG    1        4.447   8.272   0.710  0.00  0.00    -0.660 N 
ATOM      3  H   LIG    1        5.342   8.002   0.451  0.00  0.00    +0.420 HD
ATOM      4  C   LIG    1        3.427   7.396   0.618  0.00  0.00    +0.520 C 
ATOM      5  O   LIG    1        2.324   7.706   1.016  0.00  0.00    -0.520 OA
BRANCH   2  11
ATOM      6  C   LIG    1        4.944  10.641   0.664  0.00  0.00    +0.110 A 
ATOM      7  C   LIG    1        4.705  11.925   1.127  0.00  0.00    -0.060 A 
ATOM      8  C   LIG    1        3.755  12.140   2.109  0.00  0.00    +0.040 A 
ATOM      9  C   LIG    1        3.036  11.079   2.625  0.00  0.00    -0.010 A 
ATOM     10  C   LIG    1        3.264   9.796   2.163  0.00  0.00    +0.070 A 
ATOM     11  C   LIG    1        4.215   9.571   1.180  0.00  0.00    +0.110 A 
BRANCH   6  12
ATOM     12  O   LIG    1        5.882  10.427  -0.297  0.00  0.00    -0.320 OA
BRANCH  12  14
ATOM     13  C   LIG    1        7.596  11.135  -1.846  0.00  0.00    +0.070 C 
ATOM     14  C   LIG    1        6.590  11.570  -0.779  0.00  0.00    +0.180 C 
ENDBRANCH  12  14
ENDBRANCH   6  12
ENDBRANCH   2  11
ENDBRANCH   1   4
BRANCH   1  15
ATOM     15  N   LIG    1        2.401   5.276   0.033  0.00  0.00    -0.710 N 
ATOM     16  H   LIG    1        1.552   5.745   0.039  0.00  0.00    +0.410 HD
ATOM     17  C   LIG    1        2.427   3.929   0.036  0.00  0.00    +0.570 C 
ATOM     18  O   LIG    1        3.491   3.341   0.028  0.00  0.00    -0.530 OA
BRANCH  17  19
ATOM     19  C   LIG    1        1.161   3.165   0.050  0.00  0.00    -0.140 A 
ATOM     20  C   LIG    1        1.183   1.770   0.054  0.00  0.00    +0.090 A 
ATOM     21  C   LIG    1       -0.002   1.064   0.067  0.00  0.00    +0.000 A 
ATOM     22  C   LIG    1       -1.211   1.736   0.070  0.00  0.00    -0.060 A 
ATOM     23  C   LIG    1       -1.241   3.119   0.073  0.00  0.00    +0.000 A 
ATOM     24  C   LIG    1       -2.502   0.958   0.078  0.00  0.00    +0.100 C 
ATOM     25  C   LIG    1       -0.063   3.837   0.059  0.00  0.00    +0.050 A 
ENDBRANCH  17  19
ENDBRANCH   1  15
BRANCH   1  26
ATOM     26  C   LIG    1        4.144   6.184  -1.423  0.00  0.00    -0.010 C 
ATOM     27  C   LIG    1        3.090   6.930  -2.243  0.00  0.00    +0.020 C 
ATOM     28  C   LIG    1        4.377   4.799  -2.031  0.00  0.00    +0.040 C 
ENDBRANCH   1  26
TORSDOF 7
