REMARK  Name = ZINCpk000000ntWH.0
REMARK                            x       y       z     vdW  Elec       q    Type
REMARK                         _______ _______ _______ _____ _____    ______ ____
ROOT
ATOM      1  N   LIG    1       -2.277   6.110   3.384  0.00  0.00    -0.560 N 
ATOM      2  C   LIG    1       -3.603   6.257   3.485  0.00  0.00    +0.710 C 
ATOM      3  N   LIG    1       -3.979   6.702   4.697  0.00  0.00    -0.720 N 
ATOM      4  H   LIG    1       -4.886   6.879   4.995  0.00  0.00    +0.440 HD
ATOM      5  C   LIG    1       -2.746   6.877   5.484  0.00  0.00    +0.230 C 
ATOM      6  O   LIG    1       -4.381   6.011   2.584  0.00  0.00    -0.540 OA
ATOM      7  C   LIG    1       -1.649   6.457   4.525  0.00  0.00    +0.530 C 
ATOM      8  O   LIG    1       -0.457   6.436   4.740  0.00  0.00    -0.460 OA
ENDROOT
BRANCH   1   9
ATOM      9  C   LIG    1       -1.591   5.638   2.178  0.00  0.00    +0.360 C 
BRANCH   9  12
ATOM     10  N   LIG    1       -0.860   3.478   1.220  0.00  0.00    -0.730 N 
ATOM     11  H   LIG    1       -0.510   3.969   0.460  0.00  0.00    +0.400 HD
ATOM     12  C   LIG    1       -1.462   4.137   2.229  0.00  0.00    +0.500 C 
ATOM     13  O   LIG    1       -1.900   3.523   3.179  0.00  0.00    -0.530 OA
BRANCH  10  14
ATOM     14  C   LIG    1       -0.735   2.019   1.269  0.00  0.00    +0.260 C 
BRANCH  14  16
ATOM     15  C   LIG    1        0.002  -0.004   0.002  0.00  0.00    +0.030 C 
ATOM     16  C   LIG    1       -0.019   1.526   0.010  0.00  0.00    -0.030 C 
ATOM     17  C   LIG    1        1.417   2.055  -0.000  0.00  0.00    +0.020 C 
ENDBRANCH  14  16
ENDBRANCH  10  14
ENDBRANCH   9  12
ENDBRANCH   1   9
BRANCH   5  18
ATOM     18  C   LIG    1       -2.757   5.973   6.718  0.00  0.00    +0.150 C 
BRANCH  18  19
ATOM     19  C   LIG    1       -3.772   6.486   7.707  0.00  0.00    -0.180 A 
ATOM     20  C   LIG    1       -3.531   7.296   8.750  0.00  0.00    +0.240 A 
ATOM     21  N   LIG    1       -4.695   7.552   9.421  0.00  0.00    -0.590 N 
ATOM     22  H   LIG    1       -4.773   8.114  10.208  0.00  0.00    +0.420 HD
ATOM     23  C   LIG    1       -5.739   6.887   8.817  0.00  0.00    +0.100 A 
ATOM     24  C   LIG    1       -7.101   6.798   9.086  0.00  0.00    -0.010 A 
ATOM     25  C   LIG    1       -7.909   6.031   8.276  0.00  0.00    +0.030 A 
ATOM     26  C   LIG    1       -7.379   5.345   7.192  0.00  0.00    -0.020 A 
ATOM     27  C   LIG    1       -6.044   5.420   6.909  0.00  0.00    +0.040 A 
ATOM     28  C   LIG    1       -5.207   6.191   7.717  0.00  0.00    -0.100 A 
ENDBRANCH  18  19
ENDBRANCH   5  18
TORSDOF 6
