REMARK  Name = ZINCvU0000000Dp6.0
REMARK                            x       y       z     vdW  Elec       q    Type
REMARK                         _______ _______ _______ _____ _____    ______ ____
ROOT
ATOM      1  O   LIG    1       -1.332   5.070   2.290  0.00  0.00    -0.530 OA
ATOM      2  C   LIG    1       -1.192   3.866   2.408  0.00  0.00    +0.560 C 
ATOM      3  N   LIG    1       -1.310   3.065   1.330  0.00  0.00    -0.610 N 
ATOM      4  C   LIG    1       -1.221   1.605   1.470  0.00  0.00    +0.270 C 
ATOM      5  C   LIG    1       -0.156   1.081   0.501  0.00  0.00    +0.010 C 
ATOM      6  C   LIG    1       -0.480   1.560  -0.916  0.00  0.00    +0.020 C 
ATOM      7  C   LIG    1       -0.461   3.089  -0.957  0.00  0.00    +0.040 C 
ATOM      8  C   LIG    1       -1.530   3.636  -0.006  0.00  0.00    +0.310 C 
ENDROOT
BRANCH   8   9
ATOM      9  C   LIG    1       -1.427   5.138   0.060  0.00  0.00    +0.120 A 
ATOM     10  N   LIG    1       -0.400   5.771   0.485  0.00  0.00    -0.430 NA
ATOM     11  C   LIG    1       -0.447   7.117   0.484  0.00  0.00    +0.110 A 
ATOM     12  C   LIG    1        0.528   8.051   0.888  0.00  0.00    +0.060 A 
ATOM     13  C   LIG    1        0.277   9.388   0.810  0.00  0.00    +0.020 A 
ATOM     14  C   LIG    1       -0.940   9.855   0.334  0.00  0.00    +0.020 A 
ATOM     15  C   LIG    1       -1.911   8.965  -0.068  0.00  0.00    +0.060 A 
ATOM     16  C   LIG    1       -1.671   7.595   0.004  0.00  0.00    -0.180 A 
ATOM     17  S   LIG    1       -2.670   6.207  -0.417  0.00  0.00    +0.090 S 
ENDBRANCH   8   9
BRANCH   2  18
ATOM     18  C   LIG    1       -0.906   3.307   3.679  0.00  0.00    -0.130 C 
ATOM     19  C   LIG    1       -0.902   4.092   4.777  0.00  0.00    +0.180 C 
BRANCH  19  20
ATOM     20  C   LIG    1       -0.605   3.513   6.095  0.00  0.00    -0.240 A 
ATOM     21  C   LIG    1       -0.566   4.189   7.300  0.00  0.00    +0.270 A 
ATOM     22  N   LIG    1       -0.260   3.293   8.254  0.00  0.00    -0.360 N 
ATOM     23  N   LIG    1       -0.105   2.039   7.651  0.00  0.00    -0.290 NA
ATOM     24  C   LIG    1       -0.313   2.156   6.369  0.00  0.00    +0.260 A 
BRANCH  22  25
ATOM     25  C   LIG    1       -0.114   3.580   9.683  0.00  0.00    +0.380 C 
BRANCH  25  26
ATOM     26  C   LIG    1       -1.026   2.677  10.472  0.00  0.00    -0.120 A 
ATOM     27  C   LIG    1       -2.315   3.082  10.765  0.00  0.00    +0.020 A 
ATOM     28  C   LIG    1       -3.154   2.252  11.485  0.00  0.00    +0.000 A 
ATOM     29  C   LIG    1       -2.700   1.022  11.922  0.00  0.00    +0.010 A 
ATOM     30  C   LIG    1       -1.409   0.619  11.634  0.00  0.00    +0.010 A 
ATOM     31  C   LIG    1       -0.572   1.447  10.909  0.00  0.00    +0.040 A 
ENDBRANCH  25  26
ENDBRANCH  22  25
ENDBRANCH  19  20
ENDBRANCH   2  18
TORSDOF 5
