REMARK  Name = ZINCtV00000tRRVC.0
REMARK                            x       y       z     vdW  Elec       q    Type
REMARK                         _______ _______ _______ _____ _____    ______ ____
ROOT
ATOM      1  C   LIG    1       -1.284   6.413  -0.064  0.00  0.00    -0.250 A 
ATOM      2  C   LIG    1       -1.300   7.810  -0.163  0.00  0.00    +0.140 A 
ATOM      3  C   LIG    1       -2.602   8.484  -0.256  0.00  0.00    -0.130 A 
ATOM      4  C   LIG    1       -2.675   9.878  -0.357  0.00  0.00    +0.140 A 
ATOM      5  C   LIG    1       -3.905  10.491  -0.444  0.00  0.00    -0.130 A 
ATOM      6  C   LIG    1       -5.069   9.734  -0.431  0.00  0.00    +0.120 A 
ATOM      7  C   LIG    1       -5.013   8.361  -0.332  0.00  0.00    -0.010 A 
ATOM      8 BR   LIG    1       -4.008  12.375  -0.581  0.00  0.00    -0.030 Br
ATOM      9  C   LIG    1       -3.782   7.718  -0.244  0.00  0.00    +0.220 A 
ATOM     10  N   LIG    1       -3.724   6.343  -0.145  0.00  0.00    -0.630 N 
ATOM     11  H   LIG    1       -4.551   5.835  -0.139  0.00  0.00    +0.420 HD
ATOM     12  C   LIG    1       -2.554   5.687  -0.063  0.00  0.00    +0.560 A 
ATOM     13  O   LIG    1       -2.552   4.472   0.018  0.00  0.00    -0.510 OA
ENDROOT
BRANCH   2  14
ATOM     14  C   LIG    1       -0.044   8.584  -0.174  0.00  0.00    -0.070 A 
ATOM     15  C   LIG    1        0.246   9.467   0.870  0.00  0.00    +0.030 A 
ATOM     16  C   LIG    1        1.424  10.184   0.856  0.00  0.00    +0.010 A 
ATOM     17  C   LIG    1        2.314  10.038  -0.194  0.00  0.00    +0.030 A 
ATOM     18  C   LIG    1        2.031   9.169  -1.234  0.00  0.00    +0.010 A 
ATOM     19  C   LIG    1        0.859   8.443  -1.231  0.00  0.00    +0.060 A 
ENDBRANCH   2  14
BRANCH   1  21
ATOM     20  O   LIG    1        1.035   6.303   0.158  0.00  0.00    -0.440 OA
ATOM     21  C   LIG    1       -0.009   5.688   0.031  0.00  0.00    +0.440 C 
BRANCH  21  22
ATOM     22  C   LIG    1        0.006   4.225  -0.026  0.00  0.00    -0.050 C 
ATOM     23  C   LIG    1        1.160   3.554   0.177  0.00  0.00    +0.100 C 
BRANCH  23  24
ATOM     24  C   LIG    1        1.175   2.084   0.119  0.00  0.00    -0.060 A 
ATOM     25  C   LIG    1       -0.003   1.378  -0.144  0.00  0.00    +0.050 A 
ATOM     26  C   LIG    1        0.020   0.001  -0.197  0.00  0.00    +0.010 A 
ATOM     27  C   LIG    1        1.204  -0.685   0.011  0.00  0.00    +0.040 A 
ATOM     28  C   LIG    1        2.375   0.005   0.273  0.00  0.00    +0.030 A 
ATOM     29  C   LIG    1        2.370   1.384   0.328  0.00  0.00    -0.020 A 
ATOM     30 CL   LIG    1        3.840   2.247   0.655  0.00  0.00    -0.060 Cl
ENDBRANCH  23  24
ENDBRANCH  21  22
ENDBRANCH   1  21
TORSDOF 4
