REMARK  Name = ZINCDN00000009GI.1
REMARK                            x       y       z     vdW  Elec       q    Type
REMARK                         _______ _______ _______ _____ _____    ______ ____
ROOT
ATOM      1  N   LIG    1       11.058   3.254  -0.083  0.00  0.00    -0.530 N 
ATOM      2  H   LIG    1       11.020   2.284  -0.088  0.00  0.00    +0.430 HD
ATOM      3  C   LIG    1       12.250   3.882  -0.090  0.00  0.00    +0.570 C 
ATOM      4  O   LIG    1       12.297   5.096  -0.083  0.00  0.00    -0.530 OA
ENDROOT
BRANCH   3   5
ATOM      5  C   LIG    1       13.501   3.094  -0.106  0.00  0.00    -0.160 A 
ATOM      6  C   LIG    1       13.450   1.699  -0.108  0.00  0.00    +0.080 A 
ATOM      7  C   LIG    1       14.621   0.969  -0.129  0.00  0.00    -0.010 A 
ATOM      8  C   LIG    1       15.844   1.617  -0.136  0.00  0.00    +0.160 A 
ATOM      9  C   LIG    1       15.901   3.000  -0.129  0.00  0.00    -0.620 A 
ATOM     10  C   LIG    1       14.738   3.741  -0.113  0.00  0.00    +0.190 A 
BRANCH   9  11
ATOM     11  S   LIG    1       17.463   3.815  -0.138  0.00  0.00    +2.600 S 
ATOM     12  O   LIG    1       17.235   5.112  -0.672  0.00  0.00    -1.020 OA
ATOM     13  O   LIG    1       18.392   2.896  -0.696  0.00  0.00    -1.020 OA
BRANCH  11  14
ATOM     14  N   LIG    1       17.912   4.032   1.441  0.00  0.00    -1.090 NA
BRANCH  14  15
ATOM     15  C   LIG    1       19.122   4.661   1.743  0.00  0.00    +0.280 A 
ATOM     16  C   LIG    1       19.953   5.099   0.720  0.00  0.00    -0.140 A 
ATOM     17  C   LIG    1       21.147   5.724   1.022  0.00  0.00    +0.050 A 
ATOM     18  C   LIG    1       21.521   5.904   2.341  0.00  0.00    -0.060 A 
ATOM     19  C   LIG    1       20.698   5.465   3.362  0.00  0.00    -0.140 A 
ATOM     20  C   LIG    1       19.500   4.844   3.067  0.00  0.00    +0.000 A 
BRANCH  19  21
ATOM     21  C   LIG    1       21.109   5.664   4.798  0.00  0.00    +0.510 C 
ATOM     22  F   LIG    1       19.968   5.804   5.595  0.00  0.00    -0.180 F 
ATOM     23  F   LIG    1       21.895   6.816   4.903  0.00  0.00    -0.180 F 
ATOM     24  F   LIG    1       21.846   4.556   5.230  0.00  0.00    -0.180 F 
ENDBRANCH  19  21
ENDBRANCH  14  15
ENDBRANCH  11  14
ENDBRANCH   9  11
ENDBRANCH   3   5
BRANCH   1  26
ATOM     25  C   LIG    1        8.680   3.373  -0.060  0.00  0.00    +0.520 C 
ATOM     26  N   LIG    1        9.873   4.001  -0.067  0.00  0.00    -0.520 N 
ATOM     27  H   LIG    1        9.910   4.970  -0.062  0.00  0.00    +0.430 HD
ATOM     28  O   LIG    1        8.633   2.161  -0.067  0.00  0.00    -0.540 OA
BRANCH  25  29
ATOM     29  C   LIG    1        7.405   4.176  -0.044  0.00  0.00    +0.100 C 
BRANCH  29  30
ATOM     30  C   LIG    1        6.205   3.228  -0.038  0.00  0.00    +0.070 C 
BRANCH  30  31
ATOM     31  C   LIG    1        4.930   4.031  -0.022  0.00  0.00    +0.400 C 
ATOM     32  O   LIG    1        4.977   5.243  -0.015  0.00  0.00    -0.460 OA
BRANCH  31  36
ATOM     33  C   LIG    1        1.183   2.057   0.002  0.00  0.00    +0.170 A 
ATOM     34  C   LIG    1        2.358   1.313  -0.008  0.00  0.00    -0.080 A 
ATOM     35  C   LIG    1        3.574   1.947  -0.022  0.00  0.00    +0.110 A 
ATOM     36  C   LIG    1        3.631   3.347  -0.014  0.00  0.00    -0.210 A 
ATOM     37  C   LIG    1        2.445   4.091   0.001  0.00  0.00    +0.120 A 
ATOM     38  C   LIG    1        1.234   3.447   0.009  0.00  0.00    -0.030 A 
BRANCH  33  39
ATOM     39  O   LIG    1       -0.017   1.425   0.010  0.00  0.00    -0.310 OA
BRANCH  39  41
ATOM     40  C   LIG    1       -1.433  -0.534   0.013  0.00  0.00    +0.070 C 
ATOM     41  C   LIG    1        0.002  -0.004   0.002  0.00  0.00    +0.190 C 
ENDBRANCH  39  41
ENDBRANCH  33  39
ENDBRANCH  31  36
ENDBRANCH  30  31
ENDBRANCH  29  30
ENDBRANCH  25  29
ENDBRANCH   1  26
TORSDOF 12
