REMARK  Name = ZINCqH0000004Zai.0
REMARK                            x       y       z     vdW  Elec       q    Type
REMARK                         _______ _______ _______ _____ _____    ______ ____
ROOT
ATOM      1  C   LIG    1        4.977   1.286  -0.027  0.00  0.00    -0.160 A 
ATOM      2  C   LIG    1        5.117  -0.097   0.110  0.00  0.00    +0.160 A 
ATOM      3  C   LIG    1        6.357  -0.680  -0.038  0.00  0.00    -0.080 A 
ATOM      4  C   LIG    1        7.468   0.098  -0.322  0.00  0.00    +0.160 A 
ATOM      5  C   LIG    1        7.346   1.466  -0.460  0.00  0.00    -0.010 A 
ATOM      6  C   LIG    1        6.104   2.071  -0.320  0.00  0.00    +0.210 A 
ENDROOT
BRANCH   6   7
ATOM      7  N   LIG    1        5.977   3.447  -0.464  0.00  0.00    -0.460 N 
ATOM      8  C   LIG    1        7.275   4.064  -0.838  0.00  0.00    +0.190 C 
ATOM      9  C   LIG    1        6.857   5.423  -1.453  0.00  0.00    +0.040 C 
ATOM     10  C   LIG    1        5.561   5.072  -2.219  0.00  0.00    +0.030 C 
ATOM     11  C   LIG    1        5.041   3.782  -1.559  0.00  0.00    +0.190 C 
ENDBRANCH   6   7
BRANCH   1  14
ATOM     12  C   LIG    1        2.802   0.426  -1.600  0.00  0.00    +0.310 C 
ATOM     13  N   LIG    1        2.626   1.529  -0.652  0.00  0.00    -0.550 N 
ATOM     14  C   LIG    1        3.654   1.916   0.129  0.00  0.00    +0.570 C 
ATOM     15  O   LIG    1        3.490   2.786   0.963  0.00  0.00    -0.470 OA
BRANCH  13  16
ATOM     16  C   LIG    1        1.391   2.180  -0.557  0.00  0.00    +0.170 A 
ATOM     17  C   LIG    1        0.381   1.890  -1.465  0.00  0.00    +0.010 A 
ATOM     18  C   LIG    1       -0.836   2.538  -1.374  0.00  0.00    +0.050 A 
ATOM     19  C   LIG    1       -1.054   3.467  -0.372  0.00  0.00    +0.040 A 
ATOM     20  C   LIG    1       -0.047   3.759   0.536  0.00  0.00    +0.100 A 
ATOM     21  F   LIG    1       -0.259   4.671   1.510  0.00  0.00    -0.120 F 
ATOM     22  F   LIG    1       -2.247   4.095  -0.283  0.00  0.00    -0.130 F 
ATOM     23  C   LIG    1        1.174   3.117   0.445  0.00  0.00    +0.020 A 
ENDBRANCH  13  16
ENDBRANCH   1  14
BRANCH   3  24
ATOM     24  N   LIG    1        6.503  -2.146   0.106  0.00  0.00    +0.030 N 
ATOM     25  O   LIG    1        7.597  -2.665  -0.024  0.00  0.00    -0.150 OA
ATOM     26  O   LIG    1        5.529  -2.834   0.355  0.00  0.00    -0.160 OA
ENDBRANCH   3  24
TORSDOF 4
