REMARK  Name = ZINCpk00000jRjY2.0
REMARK                            x       y       z     vdW  Elec       q    Type
REMARK                         _______ _______ _______ _____ _____    ______ ____
ROOT
ATOM      1  C   LIG    1        1.445   1.896   0.561  0.00  0.00    +0.260 C 
ATOM      2  C   LIG    1        2.065   0.648   1.244  0.00  0.00    +0.050 C 
ATOM      3  C   LIG    1        1.371  -0.504   0.476  0.00  0.00    +0.240 C 
ATOM      4  N   LIG    1       -0.003  -0.024   0.237  0.00  0.00    -0.620 N 
ATOM      5  C   LIG    1       -1.082  -0.804   0.028  0.00  0.00    +0.610 C 
ATOM      6  O   LIG    1       -2.187  -0.303  -0.060  0.00  0.00    -0.510 OA
ATOM      7  C   LIG    1       -0.001   1.446   0.264  0.00  0.00    +0.260 C 
ENDROOT
BRANCH   5   8
ATOM      8  C   LIG    1       -0.923  -2.262  -0.095  0.00  0.00    -0.040 A 
ATOM      9  C   LIG    1       -1.934  -3.204  -0.183  0.00  0.00    +0.030 A 
ATOM     10  C   LIG    1       -1.285  -4.436  -0.283  0.00  0.00    +0.040 A 
ATOM     11  N   LIG    1        0.005  -4.214  -0.254  0.00  0.00    -0.270 NA
ATOM     12  N   LIG    1        0.251  -2.957  -0.151  0.00  0.00    -0.380 N 
ATOM     13  H   LIG    1        1.137  -2.563  -0.116  0.00  0.00    +0.440 HD
BRANCH  10  14
ATOM     14  C   LIG    1       -1.950  -5.783  -0.404  0.00  0.00    +0.080 C 
ATOM     15  C   LIG    1       -3.229  -5.647  -1.233  0.00  0.00    +0.040 C 
ATOM     16  C   LIG    1       -2.300  -6.305   0.991  0.00  0.00    +0.040 C 
ENDBRANCH  10  14
ENDBRANCH   5   8
BRANCH   1  18
ATOM     17  C   LIG    1        1.348   4.294   0.980  0.00  0.00    +0.600 C 
ATOM     18  N   LIG    1        1.454   3.044   1.471  0.00  0.00    -0.720 N 
ATOM     19  H   LIG    1        1.537   2.904   2.427  0.00  0.00    +0.400 HD
ATOM     20  O   LIG    1        1.244   4.470  -0.219  0.00  0.00    -0.510 OA
BRANCH  17  25
ATOM     21  C   LIG    1        1.313   7.484   2.755  0.00  0.00    +0.030 A 
ATOM     22  N   LIG    1        1.437   6.610   3.721  0.00  0.00    -0.260 NA
ATOM     23  N   LIG    1        1.459   5.413   3.256  0.00  0.00    -0.380 N 
ATOM     24  H   LIG    1        1.540   4.607   3.791  0.00  0.00    +0.440 HD
ATOM     25  C   LIG    1        1.357   5.447   1.895  0.00  0.00    -0.050 A 
ATOM     26  C   LIG    1        1.257   6.783   1.548  0.00  0.00    +0.030 A 
BRANCH  21  28
ATOM     27  C   LIG    1        0.113   9.337   3.884  0.00  0.00    +0.020 C 
ATOM     28  C   LIG    1        1.244   8.981   2.916  0.00  0.00    +0.120 C 
ENDBRANCH  21  28
ENDBRANCH  17  25
ENDBRANCH   1  18
TORSDOF 5
