REMARK  Name = ZINCpk00000jRjY2.1
REMARK                            x       y       z     vdW  Elec       q    Type
REMARK                         _______ _______ _______ _____ _____    ______ ____
ROOT
ATOM      1  C   LIG    1       -0.507   8.353  -0.564  0.00  0.00    +0.250 C 
ATOM      2  C   LIG    1        0.832   7.816   0.007  0.00  0.00    +0.030 C 
ATOM      3  C   LIG    1        0.611   6.289   0.035  0.00  0.00    +0.270 C 
ATOM      4  N   LIG    1       -0.841   6.058   0.040  0.00  0.00    -0.610 N 
ATOM      5  C   LIG    1       -1.445   4.853   0.040  0.00  0.00    +0.620 C 
ATOM      6  O   LIG    1       -2.659   4.781   0.050  0.00  0.00    -0.520 OA
ATOM      7  C   LIG    1       -1.527   7.363   0.052  0.00  0.00    +0.260 C 
ENDROOT
BRANCH   5   8
ATOM      8  C   LIG    1       -0.632   3.620   0.027  0.00  0.00    -0.010 A 
ATOM      9  N   LIG    1        0.684   3.547   0.014  0.00  0.00    -0.260 NA
ATOM     10  N   LIG    1        1.058   2.318   0.004  0.00  0.00    -0.380 N 
ATOM     11  H   LIG    1        1.980   2.020  -0.005  0.00  0.00    +0.440 HD
ATOM     12  C   LIG    1       -0.018   1.503   0.010  0.00  0.00    +0.030 A 
ATOM     13  C   LIG    1       -1.119   2.291   0.019  0.00  0.00    -0.010 A 
BRANCH  12  14
ATOM     14  C   LIG    1        0.002  -0.004   0.002  0.00  0.00    +0.070 C 
ATOM     15  C   LIG    1        0.148  -0.520   1.435  0.00  0.00    +0.030 C 
ATOM     16  C   LIG    1        1.183  -0.493  -0.839  0.00  0.00    +0.030 C 
ENDBRANCH  12  14
ENDBRANCH   5   8
BRANCH   1  18
ATOM     17  C   LIG    1       -1.647  10.497  -0.763  0.00  0.00    +0.600 C 
ATOM     18  N   LIG    1       -0.762   9.721  -0.106  0.00  0.00    -0.720 N 
ATOM     19  H   LIG    1       -0.293  10.069   0.669  0.00  0.00    +0.400 HD
ATOM     20  O   LIG    1       -2.234  10.062  -1.735  0.00  0.00    -0.510 OA
BRANCH  17  25
ATOM     21  C   LIG    1       -2.664  13.936  -0.081  0.00  0.00    +0.030 A 
ATOM     22  N   LIG    1       -1.790  13.694   0.863  0.00  0.00    -0.260 NA
ATOM     23  N   LIG    1       -1.330  12.498   0.767  0.00  0.00    -0.380 N 
ATOM     24  H   LIG    1       -0.675  12.102   1.362  0.00  0.00    +0.440 HD
ATOM     25  C   LIG    1       -1.902  11.872  -0.304  0.00  0.00    -0.040 A 
ATOM     26  C   LIG    1       -2.775  12.787  -0.866  0.00  0.00    +0.030 A 
BRANCH  21  28
ATOM     27  C   LIG    1       -4.154  15.593   1.006  0.00  0.00    +0.020 C 
ATOM     28  C   LIG    1       -3.417  15.226  -0.283  0.00  0.00    +0.120 C 
ENDBRANCH  21  28
ENDBRANCH  17  25
ENDBRANCH   1  18
TORSDOF 5
