REMARK  Name = ZINCrD000000DdLy.0
REMARK                            x       y       z     vdW  Elec       q    Type
REMARK                         _______ _______ _______ _____ _____    ______ ____
ROOT
ATOM      1  N   LIG    1        1.926   1.010  -1.244  0.00  0.00    -0.520 NA
ENDROOT
BRANCH   1   2
ATOM      2  C   LIG    1        0.981   1.499  -0.232  0.00  0.00    +0.180 C 
BRANCH   2   3
ATOM      3  C   LIG    1       -0.415   0.945  -0.526  0.00  0.00    +0.320 C 
BRANCH   3   4
ATOM      4  C   LIG    1       -1.376   1.415   0.535  0.00  0.00    -0.050 A 
ATOM      5  C   LIG    1       -1.723   0.731   1.640  0.00  0.00    -0.050 A 
ATOM      6  C   LIG    1       -2.641   1.538   2.350  0.00  0.00    -0.060 A 
ATOM      7  C   LIG    1       -2.800   2.668   1.637  0.00  0.00    +0.170 A 
ATOM      8  O   LIG    1       -2.026   2.590   0.541  0.00  0.00    -0.170 OA
ENDBRANCH   3   4
BRANCH   3   9
ATOM      9  O   LIG    1       -0.852   1.411  -1.805  0.00  0.00    -0.540 OA
ATOM     10  H   LIG    1       -0.906   2.374  -1.875  0.00  0.00    +0.380 HD
ENDBRANCH   3   9
ENDBRANCH   2   3
ENDBRANCH   1   2
BRANCH   1  11
ATOM     11  C   LIG    1        3.166   1.797  -1.231  0.00  0.00    +0.310 C 
BRANCH  11  12
ATOM     12  C   LIG    1        2.870   3.209  -1.668  0.00  0.00    +0.180 A 
ATOM     13  N   LIG    1        2.535   4.207  -0.894  0.00  0.00    -0.290 NA
ATOM     14  N   LIG    1        2.365   5.268  -1.604  0.00  0.00    -0.290 NA
ATOM     15  C   LIG    1        2.587   4.994  -2.857  0.00  0.00    +0.180 A 
ATOM     16  C   LIG    1        2.519   5.946  -4.024  0.00  0.00    +0.150 C 
ATOM     17  C   LIG    1        1.721   5.293  -5.157  0.00  0.00    +0.030 C 
ATOM     18  C   LIG    1        2.661   4.477  -6.039  0.00  0.00    +0.020 C 
ATOM     19  C   LIG    1        3.788   3.871  -5.204  0.00  0.00    +0.030 C 
ATOM     20  C   LIG    1        3.200   2.925  -4.152  0.00  0.00    +0.290 C 
ATOM     21  N   LIG    1        2.907   3.681  -2.934  0.00  0.00    -0.450 N 
ENDBRANCH  11  12
ENDBRANCH   1  11
BRANCH   1  22
ATOM     22  C   LIG    1        2.207  -0.419  -1.055  0.00  0.00    +0.230 C 
BRANCH  22  23
ATOM     23  C   LIG    1        2.846  -0.975  -2.302  0.00  0.00    -0.080 A 
ATOM     24  C   LIG    1        2.055  -1.408  -3.350  0.00  0.00    +0.030 A 
ATOM     25  C   LIG    1        2.641  -1.913  -4.495  0.00  0.00    +0.000 A 
ATOM     26  C   LIG    1        4.018  -1.994  -4.589  0.00  0.00    +0.000 A 
ATOM     27  C   LIG    1        4.809  -1.565  -3.540  0.00  0.00    +0.000 A 
ATOM     28  C   LIG    1        4.223  -1.056  -2.396  0.00  0.00    +0.000 A 
ENDBRANCH  22  23
ENDBRANCH   1  22
TORSDOF 8
