REMARK  Name = ZINCrH00000tj1ke.0
REMARK                            x       y       z     vdW  Elec       q    Type
REMARK                         _______ _______ _______ _____ _____    ______ ____
ROOT
ATOM      1  C   LIG    1       -0.013   1.086   0.008  0.00  0.00    +0.130 C 
ATOM      2  C   LIG    1       -0.718   1.572   1.248  0.00  0.00    -0.120 A 
ATOM      3  C   LIG    1        0.000   1.807   2.409  0.00  0.00    +0.160 A 
ATOM      4  C   LIG    1       -0.643   2.257   3.561  0.00  0.00    -0.020 A 
ATOM      5  C   LIG    1       -1.990   2.472   3.561  0.00  0.00    +0.090 A 
ATOM      6  C   LIG    1       -2.732   2.240   2.396  0.00  0.00    -0.150 A 
ATOM      7  C   LIG    1       -4.179   2.462   2.367  0.00  0.00    +0.010 A 
ATOM      8  C   LIG    1       -4.843   2.218   1.207  0.00  0.00    -0.050 A 
ATOM      9  C   LIG    1       -4.134   1.764   0.076  0.00  0.00    +0.510 A 
ATOM     10  O   LIG    1       -4.741   1.548  -0.958  0.00  0.00    -0.450 OA
ATOM     11  O   LIG    1       -2.807   1.562   0.109  0.00  0.00    -0.270 OA
ATOM     12  C   LIG    1       -2.087   1.791   1.229  0.00  0.00    +0.170 A 
ENDROOT
BRANCH   3  13
ATOM     13  O   LIG    1        1.341   1.597   2.425  0.00  0.00    -0.490 OA
ATOM     14  H   LIG    1        1.864   2.372   2.178  0.00  0.00    +0.400 HD
ENDBRANCH   3  13
BRANCH   7  15
ATOM     15  C   LIG    1       -4.912   2.948   3.591  0.00  0.00    +0.330 C 
BRANCH  15  16
ATOM     16  O   LIG    1       -6.326   3.081   3.287  0.00  0.00    -0.350 OA
BRANCH  16  17
ATOM     17  C   LIG    1       -7.128   3.509   4.281  0.00  0.00    +0.510 C 
ATOM     18  O   LIG    1       -6.659   3.764   5.372  0.00  0.00    -0.470 OA
BRANCH  17  19
ATOM     19  C   LIG    1       -8.576   3.669   4.045  0.00  0.00    -0.120 A 
ATOM     20  C   LIG    1       -9.118   3.382   2.790  0.00  0.00    +0.190 A 
ATOM     21  C   LIG    1      -10.473   3.529   2.577  0.00  0.00    -0.050 A 
ATOM     22  C   LIG    1      -11.294   3.969   3.600  0.00  0.00    +0.160 A 
ATOM     23  C   LIG    1      -10.765   4.260   4.845  0.00  0.00    +0.050 A 
ATOM     24  C   LIG    1       -9.411   4.112   5.074  0.00  0.00    +0.060 A 
ATOM     25 CL   LIG    1       -8.748   4.478   6.636  0.00  0.00    +0.010 Cl
BRANCH  21  26
ATOM     26  N   LIG    1      -11.049   3.221   1.249  0.00  0.00    +0.020 N 
ATOM     27  O   LIG    1      -10.327   2.835   0.347  0.00  0.00    -0.140 OA
ATOM     28  O   LIG    1      -12.244   3.355   1.058  0.00  0.00    -0.140 OA
ENDBRANCH  21  26
ENDBRANCH  17  19
ENDBRANCH  16  17
ENDBRANCH  15  16
ENDBRANCH   7  15
TORSDOF 6
