REMARK  Name = ZINCkj000005gs6V.0
REMARK                            x       y       z     vdW  Elec       q    Type
REMARK                         _______ _______ _______ _____ _____    ______ ____
ROOT
ATOM      1  N   LIG    1        2.568   0.999   6.468  0.00  0.00    -0.690 NA
ATOM      2  H   LIG    1        2.718   1.789   5.926  0.00  0.00    +0.430 HD
ENDROOT
BRANCH   1   3
ATOM      3  C   LIG    1        3.282   0.816   7.629  0.00  0.00    +0.730 C 
BRANCH   3   4
ATOM      4  N   LIG    1        3.079  -0.245   8.358  0.00  0.00    -0.780 NA
ATOM      5  H   LIG    1        2.425  -0.906   8.082  0.00  0.00    +0.440 HD
ATOM      6  H   LIG    1        3.583  -0.374   9.177  0.00  0.00    +0.440 HD
ENDBRANCH   3   4
BRANCH   3   7
ATOM      7  N   LIG    1        4.209   1.753   8.021  0.00  0.00    -0.690 NA
ATOM      8  H   LIG    1        4.360   2.542   7.478  0.00  0.00    +0.430 HD
BRANCH   7   9
ATOM      9  C   LIG    1        4.970   1.558   9.257  0.00  0.00    +0.230 C 
ATOM     10  C   LIG    1        4.157   2.080  10.444  0.00  0.00    +0.050 C 
BRANCH   9  12
ATOM     11  C   LIG    1        7.158   1.716   8.061  0.00  0.00    +0.020 C 
ATOM     12  C   LIG    1        6.292   2.321   9.169  0.00  0.00    +0.050 C 
ENDBRANCH   9  12
ENDBRANCH   7   9
ENDBRANCH   3   7
ENDBRANCH   1   3
BRANCH   1  13
ATOM     13  C   LIG    1        1.579   0.002   6.051  0.00  0.00    +0.360 C 
BRANCH  13  14
ATOM     14  C   LIG    1        0.942   0.437   4.757  0.00  0.00    -0.240 A 
ATOM     15  C   LIG    1       -0.202   1.222   4.767  0.00  0.00    +0.140 A 
ATOM     16  C   LIG    1       -0.752   1.605   3.556  0.00  0.00    -0.040 A 
ATOM     17  C   LIG    1       -0.150   1.183   2.378  0.00  0.00    +0.350 A 
ATOM     18  N   LIG    1        0.940   0.434   2.408  0.00  0.00    -0.540 NA
ATOM     19  C   LIG    1        1.490   0.058   3.547  0.00  0.00    +0.340 A 
BRANCH  17  20
ATOM     20  O   LIG    1       -0.682   1.547   1.184  0.00  0.00    -0.290 OA
BRANCH  20  21
ATOM     21  C   LIG    1       -0.013   1.086   0.008  0.00  0.00    +0.240 C 
BRANCH  21  22
ATOM     22  C   LIG    1       -0.753   1.593  -1.232  0.00  0.00    +0.200 C 
BRANCH  22  23
ATOM     23  O   LIG    1       -0.672   3.018  -1.285  0.00  0.00    -0.390 OA
ATOM     24  C   LIG    1       -1.335   3.596  -2.411  0.00  0.00    +0.210 C 
ENDBRANCH  22  23
ENDBRANCH  21  22
ENDBRANCH  20  21
ENDBRANCH  17  20
ENDBRANCH  13  14
ENDBRANCH   1  13
TORSDOF 11
