REMARK  Name = ZINCqH0000002Z1O.0
REMARK                            x       y       z     vdW  Elec       q    Type
REMARK                         _______ _______ _______ _____ _____    ______ ____
ROOT
ATOM      1  N   LIG    1        0.004  -0.029  -0.015  0.00  0.00    -0.590 N 
ATOM      2  C   LIG    1       -0.121  -0.532  -1.259  0.00  0.00    +0.610 C 
ATOM      3  O   LIG    1       -0.142   0.216  -2.218  0.00  0.00    -0.500 OA
ENDROOT
BRANCH   2   4
ATOM      4  C   LIG    1       -0.233  -1.984  -1.457  0.00  0.00    -0.030 A 
ATOM      5  C   LIG    1       -0.462  -2.595  -2.648  0.00  0.00    -0.070 A 
ATOM      6  C   LIG    1       -0.492  -4.030  -2.368  0.00  0.00    -0.110 A 
ATOM      7  C   LIG    1       -0.680  -5.170  -3.153  0.00  0.00    +0.050 A 
ATOM      8  C   LIG    1       -0.655  -6.415  -2.561  0.00  0.00    +0.080 A 
ATOM      9  C   LIG    1       -0.445  -6.535  -1.192  0.00  0.00    +0.040 A 
ATOM     10  C   LIG    1       -0.257  -5.418  -0.408  0.00  0.00    +0.070 A 
ATOM     11  F   LIG    1       -0.837  -7.522  -3.314  0.00  0.00    -0.130 F 
ATOM     12  C   LIG    1       -0.278  -4.153  -0.983  0.00  0.00    +0.060 A 
ATOM     13  C   LIG    1       -0.645  -1.929  -3.988  0.00  0.00    +0.140 C 
ATOM     14  O   LIG    1       -0.130  -2.911  -0.482  0.00  0.00    -0.180 OA
ENDBRANCH   2   4
BRANCH   1  16
ATOM     15  C   LIG    1        1.429   1.943   0.232  0.00  0.00    +0.020 C 
ATOM     16  C   LIG    1       -0.009   1.421   0.194  0.00  0.00    +0.280 C 
ENDBRANCH   1  16
BRANCH   1  17
ATOM     17  C   LIG    1        0.153  -0.933   1.129  0.00  0.00    +0.330 C 
BRANCH  17  18
ATOM     18  C   LIG    1       -1.208  -1.383   1.593  0.00  0.00    +0.500 C 
ATOM     19  N   LIG    1       -1.319  -2.225   2.640  0.00  0.00    -0.730 N 
ATOM     20  H   LIG    1       -0.522  -2.541   3.095  0.00  0.00    +0.400 HD
ATOM     21  O   LIG    1       -2.204  -0.989   1.025  0.00  0.00    -0.520 OA
BRANCH  19  22
ATOM     22  C   LIG    1       -2.642  -2.663   3.091  0.00  0.00    +0.370 C 
BRANCH  22  23
ATOM     23  C   LIG    1       -2.489  -3.593   4.268  0.00  0.00    -0.210 A 
ATOM     24  C   LIG    1       -2.461  -3.216   5.547  0.00  0.00    +0.030 A 
ATOM     25  C   LIG    1       -2.312  -4.249   6.456  0.00  0.00    +0.000 A 
ATOM     26  C   LIG    1       -2.218  -5.465   5.915  0.00  0.00    -0.030 A 
ATOM     27  S   LIG    1       -2.327  -5.341   4.164  0.00  0.00    +0.120 S 
ENDBRANCH  22  23
ENDBRANCH  19  22
ENDBRANCH  17  18
ENDBRANCH   1  17
TORSDOF 6
