REMARK  Name = ZINCpk000005BED4.0
REMARK                            x       y       z     vdW  Elec       q    Type
REMARK                         _______ _______ _______ _____ _____    ______ ____
ROOT
ATOM      1  C   LIG    1       -0.472   1.424   1.565  0.00  0.00    +0.290 C 
ENDROOT
BRANCH   1   2
ATOM      2  N   LIG    1       -1.812   0.835   1.608  0.00  0.00    -0.620 N 
ATOM      3  C   LIG    1       -2.865   1.518   1.115  0.00  0.00    +0.520 C 
ATOM      4  O   LIG    1       -2.701   2.620   0.636  0.00  0.00    -0.520 OA
ATOM      5  C   LIG    1       -2.010  -0.496   2.187  0.00  0.00    +0.280 C 
BRANCH   3   6
ATOM      6  C   LIG    1       -4.244   0.913   1.160  0.00  0.00    +0.170 C 
BRANCH   6   7
ATOM      7  C   LIG    1       -5.234   1.872   0.550  0.00  0.00    +0.020 A 
ATOM      8  N   LIG    1       -5.434   3.111   0.897  0.00  0.00    -0.330 NA
ATOM      9  O   LIG    1       -6.295   3.628   0.224  0.00  0.00    +0.110 OA
ATOM     10  C   LIG    1       -6.790   2.774  -0.683  0.00  0.00    +0.000 A 
ATOM     11  C   LIG    1       -6.124   1.607  -0.515  0.00  0.00    -0.050 A 
BRANCH  10  12
ATOM     12  C   LIG    1       -7.871   3.059  -1.694  0.00  0.00    +0.050 C 
ATOM     13  C   LIG    1       -8.337   4.509  -1.841  0.00  0.00    +0.040 C 
ATOM     14  C   LIG    1       -9.243   3.479  -1.162  0.00  0.00    +0.050 C 
ENDBRANCH  10  12
ENDBRANCH   6   7
ENDBRANCH   3   6
ENDBRANCH   1   2
BRANCH   1  16
ATOM     15  C   LIG    1        0.437  -0.480   0.227  0.00  0.00    +0.030 C 
ATOM     16  C   LIG    1        0.215   1.033   0.255  0.00  0.00    -0.040 C 
BRANCH  16  17
ATOM     17  C   LIG    1        1.564   1.748   0.153  0.00  0.00    +0.260 C 
BRANCH  17  18
ATOM     18  N   LIG    1        2.167   1.469  -1.152  0.00  0.00    -0.730 N 
ATOM     19  H   LIG    1        1.704   0.903  -1.790  0.00  0.00    +0.400 HD
ATOM     20  C   LIG    1        3.367   1.997  -1.467  0.00  0.00    +0.520 C 
ATOM     21  O   LIG    1        3.946   2.704  -0.670  0.00  0.00    -0.540 OA
BRANCH  20  22
ATOM     22  C   LIG    1        3.987   1.710  -2.810  0.00  0.00    +0.030 C 
BRANCH  22  23
ATOM     23  C   LIG    1        5.399   2.297  -2.855  0.00  0.00    +0.150 C 
ATOM     24  C   LIG    1        6.027   2.013  -4.221  0.00  0.00    +0.060 C 
ATOM     25  C   LIG    1        6.253   1.657  -1.758  0.00  0.00    +0.010 C 
BRANCH  23  26
ATOM     26  O   LIG    1        5.335   3.709  -2.645  0.00  0.00    -0.570 OA
ATOM     27  H   LIG    1        4.947   3.963  -1.796  0.00  0.00    +0.390 HD
ENDBRANCH  23  26
ENDBRANCH  22  23
ENDBRANCH  20  22
ENDBRANCH  17  18
ENDBRANCH  16  17
ENDBRANCH   1  16
TORSDOF 10
