REMARK  Name = ZINCqH0000004CER.0
REMARK                            x       y       z     vdW  Elec       q    Type
REMARK                         _______ _______ _______ _____ _____    ______ ____
ROOT
ATOM      1  C   LIG    1        2.133   5.631  -0.074  0.00  0.00    +0.310 C 
ENDROOT
BRANCH   1   2
ATOM      2  N   LIG    1        3.456   6.255  -0.157  0.00  0.00    -0.550 N 
ATOM      3  C   LIG    1        3.946   6.552  -1.369  0.00  0.00    +0.570 C 
ATOM      4  C   LIG    1        5.267   7.181  -1.549  0.00  0.00    -0.140 A 
ATOM      5  C   LIG    1        5.752   7.480  -2.822  0.00  0.00    +0.100 A 
ATOM      6  C   LIG    1        6.994   8.067  -2.959  0.00  0.00    +0.010 A 
ATOM      7  C   LIG    1        7.756   8.361  -1.843  0.00  0.00    +0.060 A 
ATOM      8  C   LIG    1        7.280   8.068  -0.574  0.00  0.00    +0.020 A 
ATOM      9  C   LIG    1        6.046   7.483  -0.428  0.00  0.00    -0.040 A 
ATOM     10  C   LIG    1        5.489   7.145   0.935  0.00  0.00    +0.050 C 
ATOM     11  C   LIG    1        5.431   8.437   1.752  0.00  0.00    +0.080 C 
ATOM     12  O   LIG    1        3.278   6.296  -2.351  0.00  0.00    -0.490 OA
ATOM     13  C   LIG    1        4.118   6.506   0.986  0.00  0.00    +0.540 C 
ATOM     14  O   LIG    1        3.620   6.218   2.053  0.00  0.00    -0.480 OA
ENDBRANCH   1   2
BRANCH   1  15
ATOM     15  C   LIG    1        2.280   4.132  -0.118  0.00  0.00    +0.390 C 
ATOM     16  O   LIG    1        3.382   3.634  -0.210  0.00  0.00    -0.430 OA
BRANCH  15  21
ATOM     17  C   LIG    1       -1.303   3.030   0.004  0.00  0.00    -0.100 A 
ATOM     18  C   LIG    1       -1.158   1.656   0.074  0.00  0.00    +0.050 A 
ATOM     19  C   LIG    1        0.103   1.085   0.092  0.00  0.00    +0.000 A 
ATOM     20  C   LIG    1        1.225   1.883   0.028  0.00  0.00    -0.020 A 
ATOM     21  C   LIG    1        1.087   3.273  -0.050  0.00  0.00    -0.160 A 
ATOM     22  C   LIG    1       -0.190   3.842  -0.061  0.00  0.00    +0.060 A 
BRANCH  17  24
ATOM     23  C   LIG    1       -3.170   3.765  -1.453  0.00  0.00    +0.030 C 
ATOM     24  C   LIG    1       -2.680   3.641  -0.009  0.00  0.00    +0.050 C 
ENDBRANCH  17  24
BRANCH  20  25
ATOM     25  C   LIG    1        2.597   1.260   0.040  0.00  0.00    +0.070 C 
ATOM     26  C   LIG    1        3.124   1.158  -1.393  0.00  0.00    +0.030 C 
ENDBRANCH  20  25
ENDBRANCH  15  21
ENDBRANCH   1  15
TORSDOF 5
