REMARK  Name = ZINCbw0000000Hrd.0
REMARK                            x       y       z     vdW  Elec       q    Type
REMARK                         _______ _______ _______ _____ _____    ______ ____
ROOT
ATOM      1  O   LIG    1       -2.223   1.243   0.018  0.00  0.00    -0.510 OA
ATOM      2  C   LIG    1       -1.104   1.728   0.016  0.00  0.00    +0.540 A 
ATOM      3  N   LIG    1       -0.011   0.966   0.007  0.00  0.00    -0.720 N 
ATOM      4  H   LIG    1        0.002  -0.004   0.002  0.00  0.00    +0.450 HD
ATOM      5  S   LIG    1        1.351   1.972  -0.000  0.00  0.00    +0.290 S 
ATOM      6  C   LIG    1        0.471   3.502   0.016  0.00  0.00    -0.090 A 
ATOM      7  C   LIG    1        0.882   4.828   0.019  0.00  0.00    +0.070 A 
ATOM      8  C   LIG    1       -0.060   5.835   0.033  0.00  0.00    +0.020 A 
ATOM      9  C   LIG    1       -1.414   5.519   0.044  0.00  0.00    +0.030 A 
ATOM     10  C   LIG    1       -1.832   4.223   0.041  0.00  0.00    +0.150 A 
ATOM     11 CL   LIG    1        0.444   7.497   0.037  0.00  0.00    -0.040 Cl
ATOM     12  C   LIG    1       -0.895   3.170   0.028  0.00  0.00    -0.170 A 
ENDROOT
TORSDOF 0
