REMARK  Name = ZINCqH0000006iCb.0
REMARK                            x       y       z     vdW  Elec       q    Type
REMARK                         _______ _______ _______ _____ _____    ______ ____
ROOT
ATOM      1  N   LIG    1       -0.721   1.571  -1.179  0.00  0.00    -0.470 N 
ATOM      2  C   LIG    1       -1.735   0.902  -1.819  0.00  0.00    +0.130 A 
ATOM      3  C   LIG    1       -2.366  -0.320  -1.591  0.00  0.00    -0.010 A 
ATOM      4  C   LIG    1       -3.368  -0.740  -2.413  0.00  0.00    +0.070 A 
ATOM      5  C   LIG    1       -3.782   0.049  -3.498  0.00  0.00    -0.200 A 
ATOM      6  C   LIG    1       -3.170   1.280  -3.739  0.00  0.00    +0.150 A 
ATOM      7  C   LIG    1       -2.142   1.706  -2.903  0.00  0.00    -0.120 A 
ATOM      8  C   LIG    1       -1.289   2.898  -2.866  0.00  0.00    -0.150 A 
ATOM      9  C   LIG    1       -1.329   4.061  -3.824  0.00  0.00    +0.130 C 
ATOM     10  C   LIG    1       -0.466   2.755  -1.816  0.00  0.00    +0.070 A 
ATOM     11  C   LIG    1        0.585   3.752  -1.400  0.00  0.00    +0.140 C 
ENDROOT
BRANCH   5  12
ATOM     12  C   LIG    1       -4.864  -0.417  -4.376  0.00  0.00    +0.420 C 
ATOM     13  O   LIG    1       -5.221   0.264  -5.313  0.00  0.00    -0.430 OA
BRANCH  12  14
ATOM     14  C   LIG    1       -5.531  -1.742  -4.110  0.00  0.00    +0.180 C 
BRANCH  14  15
ATOM     15  C   LIG    1       -6.009  -2.333  -5.411  0.00  0.00    +0.130 A 
ATOM     16  C   LIG    1       -7.242  -1.966  -5.916  0.00  0.00    -0.010 A 
ATOM     17  C   LIG    1       -7.671  -2.513  -7.116  0.00  0.00    +0.070 A 
ATOM     18  C   LIG    1       -6.844  -3.419  -7.761  0.00  0.00    -0.020 A 
ATOM     19  C   LIG    1       -5.626  -3.742  -7.193  0.00  0.00    +0.270 A 
ATOM     20  N   LIG    1       -5.249  -3.199  -6.053  0.00  0.00    -0.470 NA
ENDBRANCH  14  15
BRANCH  14  21
ATOM     21  C   LIG    1       -6.679  -1.542  -3.211  0.00  0.00    +0.210 C 
ATOM     22  N   LIG    1       -7.565  -1.388  -2.517  0.00  0.00    -0.390 NA
ENDBRANCH  14  21
ENDBRANCH  12  14
ENDBRANCH   5  12
BRANCH   1  23
ATOM     23  C   LIG    1       -0.013   1.086   0.008  0.00  0.00    +0.310 C 
BRANCH  23  24
ATOM     24  C   LIG    1       -0.729   1.579   1.267  0.00  0.00    +0.160 C 
BRANCH  24  26
ATOM     25  C   LIG    1       -0.628   1.513   3.661  0.00  0.00    +0.200 C 
ATOM     26  O   LIG    1       -0.038   1.106   2.425  0.00  0.00    -0.390 OA
ENDBRANCH  24  26
ENDBRANCH  23  24
ENDBRANCH   1  23
TORSDOF 7
