REMARK  Name = ZINCrg000000qZ3U.0
REMARK                            x       y       z     vdW  Elec       q    Type
REMARK                         _______ _______ _______ _____ _____    ______ ____
ROOT
ATOM      1  N   LIG    1       -3.248   5.648   2.010  0.00  0.00    -0.560 N 
ATOM      2  C   LIG    1       -3.961   4.536   2.223  0.00  0.00    +0.530 C 
ATOM      3  C   LIG    1       -3.571   3.490   1.201  0.00  0.00    +0.100 C 
ATOM      4  C   LIG    1       -2.498   4.200   0.350  0.00  0.00    +0.150 C 
ATOM      5  O   LIG    1       -4.788   4.389   3.097  0.00  0.00    -0.480 OA
ATOM      6  C   LIG    1       -2.394   5.571   0.982  0.00  0.00    +0.540 C 
ATOM      7  O   LIG    1       -1.654   6.458   0.615  0.00  0.00    -0.450 OA
ENDROOT
BRANCH   4   8
ATOM      8  N   LIG    1       -1.214   3.490   0.441  0.00  0.00    -0.520 NA
ATOM      9  C   LIG    1       -0.183   4.160  -0.368  0.00  0.00    +0.200 C 
ATOM     10  C   LIG    1        1.181   3.596   0.028  0.00  0.00    +0.110 C 
ATOM     11  C   LIG    1        1.146   2.088   0.002  0.00  0.00    +0.180 A 
ATOM     12  C   LIG    1       -0.017   1.403   0.010  0.00  0.00    -0.190 A 
ATOM     13  C   LIG    1        0.002  -0.004   0.002  0.00  0.00    +0.130 A 
ATOM     14  C   LIG    1        1.193  -0.664  -0.017  0.00  0.00    -0.090 A 
ATOM     15  C   LIG    1        2.385   0.080  -0.031  0.00  0.00    +0.520 A 
ATOM     16  O   LIG    1        3.463  -0.493  -0.051  0.00  0.00    -0.550 OA
ATOM     17  N   LIG    1        2.336   1.422  -0.022  0.00  0.00    -0.610 N 
ATOM     18  H   LIG    1        3.163   1.928  -0.034  0.00  0.00    +0.410 HD
ATOM     19  C   LIG    1       -1.356   2.093   0.019  0.00  0.00    +0.270 C 
ENDBRANCH   4   8
BRANCH   1  20
ATOM     20  C   LIG    1       -3.390   6.851   2.833  0.00  0.00    +0.350 C 
BRANCH  20  26
ATOM     21  C   LIG    1       -1.094   7.112   3.806  0.00  0.00    +0.150 A 
ATOM     22  C   LIG    1       -0.212   7.049   4.875  0.00  0.00    -0.090 A 
ATOM     23  C   LIG    1       -0.665   6.661   6.121  0.00  0.00    +0.060 A 
ATOM     24  C   LIG    1       -1.996   6.335   6.304  0.00  0.00    -0.030 A 
ATOM     25  C   LIG    1       -2.878   6.402   5.241  0.00  0.00    +0.070 A 
ATOM     26  C   LIG    1       -2.429   6.784   3.992  0.00  0.00    -0.150 A 
BRANCH  21  28
ATOM     27  C   LIG    1        0.736   7.816   2.462  0.00  0.00    +0.230 C 
ATOM     28  O   LIG    1       -0.651   7.494   2.580  0.00  0.00    -0.290 OA
ENDBRANCH  21  28
ENDBRANCH  20  26
ENDBRANCH   1  20
TORSDOF 4
