REMARK  Name = ZINCAx0000000aH2.0
REMARK                            x       y       z     vdW  Elec       q    Type
REMARK                         _______ _______ _______ _____ _____    ______ ____
ROOT
ATOM      1  C   LIG    1        9.547  -2.752   3.252  0.00  0.00    -0.660 A 
ATOM      2  C   LIG    1        9.979  -2.959   1.950  0.00  0.00    +0.120 A 
ATOM      3  C   LIG    1        9.122  -2.733   0.896  0.00  0.00    +0.070 A 
ATOM      4  C   LIG    1        7.821  -2.298   1.132  0.00  0.00    -0.150 A 
ATOM      5  S   LIG    1        6.503  -1.926   0.024  0.00  0.00    +0.060 S 
ATOM      6  C   LIG    1        5.460  -1.517   1.379  0.00  0.00    +0.380 A 
ATOM      7  N   LIG    1        6.094  -1.660   2.492  0.00  0.00    -0.540 NA
ATOM      8  C   LIG    1        7.372  -2.085   2.439  0.00  0.00    +0.110 A 
ATOM      9  C   LIG    1        8.268  -2.322   3.503  0.00  0.00    +0.170 A 
ENDROOT
BRANCH   1  10
ATOM     10  S   LIG    1       10.650  -3.043   4.595  0.00  0.00    +2.700 S 
ATOM     11  O   LIG    1       11.627  -3.959   4.120  0.00  0.00    -0.950 OA
ATOM     12  O   LIG    1        9.838  -3.293   5.734  0.00  0.00    -0.950 OA
BRANCH  10  13
ATOM     13  N   LIG    1       11.447  -1.622   4.891  0.00  0.00    -1.090 NA
ATOM     14  H   LIG    1       12.405  -1.564   4.751  0.00  0.00    +0.430 HD
BRANCH  13  15
ATOM     15  C   LIG    1       10.705  -0.451   5.367  0.00  0.00    +0.260 C 
BRANCH  15  16
ATOM     16  C   LIG    1       10.329   0.432   4.176  0.00  0.00    +0.160 C 
BRANCH  16  18
ATOM     17  C   LIG    1       11.276   1.799   2.449  0.00  0.00    +0.200 C 
ATOM     18  O   LIG    1       11.517   0.955   3.577  0.00  0.00    -0.380 OA
ENDBRANCH  16  18
ENDBRANCH  15  16
BRANCH  15  19
ATOM     19  C   LIG    1       11.578   0.346   6.338  0.00  0.00    +0.210 C 
BRANCH  19  20
ATOM     20  N   LIG    1       12.038  -0.535   7.420  0.00  0.00    -0.530 NA
ATOM     21  C   LIG    1       10.911  -0.977   8.255  0.00  0.00    +0.150 C 
ATOM     22  C   LIG    1       11.425  -1.938   9.330  0.00  0.00    +0.220 C 
ATOM     23  O   LIG    1       12.444  -1.288  10.095  0.00  0.00    -0.390 OA
ATOM     24  C   LIG    1       13.557  -0.846   9.313  0.00  0.00    +0.220 C 
ATOM     25  C   LIG    1       13.064   0.126   8.238  0.00  0.00    +0.150 C 
ENDBRANCH  19  20
ENDBRANCH  15  19
ENDBRANCH  13  15
ENDBRANCH  10  13
ENDBRANCH   1  10
BRANCH   6  26
ATOM     26  N   LIG    1        4.151  -1.096   1.266  0.00  0.00    -0.680 N 
ATOM     27  H   LIG    1        3.638  -0.888   2.063  0.00  0.00    +0.420 HD
BRANCH  26  28
ATOM     28  C   LIG    1        3.535  -0.964  -0.056  0.00  0.00    +0.290 C 
ATOM     29  C   LIG    1        2.803  -2.267  -0.458  0.00  0.00    +0.260 C 
ATOM     30  O   LIG    1        1.459  -2.029  -0.007  0.00  0.00    -0.280 OA
ATOM     31  C   LIG    1        1.214  -0.690  -0.014  0.00  0.00    +0.190 A 
ATOM     32  C   LIG    1        0.002  -0.004   0.002  0.00  0.00    -0.030 A 
ATOM     33  C   LIG    1       -0.017   1.378   0.010  0.00  0.00    +0.190 A 
ATOM     34  C   LIG    1        1.169   2.093   0.002  0.00  0.00    -0.060 A 
ATOM     35  C   LIG    1        2.378   1.417  -0.016  0.00  0.00    +0.210 A 
ATOM     36  F   LIG    1        3.539   2.109  -0.024  0.00  0.00    -0.120 F 
ATOM     37  F   LIG    1       -1.198   2.034   0.019  0.00  0.00    -0.120 F 
ATOM     38  C   LIG    1        2.397   0.038  -0.027  0.00  0.00    -0.260 A 
ENDBRANCH  26  28
ENDBRANCH   6  26
TORSDOF 9
