REMARK  Name = ZINCqH0000008qzT.0
REMARK                            x       y       z     vdW  Elec       q    Type
REMARK                         _______ _______ _______ _____ _____    ______ ____
ROOT
ATOM      1  C   LIG    1        1.994   0.629  -0.014  0.00  0.00    +0.170 A 
ATOM      2  N   LIG    1        1.271   1.720  -0.001  0.00  0.00    -0.430 NA
ATOM      3  C   LIG    1       -0.016   1.304   0.009  0.00  0.00    +0.230 A 
ATOM      4  N   LIG    1        0.002  -0.004   0.002  0.00  0.00    -0.360 NA
ATOM      5  O   LIG    1        1.147  -0.405  -0.011  0.00  0.00    +0.090 OA
ENDROOT
BRANCH   3   6
ATOM      6  C   LIG    1       -1.220   2.168   0.020  0.00  0.00    +0.230 A 
ATOM      7  N   LIG    1       -1.094   3.482   0.031  0.00  0.00    -0.440 NA
ATOM      8  C   LIG    1       -2.135   4.300   0.035  0.00  0.00    +0.250 A 
ATOM      9  C   LIG    1       -3.417   3.838   0.040  0.00  0.00    +0.020 A 
ATOM     10  C   LIG    1       -3.639   2.448   0.034  0.00  0.00    -0.030 A 
ATOM     11  C   LIG    1       -4.928   1.897   0.038  0.00  0.00    +0.030 A 
ATOM     12  C   LIG    1       -5.077   0.542   0.033  0.00  0.00    +0.040 A 
ATOM     13  C   LIG    1       -3.969  -0.302   0.023  0.00  0.00    +0.020 A 
ATOM     14  C   LIG    1       -2.702   0.201   0.018  0.00  0.00    +0.050 A 
ATOM     15  C   LIG    1       -2.510   1.588   0.024  0.00  0.00    -0.080 A 
ENDBRANCH   3   6
BRANCH   1  17
ATOM     16  C   LIG    1        4.003   0.146   1.357  0.00  0.00    +0.070 C 
ATOM     17  C   LIG    1        3.499   0.552  -0.029  0.00  0.00    +0.390 C 
BRANCH  17  18
ATOM     18  N   LIG    1        3.928  -0.443  -1.015  0.00  0.00    -0.730 N 
ATOM     19  H   LIG    1        3.331  -1.166  -1.265  0.00  0.00    +0.410 HD
ATOM     20  C   LIG    1        5.150  -0.354  -1.575  0.00  0.00    +0.570 C 
ATOM     21  O   LIG    1        5.897   0.553  -1.262  0.00  0.00    -0.520 OA
BRANCH  20  22
ATOM     22  C   LIG    1        5.582  -1.358  -2.570  0.00  0.00    -0.140 A 
ATOM     23  C   LIG    1        4.729  -2.403  -2.928  0.00  0.00    +0.040 A 
ATOM     24  C   LIG    1        5.137  -3.334  -3.860  0.00  0.00    +0.000 A 
ATOM     25  C   LIG    1        6.393  -3.240  -4.433  0.00  0.00    +0.040 A 
ATOM     26  C   LIG    1        7.245  -2.209  -4.080  0.00  0.00    +0.000 A 
ATOM     27  C   LIG    1        6.848  -1.268  -3.153  0.00  0.00    +0.080 A 
ENDBRANCH  20  22
ENDBRANCH  17  18
ENDBRANCH   1  17
TORSDOF 4
