REMARK  Name = ZINCb80000002vzR.0
REMARK                            x       y       z     vdW  Elec       q    Type
REMARK                         _______ _______ _______ _____ _____    ______ ____
ROOT
ATOM      1  C   LIG    1        0.002  -0.004   0.002  0.00  0.00    +0.360 C 
ATOM      2  N   LIG    1       -0.018   1.461   0.010  0.00  0.00    -0.530 N 
ATOM      3  C   LIG    1        1.064   2.261   0.004  0.00  0.00    +0.690 A 
ATOM      4  N   LIG    1        0.674   3.551   0.014  0.00  0.00    -0.640 N 
ATOM      5  H   LIG    1        1.262   4.322   0.012  0.00  0.00    +0.440 HD
ATOM      6  C   LIG    1       -0.717   3.584   0.027  0.00  0.00    +0.040 A 
ATOM      7  C   LIG    1       -1.651   4.609   0.041  0.00  0.00    +0.090 A 
ATOM      8  C   LIG    1       -2.996   4.271   0.051  0.00  0.00    -0.010 A 
ATOM      9  C   LIG    1       -3.359   2.938   0.048  0.00  0.00    +0.290 A 
ATOM     10  N   LIG    1       -2.450   1.982   0.035  0.00  0.00    -0.470 NA
ATOM     11  O   LIG    1        2.219   1.879  -0.008  0.00  0.00    -0.540 OA
ATOM     12  C   LIG    1       -1.156   2.256   0.019  0.00  0.00    +0.300 A 
ENDROOT
TORSDOF 0
