REMARK  Name = ZINCpk00000KfKic.0
REMARK                            x       y       z     vdW  Elec       q    Type
REMARK                         _______ _______ _______ _____ _____    ______ ____
ROOT
ATOM      1  O   LIG    1       -1.738   0.252  -3.394  0.00  0.00    -0.520 OA
ATOM      2  C   LIG    1       -0.566   0.557  -3.458  0.00  0.00    +0.520 C 
ATOM      3  N   LIG    1        0.008   1.242  -2.449  0.00  0.00    -0.610 N 
ATOM      4  C   LIG    1        1.427   1.618  -2.511  0.00  0.00    +0.270 C 
ATOM      5  C   LIG    1        2.126   1.116  -1.244  0.00  0.00    +0.050 C 
ATOM      6  C   LIG    1        1.388   1.649  -0.014  0.00  0.00    +0.030 C 
ATOM      7  C   LIG    1       -0.050   1.125  -0.012  0.00  0.00    +0.260 C 
ATOM      8  C   LIG    1       -0.774   1.627  -1.266  0.00  0.00    +0.290 C 
ENDROOT
BRANCH   2   9
ATOM      9  C   LIG    1        0.249   0.169  -4.665  0.00  0.00    +0.010 C 
ATOM     10  C   LIG    1        1.321  -0.882  -4.294  0.00  0.00    +0.090 C 
ATOM     11  C   LIG    1        0.654  -2.209  -4.583  0.00  0.00    +0.520 C 
ATOM     12  N   LIG    1       -0.427  -2.024  -5.360  0.00  0.00    -0.550 N 
ATOM     13  O   LIG    1        1.040  -3.284  -4.174  0.00  0.00    -0.500 OA
ATOM     14  C   LIG    1       -0.612  -0.605  -5.687  0.00  0.00    +0.310 C 
BRANCH  12  15
ATOM     15  C   LIG    1       -1.268  -3.052  -5.800  0.00  0.00    +0.160 A 
ATOM     16  C   LIG    1       -0.942  -4.377  -5.542  0.00  0.00    -0.010 A 
ATOM     17  C   LIG    1       -1.776  -5.389  -5.974  0.00  0.00    +0.040 A 
ATOM     18  C   LIG    1       -2.931  -5.084  -6.672  0.00  0.00    -0.020 A 
ATOM     19  C   LIG    1       -3.256  -3.766  -6.935  0.00  0.00    +0.040 A 
ATOM     20  C   LIG    1       -2.428  -2.749  -6.502  0.00  0.00    -0.020 A 
ENDBRANCH  12  15
ENDBRANCH   2   9
BRANCH   7  21
ATOM     21  N   LIG    1       -0.746   1.610   1.182  0.00  0.00    -0.380 N 
ATOM     22  C   LIG    1       -0.577   2.799   1.786  0.00  0.00    +0.480 A 
ATOM     23  N   LIG    1       -1.383   2.850   2.816  0.00  0.00    -0.540 NA
ATOM     24  C   LIG    1       -2.073   1.713   2.905  0.00  0.00    +0.420 A 
ATOM     25  N   LIG    1       -1.718   0.922   1.927  0.00  0.00    -0.320 NA
ENDBRANCH   7  21
TORSDOF 3
