REMARK  Name = ZINCkj000005jfap.0
REMARK                            x       y       z     vdW  Elec       q    Type
REMARK                         _______ _______ _______ _____ _____    ______ ____
ROOT
ATOM      1  C   LIG    1        6.683   0.048   1.827  0.00  0.00    +0.030 C 
ATOM      2  C   LIG    1        7.085   0.221   0.361  0.00  0.00    -0.040 C 
ATOM      3  C   LIG    1        7.081   1.709   0.003  0.00  0.00    +0.030 C 
ATOM      4  C   LIG    1        5.688   2.291   0.251  0.00  0.00    +0.030 C 
ATOM      5  C   LIG    1        4.672   1.575  -0.651  0.00  0.00    +0.280 C 
ATOM      6  N   LIG    1        4.772   0.129  -0.411  0.00  0.00    -0.600 N 
ATOM      7  C   LIG    1        3.679  -0.592  -0.089  0.00  0.00    +0.590 C 
ATOM      8  O   LIG    1        3.791  -1.766   0.207  0.00  0.00    -0.550 OA
ATOM      9  C   LIG    1        6.086  -0.518  -0.534  0.00  0.00    +0.230 C 
ENDROOT
BRANCH   7  10
ATOM     10  C   LIG    1        2.348   0.044  -0.097  0.00  0.00    -0.280 A 
ATOM     11  C   LIG    1        1.397  -0.285   0.881  0.00  0.00    +0.170 A 
ATOM     12  C   LIG    1        0.174   0.330   0.835  0.00  0.00    -0.110 A 
ATOM     13  C   LIG    1       -0.087   1.257  -0.171  0.00  0.00    +0.430 A 
ATOM     14  N   LIG    1        0.830   1.550  -1.083  0.00  0.00    -0.550 NA
ATOM     15  C   LIG    1        2.017   0.982  -1.076  0.00  0.00    +0.350 A 
BRANCH  13  16
ATOM     16  N   LIG    1       -1.325   1.877  -0.224  0.00  0.00    -0.600 N 
ATOM     17  C   LIG    1       -1.650   2.769  -1.339  0.00  0.00    +0.290 C 
ATOM     18  C   LIG    1       -2.308   1.639   0.836  0.00  0.00    +0.300 C 
ENDBRANCH  13  16
ENDBRANCH   7  10
BRANCH   9  19
ATOM     19  C   LIG    1        5.981  -1.980  -0.093  0.00  0.00    +0.300 C 
BRANCH  19  20
ATOM     20  N   LIG    1        7.295  -2.625  -0.220  0.00  0.00    -0.640 N 
ATOM     21  H   LIG    1        7.206  -3.610  -0.022  0.00  0.00    +0.440 HD
ATOM     22  H   LIG    1        7.940  -2.206   0.433  0.00  0.00    +0.430 HD
ATOM     23  H   LIG    1        7.641  -2.501  -1.160  0.00  0.00    +0.430 HD
ENDBRANCH  19  20
ENDBRANCH   9  19
TORSDOF 4
