REMARK  Name = ZINCrD000000fH4G.0
REMARK                            x       y       z     vdW  Elec       q    Type
REMARK                         _______ _______ _______ _____ _____    ______ ____
ROOT
ATOM      1  C   LIG    1       -1.021  -2.202   0.493  0.00  0.00    +0.250 C 
ENDROOT
BRANCH   1   4
ATOM      2  C   LIG    1       -4.529  -2.922   1.847  0.00  0.00    +0.090 C 
ATOM      3  C   LIG    1       -3.122  -2.400   1.712  0.00  0.00    +0.520 C 
ATOM      4  N   LIG    1       -2.389  -2.709   0.624  0.00  0.00    -0.720 N 
ATOM      5  H   LIG    1       -2.768  -3.268  -0.072  0.00  0.00    +0.400 HD
ATOM      6  O   LIG    1       -2.649  -1.701   2.583  0.00  0.00    -0.510 OA
ENDBRANCH   1   4
BRANCH   1   7
ATOM      7  C   LIG    1       -1.042  -0.695   0.502  0.00  0.00    +0.500 C 
ATOM      8  N   LIG    1        0.002  -0.004   0.002  0.00  0.00    -0.730 N 
ATOM      9  H   LIG    1        0.766  -0.477  -0.363  0.00  0.00    +0.400 HD
ATOM     10  O   LIG    1       -1.998  -0.104   0.958  0.00  0.00    -0.510 OA
BRANCH   8  11
ATOM     11  C   LIG    1       -0.018   1.461   0.010  0.00  0.00    +0.240 C 
ATOM     12  C   LIG    1       -0.732   1.975  -1.245  0.00  0.00    +0.000 C 
ATOM     13  C   LIG    1       -0.826   3.498  -1.139  0.00  0.00    +0.020 C 
ATOM     14  C   LIG    1        0.574   4.117  -1.139  0.00  0.00    -0.010 C 
ATOM     15  C   LIG    1        0.416   5.590  -0.696  0.00  0.00    +0.000 C 
ATOM     16  C   LIG    1        0.554   5.588   0.838  0.00  0.00    -0.010 C 
ATOM     17  C   LIG    1        0.848   4.128   1.253  0.00  0.00    +0.010 C 
ATOM     18  C   LIG    1        1.441   3.505  -0.025  0.00  0.00    -0.010 C 
ATOM     19  C   LIG    1        1.414   1.996  -0.001  0.00  0.00    +0.020 C 
ENDBRANCH   8  11
ENDBRANCH   1   7
BRANCH   1  20
ATOM     20  C   LIG    1       -0.176  -2.707   1.664  0.00  0.00    +0.130 C 
BRANCH  20  21
ATOM     21  C   LIG    1       -0.054  -4.207   1.585  0.00  0.00    -0.160 A 
ATOM     22  C   LIG    1       -0.821  -5.105   2.223  0.00  0.00    +0.220 A 
ATOM     23  N   LIG    1       -0.416  -6.373   1.907  0.00  0.00    -0.600 N 
ATOM     24  H   LIG    1       -0.821  -7.188   2.243  0.00  0.00    +0.420 HD
ATOM     25  C   LIG    1        0.655  -6.320   1.043  0.00  0.00    +0.100 A 
ATOM     26  C   LIG    1        1.437  -7.292   0.426  0.00  0.00    -0.010 A 
ATOM     27  C   LIG    1        2.466  -6.913  -0.408  0.00  0.00    +0.020 A 
ATOM     28  C   LIG    1        2.732  -5.571  -0.641  0.00  0.00    -0.020 A 
ATOM     29  C   LIG    1        1.976  -4.601  -0.046  0.00  0.00    +0.050 A 
ATOM     30  C   LIG    1        0.929  -4.961   0.804  0.00  0.00    -0.100 A 
ENDBRANCH  20  21
ENDBRANCH   1  20
TORSDOF 5
