REMARK  Name = ZINCkj000005lmLm.0
REMARK                            x       y       z     vdW  Elec       q    Type
REMARK                         _______ _______ _______ _____ _____    ______ ____
ROOT
ATOM      1  C   LIG    1        0.956  -2.173  -0.411  0.00  0.00    -0.030 C 
ATOM      2  C   LIG    1       -0.361  -2.358   0.388  0.00  0.00    +0.070 C 
ATOM      3  C   LIG    1       -0.979  -0.944   0.368  0.00  0.00    +0.260 C 
ATOM      4  N   LIG    1        0.115   0.007   0.120  0.00  0.00    -0.610 N 
ATOM      5  C   LIG    1       -0.016   1.344   0.009  0.00  0.00    +0.590 C 
ATOM      6  O   LIG    1        0.970   2.043  -0.106  0.00  0.00    -0.500 OA
ATOM      7  C   LIG    1        1.378  -0.745   0.007  0.00  0.00    +0.270 C 
ENDROOT
BRANCH   5   8
ATOM      8  C   LIG    1       -1.365   1.960   0.022  0.00  0.00    -0.040 A 
ATOM      9  C   LIG    1       -2.029   2.161   1.198  0.00  0.00    +0.010 A 
ATOM     10  C   LIG    1       -3.356   2.774   1.178  0.00  0.00    +0.540 A 
ATOM     11  N   LIG    1       -3.935   3.134   0.020  0.00  0.00    -0.630 N 
ATOM     12  H   LIG    1       -4.817   3.537   0.034  0.00  0.00    +0.420 HD
ATOM     13  C   LIG    1       -3.300   2.943  -1.189  0.00  0.00    +0.190 A 
ATOM     14  C   LIG    1       -3.917   3.323  -2.378  0.00  0.00    -0.020 A 
ATOM     15  C   LIG    1       -3.271   3.125  -3.579  0.00  0.00    +0.080 A 
ATOM     16  C   LIG    1       -2.008   2.551  -3.616  0.00  0.00    -0.010 A 
ATOM     17  C   LIG    1       -1.384   2.171  -2.462  0.00  0.00    +0.070 A 
ATOM     18  O   LIG    1       -3.947   2.958   2.227  0.00  0.00    -0.510 OA
ATOM     19  C   LIG    1       -2.020   2.362  -1.232  0.00  0.00    -0.110 A 
ENDBRANCH   5   8
BRANCH   1  20
ATOM     20  C   LIG    1        2.005  -3.204   0.014  0.00  0.00    +0.280 C 
BRANCH  20  21
ATOM     21  N   LIG    1        3.191  -3.077  -0.843  0.00  0.00    -0.640 N 
ATOM     22  H   LIG    1        3.882  -3.756  -0.563  0.00  0.00    +0.440 HD
ATOM     23  H   LIG    1        3.575  -2.148  -0.750  0.00  0.00    +0.440 HD
ATOM     24  H   LIG    1        2.931  -3.239  -1.804  0.00  0.00    +0.440 HD
ENDBRANCH  20  21
ENDBRANCH   1  20
TORSDOF 3
