REMARK  Name = ZINCrD00000f9jsK.0
REMARK                            x       y       z     vdW  Elec       q    Type
REMARK                         _______ _______ _______ _____ _____    ______ ____
ROOT
ATOM      1  C   LIG    1       -2.894  -0.899   3.937  0.00  0.00    +0.280 C 
ENDROOT
BRANCH   1   2
ATOM      2  N   LIG    1       -2.171  -0.005   3.029  0.00  0.00    -0.750 N 
ATOM      3  H   LIG    1       -1.205   0.066   3.087  0.00  0.00    +0.400 HD
ATOM      4  C   LIG    1       -2.847   0.717   2.114  0.00  0.00    +0.710 C 
ATOM      5  N   LIG    1       -2.176   1.464   1.215  0.00  0.00    -0.630 N 
ATOM      6  C   LIG    1       -2.904   2.127   0.108  0.00  0.00    +0.310 C 
ATOM      7  C   LIG    1       -2.663   3.624   0.137  0.00  0.00    +0.070 C 
ATOM      8  C   LIG    1       -1.202   3.971   0.381  0.00  0.00    -0.100 C 
ATOM      9  C   LIG    1       -0.254   2.979   1.034  0.00  0.00    -0.020 C 
ATOM     10  C   LIG    1       -0.593   4.962  -0.613  0.00  0.00    +0.100 C 
ATOM     11  C   LIG    1       -0.781   4.118   1.853  0.00  0.00    +0.200 C 
ATOM     12  F   LIG    1       -1.734   3.813   2.832  0.00  0.00    -0.150 F 
ATOM     13  F   LIG    1        0.105   5.152   2.172  0.00  0.00    -0.160 F 
ATOM     14  C   LIG    1       -0.729   1.568   1.331  0.00  0.00    +0.320 C 
ATOM     15  O   LIG    1       -4.063   0.696   2.100  0.00  0.00    -0.580 OA
ENDBRANCH   1   2
BRANCH   1  16
ATOM     16  C   LIG    1       -1.899  -1.595   4.867  0.00  0.00    +0.010 C 
BRANCH  16  17
ATOM     17  C   LIG    1       -2.654  -2.529   5.815  0.00  0.00    +0.260 C 
BRANCH  17  18
ATOM     18  N   LIG    1       -1.702  -3.196   6.706  0.00  0.00    -0.720 N 
ATOM     19  H   LIG    1       -0.753  -3.008   6.630  0.00  0.00    +0.420 HD
BRANCH  18  24
ATOM     20  C   LIG    1       -3.558  -6.875  10.602  0.00  0.00    +0.100 C 
ATOM     21  C   LIG    1       -3.065  -5.897   9.567  0.00  0.00    -0.140 A 
ATOM     22  C   LIG    1       -3.949  -5.356   8.652  0.00  0.00    +0.120 A 
ATOM     23  C   LIG    1       -3.501  -4.455   7.705  0.00  0.00    -0.050 A 
ATOM     24  C   LIG    1       -2.159  -4.102   7.666  0.00  0.00    +0.280 A 
ATOM     25  C   LIG    1       -1.273  -4.647   8.587  0.00  0.00    -0.120 A 
ATOM     26  C   LIG    1       -1.728  -5.543   9.534  0.00  0.00    +0.140 A 
BRANCH  25  27
ATOM     27  N   LIG    1        0.158  -4.269   8.552  0.00  0.00    +0.050 N 
ATOM     28  O   LIG    1        0.578  -3.557   7.658  0.00  0.00    -0.210 OA
ATOM     29  O   LIG    1        0.915  -4.670   9.418  0.00  0.00    -0.160 OA
ENDBRANCH  25  27
ENDBRANCH  18  24
ENDBRANCH  17  18
ENDBRANCH  16  17
ENDBRANCH   1  16
TORSDOF 6
