REMARK  Name = ZINCtV00000tRPkJ.0
REMARK                            x       y       z     vdW  Elec       q    Type
REMARK                         _______ _______ _______ _____ _____    ______ ____
ROOT
ATOM      1  C   LIG    1        4.374   0.555  -2.093  0.00  0.00    +0.050 C 
ATOM      2  C   LIG    1        4.092  -0.836  -1.522  0.00  0.00    +0.190 C 
ATOM      3  C   LIG    1        5.337  -1.733  -1.684  0.00  0.00    +0.050 C 
ATOM      4  C   LIG    1        5.023  -2.532  -2.977  0.00  0.00    +0.040 C 
ATOM      5  C   LIG    1        3.491  -2.728  -2.857  0.00  0.00    +0.230 C 
ATOM      6  N   LIG    1        2.995  -1.473  -2.265  0.00  0.00    -0.620 N 
ATOM      7  C   LIG    1        1.743  -0.988  -2.386  0.00  0.00    +0.720 C 
ATOM      8  N   LIG    1        0.796  -1.716  -3.011  0.00  0.00    -0.680 N 
ATOM      9  H   LIG    1        1.030  -2.560  -3.429  0.00  0.00    +0.410 HD
ATOM     10  O   LIG    1        1.468   0.105  -1.931  0.00  0.00    -0.560 OA
ENDROOT
BRANCH   8  11
ATOM     11  C   LIG    1       -0.524  -1.255  -3.058  0.00  0.00    +0.210 A 
ATOM     12  C   LIG    1       -1.578  -2.156  -3.002  0.00  0.00    -0.040 A 
ATOM     13  C   LIG    1       -2.882  -1.697  -3.041  0.00  0.00    +0.140 A 
ATOM     14  C   LIG    1       -3.136  -0.340  -3.149  0.00  0.00    -0.010 A 
ATOM     15  C   LIG    1       -2.087   0.560  -3.211  0.00  0.00    +0.010 A 
ATOM     16 CL   LIG    1       -2.409   2.260  -3.347  0.00  0.00    -0.050 Cl
ATOM     17  F   LIG    1       -3.909  -2.573  -2.981  0.00  0.00    -0.130 F 
ATOM     18  C   LIG    1       -0.782   0.106  -3.166  0.00  0.00    +0.040 A 
ENDBRANCH   8  11
BRANCH   2  19
ATOM     19  C   LIG    1        3.721  -0.725  -0.042  0.00  0.00    +0.070 C 
BRANCH  19  20
ATOM     20  C   LIG    1        4.824  -0.016   0.701  0.00  0.00    -0.090 A 
ATOM     21  C   LIG    1        4.847   1.365   0.751  0.00  0.00    +0.070 A 
ATOM     22  C   LIG    1        5.857   2.017   1.431  0.00  0.00    +0.020 A 
ATOM     23  C   LIG    1        6.850   1.284   2.064  0.00  0.00    +0.100 A 
ATOM     24  C   LIG    1        6.826  -0.102   2.013  0.00  0.00    -0.060 A 
ATOM     25  C   LIG    1        5.813  -0.749   1.332  0.00  0.00    +0.060 A 
BRANCH  23  26
ATOM     26  O   LIG    1        7.848   1.923   2.729  0.00  0.00    -0.310 OA
BRANCH  26  27
ATOM     27  C   LIG    1        8.837   1.105   3.358  0.00  0.00    +0.600 C 
ATOM     28  F   LIG    1        8.223   0.278   4.305  0.00  0.00    -0.160 F 
ATOM     29  F   LIG    1        9.782   1.919   3.992  0.00  0.00    -0.130 F 
ATOM     30  F   LIG    1        9.473   0.317   2.392  0.00  0.00    -0.160 F 
ENDBRANCH  26  27
ENDBRANCH  23  26
ENDBRANCH  19  20
ENDBRANCH   2  19
TORSDOF 5
