REMARK  Name = ZINCvU00000005O1.0
REMARK                            x       y       z     vdW  Elec       q    Type
REMARK                         _______ _______ _______ _____ _____    ______ ____
ROOT
ATOM      1  C   LIG    1        3.511   7.941  -0.279  0.00  0.00    +0.200 A 
ATOM      2  N   LIG    1        4.779   8.285  -0.322  0.00  0.00    -0.270 NA
ATOM      3  N   LIG    1        5.568   7.137  -0.214  0.00  0.00    -0.310 N 
ATOM      4  C   LIG    1        4.778   6.056  -0.095  0.00  0.00    +0.290 A 
ATOM      5  C   LIG    1        3.467   6.483  -0.134  0.00  0.00    -0.270 A 
ENDROOT
BRANCH   1  11
ATOM      6  C   LIG    1        1.394  12.346   0.742  0.00  0.00    +0.100 C 
ATOM      7  C   LIG    1        1.325  10.972   0.128  0.00  0.00    -0.100 A 
ATOM      8  C   LIG    1        0.171  10.561  -0.515  0.00  0.00    +0.020 A 
ATOM      9  C   LIG    1        0.100   9.300  -1.081  0.00  0.00    +0.000 A 
ATOM     10  C   LIG    1        1.181   8.446  -1.008  0.00  0.00    +0.090 A 
ATOM     11  C   LIG    1        2.346   8.855  -0.361  0.00  0.00    -0.040 A 
ATOM     12  C   LIG    1        2.410  10.124   0.212  0.00  0.00    +0.040 A 
ENDBRANCH   1  11
BRANCH   3  13
ATOM     13  C   LIG    1        6.969   7.117  -0.222  0.00  0.00    +0.140 A 
ATOM     14  C   LIG    1        7.648   5.911  -0.101  0.00  0.00    +0.030 A 
ATOM     15  C   LIG    1        9.028   5.893  -0.113  0.00  0.00    +0.030 A 
ATOM     16  C   LIG    1        9.737   7.077  -0.236  0.00  0.00    +0.100 A 
ATOM     17  C   LIG    1        9.062   8.280  -0.352  0.00  0.00    +0.020 A 
ATOM     18  F   LIG    1       11.087   7.057  -0.243  0.00  0.00    -0.130 F 
ATOM     19  C   LIG    1        7.681   8.303  -0.345  0.00  0.00    +0.070 A 
ENDBRANCH   3  13
BRANCH   5  20
ATOM     20  C   LIG    1        2.262   5.642  -0.042  0.00  0.00    +0.600 C 
ATOM     21  N   LIG    1        2.374   4.335   0.268  0.00  0.00    -0.550 N 
ATOM     22  C   LIG    1        3.671   3.788   0.676  0.00  0.00    +0.300 C 
ATOM     23  O   LIG    1        1.165   6.127  -0.244  0.00  0.00    -0.500 OA
BRANCH  21  24
ATOM     24  C   LIG    1        1.253   3.501   0.199  0.00  0.00    +0.160 A 
ATOM     25  C   LIG    1        0.059   3.984  -0.321  0.00  0.00    +0.050 A 
ATOM     26  C   LIG    1       -1.052   3.164  -0.391  0.00  0.00    +0.050 A 
ATOM     27  C   LIG    1       -0.981   1.859   0.050  0.00  0.00    +0.040 A 
ATOM     28  C   LIG    1        0.213   1.365   0.579  0.00  0.00    -0.010 A 
ATOM     29  C   LIG    1        1.334   2.192   0.650  0.00  0.00    +0.020 A 
BRANCH  28  30
ATOM     30  C   LIG    1        0.289   0.012   1.042  0.00  0.00    +0.250 C 
ATOM     31  N   LIG    1        0.349  -1.062   1.410  0.00  0.00    -0.410 NA
ENDBRANCH  28  30
ENDBRANCH  21  24
ENDBRANCH   5  20
TORSDOF 5
