REMARK  Name = ZINCqH0000050ukC.2
REMARK                            x       y       z     vdW  Elec       q    Type
REMARK                         _______ _______ _______ _____ _____    ______ ____
ROOT
ATOM      1  C   LIG    1        1.692   4.402  -2.216  0.00  0.00    +0.220 C 
ENDROOT
BRANCH   1   2
ATOM      2  C   LIG    1        2.729   5.156  -3.009  0.00  0.00    +0.560 C 
ATOM      3  N   LIG    1        2.468   5.528  -4.277  0.00  0.00    -0.470 N 
ATOM      4  C   LIG    1        3.385   6.270  -5.157  0.00  0.00    +0.260 C 
ATOM      5  C   LIG    1        2.586   6.420  -6.467  0.00  0.00    +0.090 C 
ATOM      6  C   LIG    1        1.270   5.736  -6.172  0.00  0.00    +0.140 C 
ATOM      7  N   LIG    1        1.283   5.280  -4.967  0.00  0.00    -0.240 NA
ATOM      8  O   LIG    1        3.799   5.427  -2.505  0.00  0.00    -0.500 OA
BRANCH   6   9
ATOM      9  C   LIG    1        0.145   5.610  -7.117  0.00  0.00    -0.040 A 
ATOM     10  C   LIG    1        0.243   6.152  -8.401  0.00  0.00    +0.040 A 
ATOM     11  C   LIG    1       -0.812   6.027  -9.281  0.00  0.00    +0.010 A 
ATOM     12  C   LIG    1       -1.969   5.376  -8.892  0.00  0.00    +0.030 A 
ATOM     13  C   LIG    1       -2.075   4.841  -7.620  0.00  0.00    +0.010 A 
ATOM     14  C   LIG    1       -1.027   4.955  -6.731  0.00  0.00    +0.050 A 
ENDBRANCH   6   9
ENDBRANCH   1   2
BRANCH   1  19
ATOM     15  C   LIG    1        1.151   3.592   0.010  0.00  0.00    +0.170 C 
ATOM     16  C   LIG    1        1.444   4.114   1.429  0.00  0.00    +0.030 C 
ATOM     17  C   LIG    1        2.714   4.983   1.285  0.00  0.00    +0.030 C 
ATOM     18  C   LIG    1        2.712   5.353  -0.220  0.00  0.00    +0.180 C 
ATOM     19  N   LIG    1        2.215   4.115  -0.873  0.00  0.00    -0.500 NA
BRANCH  15  24
ATOM     20  C   LIG    1        1.229  -2.186  -0.022  0.00  0.00    +0.090 C 
ATOM     21  C   LIG    1        1.208  -0.679  -0.014  0.00  0.00    -0.090 A 
ATOM     22  C   LIG    1        0.002  -0.004   0.002  0.00  0.00    +0.000 A 
ATOM     23  C   LIG    1       -0.017   1.378   0.010  0.00  0.00    +0.010 A 
ATOM     24  C   LIG    1        1.171   2.086   0.002  0.00  0.00    -0.080 A 
ATOM     25  C   LIG    1        2.377   1.411  -0.014  0.00  0.00    +0.050 A 
ATOM     26  C   LIG    1        2.396   0.029  -0.021  0.00  0.00    -0.010 A 
ENDBRANCH  15  24
ENDBRANCH   1  19
TORSDOF 4
