REMARK  Name = ZINCpe000000ZiCm.0
REMARK                            x       y       z     vdW  Elec       q    Type
REMARK                         _______ _______ _______ _____ _____    ______ ____
ROOT
ATOM      1  C   LIG    1       -1.615   1.473   2.099  0.00  0.00    +0.240 C 
ATOM      2  C   LIG    1       -2.785   2.103   2.862  0.00  0.00    +0.040 C 
ATOM      3  C   LIG    1       -2.357   3.468   3.407  0.00  0.00    +0.020 C 
ATOM      4  C   LIG    1       -1.987   4.390   2.243  0.00  0.00    +0.010 C 
ATOM      5  C   LIG    1       -0.803   3.784   1.474  0.00  0.00    +0.300 C 
ATOM      6  N   LIG    1       -1.158   2.417   1.070  0.00  0.00    -0.980 NA
ENDROOT
BRANCH   1   8
ATOM      7  O   LIG    1       -2.952   0.217   0.614  0.00  0.00    -0.540 OA
ATOM      8  C   LIG    1       -2.070   0.193   1.445  0.00  0.00    +0.520 C 
ATOM      9  N   LIG    1       -1.496  -0.978   1.785  0.00  0.00    -0.690 N 
ATOM     10  H   LIG    1       -0.790  -0.997   2.450  0.00  0.00    +0.400 HD
BRANCH   9  11
ATOM     11  CA  LIG    1       -1.937  -2.222   1.149  0.00  0.00    +0.260 C 
BRANCH  11  12
ATOM     12  C   LIG    1       -1.636  -3.402   2.075  0.00  0.00    +0.040 C 
BRANCH  12  13
ATOM     13  C   LIG    1       -2.475  -3.279   3.348  0.00  0.00    +0.150 C 
BRANCH  13  14
ATOM     14  O   LIG    1       -2.194  -4.381   4.213  0.00  0.00    -0.570 OA
ATOM     15  H   LIG    1       -2.692  -4.368   5.042  0.00  0.00    +0.380 HD
ENDBRANCH  13  14
ENDBRANCH  12  13
ENDBRANCH  11  12
BRANCH  11  16
ATOM     16  C   LIG    1       -1.194  -2.409  -0.175  0.00  0.00    +0.180 C 
BRANCH  16  17
ATOM     17  O   LIG    1        0.200  -2.591   0.082  0.00  0.00    -0.570 OA
ATOM     18  H   LIG    1        0.734  -2.716  -0.714  0.00  0.00    +0.380 HD
ENDBRANCH  16  17
ENDBRANCH  11  16
ENDBRANCH   9  11
ENDBRANCH   1   8
BRANCH   6  19
ATOM     19  S   LIG    1       -1.040   1.946  -0.513  0.00  0.00    +2.690 S 
ATOM     20  O   LIG    1       -0.124   2.840  -1.130  0.00  0.00    -0.950 OA
ATOM     21  O   LIG    1       -0.861   0.536  -0.501  0.00  0.00    -0.940 OA
BRANCH  19  22
ATOM     22  C   LIG    1       -2.606   2.243  -1.264  0.00  0.00    -0.660 A 
ATOM     23  C   LIG    1       -3.427   1.180  -1.593  0.00  0.00    +0.190 A 
ATOM     24  C   LIG    1       -4.658   1.412  -2.178  0.00  0.00    +0.020 A 
ATOM     25  C   LIG    1       -5.064   2.708  -2.443  0.00  0.00    -0.040 A 
ATOM     26  C   LIG    1       -4.240   3.770  -2.118  0.00  0.00    +0.020 A 
ATOM     27 BR   LIG    1       -6.745   3.026  -3.248  0.00  0.00    -0.040 Br
ATOM     28  C   LIG    1       -3.012   3.537  -1.529  0.00  0.00    +0.120 A 
ENDBRANCH  19  22
ENDBRANCH   6  19
TORSDOF 9
