REMARK  Name = ZINCqH0000034t5J.0
REMARK                            x       y       z     vdW  Elec       q    Type
REMARK                         _______ _______ _______ _____ _____    ______ ____
ROOT
ATOM      1  C   LIG    1       -1.084  -4.099   0.593  0.00  0.00    +0.290 C 
ATOM      2  N   LIG    1        0.163  -4.793   0.922  0.00  0.00    -0.590 N 
ATOM      3  C   LIG    1        0.238  -6.134   0.807  0.00  0.00    +0.560 C 
ATOM      4  O   LIG    1        1.229  -6.722   1.193  0.00  0.00    -0.500 OA
ENDROOT
BRANCH   3   5
ATOM      5  C   LIG    1       -0.886  -6.891   0.209  0.00  0.00    +0.110 A 
ATOM      6  N   LIG    1       -1.978  -6.243  -0.181  0.00  0.00    -0.430 NA
ATOM      7  C   LIG    1       -3.001  -6.870  -0.716  0.00  0.00    +0.330 A 
ATOM      8  C   LIG    1       -2.975  -8.257  -0.897  0.00  0.00    -0.040 A 
ATOM      9  C   LIG    1       -1.841  -8.973  -0.498  0.00  0.00    +0.140 A 
ATOM     10  C   LIG    1       -0.783  -8.274   0.058  0.00  0.00    -0.040 A 
ATOM     11 CL   LIG    1        0.652  -9.108   0.566  0.00  0.00    +0.010 Cl
BRANCH   8  12
ATOM     12  C   LIG    1       -4.093  -8.934  -1.481  0.00  0.00    +0.250 C 
ATOM     13  N   LIG    1       -4.981  -9.471  -1.945  0.00  0.00    -0.380 NA
ENDBRANCH   8  12
ENDBRANCH   3   5
BRANCH   2  14
ATOM     14  C   LIG    1        1.328  -4.031   1.377  0.00  0.00    +0.240 C 
ATOM     15  C   LIG    1        2.486  -4.230   0.395  0.00  0.00    +0.010 C 
ATOM     16  C   LIG    1        2.087  -3.673  -0.973  0.00  0.00    +0.220 C 
ATOM     17  O   LIG    1        1.740  -2.293  -0.842  0.00  0.00    -0.370 OA
ATOM     18  C   LIG    1        0.632  -2.050   0.028  0.00  0.00    +0.200 C 
ATOM     19  C   LIG    1        0.974  -2.542   1.437  0.00  0.00    +0.030 C 
BRANCH  18  20
ATOM     20  C   LIG    1        0.341  -0.572   0.068  0.00  0.00    -0.100 A 
ATOM     21  C   LIG    1       -0.964  -0.128   0.181  0.00  0.00    +0.050 A 
ATOM     22  C   LIG    1       -1.233   1.227   0.218  0.00  0.00    -0.010 A 
ATOM     23  C   LIG    1       -0.195   2.140   0.143  0.00  0.00    +0.100 A 
ATOM     24  C   LIG    1        1.111   1.695   0.031  0.00  0.00    -0.020 A 
ATOM     25  F   LIG    1       -0.457   3.465   0.179  0.00  0.00    -0.140 F 
ATOM     26  C   LIG    1        1.377   0.339  -0.007  0.00  0.00    +0.080 A 
ENDBRANCH  18  20
ENDBRANCH   2  14
TORSDOF 4
