REMARK  Name = ZINCvU0000000AWB.0
REMARK                            x       y       z     vdW  Elec       q    Type
REMARK                         _______ _______ _______ _____ _____    ______ ____
ROOT
ATOM      1  C   LIG    1       -2.589   0.947  -0.449  0.00  0.00    +0.550 C 
ATOM      2  N   LIG    1       -3.709   1.629  -0.140  0.00  0.00    -0.600 N 
ATOM      3  C   LIG    1       -3.725   3.098  -0.175  0.00  0.00    +0.260 C 
ATOM      4  C   LIG    1       -4.225   3.622   1.170  0.00  0.00    +0.040 C 
ATOM      5  C   LIG    1       -5.582   2.989   1.491  0.00  0.00    +0.040 C 
ATOM      6  C   LIG    1       -6.085   3.530   2.832  0.00  0.00    +0.040 C 
ATOM      7  C   LIG    1       -5.070   3.195   3.927  0.00  0.00    +0.020 C 
ATOM      8  C   LIG    1       -4.903   1.677   4.021  0.00  0.00    +0.020 C 
ATOM      9  C   LIG    1       -4.408   1.132   2.679  0.00  0.00    +0.030 C 
ATOM     10 CL   LIG    1       -6.760   3.393   0.187  0.00  0.00    -0.180 Cl
ATOM     11  C   LIG    1       -5.426   1.470   1.588  0.00  0.00    +0.010 C 
ATOM     12  C   LIG    1       -4.937   0.920   0.244  0.00  0.00    +0.280 C 
ATOM     13  O   LIG    1       -2.619  -0.266  -0.526  0.00  0.00    -0.490 OA
ENDROOT
BRANCH   1  16
ATOM     14  C   LIG    1        1.074   1.771  -0.573  0.00  0.00    +0.150 A 
ATOM     15  C   LIG    1       -0.107   1.092  -0.337  0.00  0.00    -0.030 A 
ATOM     16  C   LIG    1       -1.327   1.671  -0.694  0.00  0.00    -0.050 A 
ATOM     17  C   LIG    1       -1.351   2.940  -1.279  0.00  0.00    -0.070 A 
ATOM     18  C   LIG    1       -0.167   3.615  -1.513  0.00  0.00    +0.150 A 
ATOM     19  C   LIG    1        1.048   3.033  -1.161  0.00  0.00    +0.050 A 
BRANCH  14  21
ATOM     20  C   LIG    1        2.215  -0.091   0.369  0.00  0.00    +0.250 C 
ATOM     21  O   LIG    1        2.263   1.206  -0.230  0.00  0.00    -0.300 OA
ENDBRANCH  14  21
BRANCH  18  22
ATOM     22  O   LIG    1       -0.189   4.848  -2.086  0.00  0.00    -0.300 OA
ATOM     23  C   LIG    1       -1.471   5.384  -2.422  0.00  0.00    +0.250 C 
ENDBRANCH  18  22
BRANCH  19  24
ATOM     24  O   LIG    1        2.210   3.698  -1.392  0.00  0.00    -0.310 OA
ATOM     25  C   LIG    1        2.842   3.480  -2.655  0.00  0.00    +0.240 C 
ENDBRANCH  19  24
ENDBRANCH   1  16
BRANCH  12  26
ATOM     26  C   LIG    1       -4.650  -0.553   0.373  0.00  0.00    -0.070 A 
ATOM     27  C   LIG    1       -3.654  -0.992   1.226  0.00  0.00    +0.060 A 
ATOM     28  C   LIG    1       -3.393  -2.344   1.347  0.00  0.00    -0.020 A 
ATOM     29  C   LIG    1       -4.122  -3.257   0.609  0.00  0.00    +0.000 A 
ATOM     30  C   LIG    1       -5.114  -2.819  -0.248  0.00  0.00    -0.010 A 
ATOM     31  C   LIG    1       -5.378  -1.467  -0.366  0.00  0.00    +0.000 A 
ENDBRANCH  12  26
TORSDOF 5
