REMARK  Name = ZINCrH000004qQ7H.0
REMARK                            x       y       z     vdW  Elec       q    Type
REMARK                         _______ _______ _______ _____ _____    ______ ____
ROOT
ATOM      1  C   LIG    1        1.367  -2.019   0.669  0.00  0.00    +0.500 C 
ATOM      2  O   LIG    1        0.284  -2.534   0.868  0.00  0.00    -0.550 OA
ENDROOT
BRANCH   1   3
ATOM      3  N   LIG    1        2.469  -2.763   0.679  0.00  0.00    -0.680 NA
ATOM      4  C   LIG    1        2.386  -4.073   0.907  0.00  0.00    +0.490 A 
ATOM      5  C   LIG    1        1.207  -4.806   1.153  0.00  0.00    -0.110 A 
ATOM      6  C   LIG    1        1.545  -6.102   1.335  0.00  0.00    +0.350 A 
ATOM      7  N   LIG    1        2.897  -6.227   1.216  0.00  0.00    -0.380 N 
ATOM      8  N   LIG    1        3.433  -4.961   0.941  0.00  0.00    -0.470 N 
ATOM      9  H   LIG    1        4.370  -4.751   0.803  0.00  0.00    +0.450 HD
BRANCH   7  10
ATOM     10  C   LIG    1        3.659  -7.472   1.345  0.00  0.00    +0.410 C 
BRANCH  10  11
ATOM     11  C   LIG    1        3.959  -7.728   2.799  0.00  0.00    -0.090 A 
ATOM     12  C   LIG    1        5.121  -7.242   3.380  0.00  0.00    -0.010 A 
ATOM     13  C   LIG    1        5.361  -7.493   4.718  0.00  0.00    +0.260 A 
ATOM     14  N   LIG    1        4.505  -8.193   5.437  0.00  0.00    -0.470 NA
ATOM     15  C   LIG    1        3.393  -8.675   4.917  0.00  0.00    +0.260 A 
ATOM     16  C   LIG    1        3.084  -8.460   3.587  0.00  0.00    -0.010 A 
ENDBRANCH  10  11
ENDBRANCH   7  10
ENDBRANCH   1   3
BRANCH   1  17
ATOM     17  C   LIG    1        1.461  -0.537   0.410  0.00  0.00    +0.250 C 
BRANCH  17  18
ATOM     18  O   LIG    1        0.153   0.037   0.451  0.00  0.00    -0.300 OA
BRANCH  18  22
ATOM     19  C   LIG    1       -2.618   4.036   0.065  0.00  0.00    +0.090 C 
ATOM     20  C   LIG    1       -1.272   3.359   0.040  0.00  0.00    -0.040 A 
ATOM     21  C   LIG    1       -1.180   1.998   0.255  0.00  0.00    -0.020 A 
ATOM     22  C   LIG    1        0.060   1.375   0.236  0.00  0.00    +0.130 A 
ATOM     23  C   LIG    1        1.204   2.121  -0.009  0.00  0.00    -0.080 A 
ATOM     24  C   LIG    1        1.106   3.482  -0.227  0.00  0.00    +0.050 A 
ATOM     25  C   LIG    1       -0.130   4.100  -0.203  0.00  0.00    -0.120 A 
BRANCH  25  26
ATOM     26  C   LIG    1       -0.234   5.585  -0.442  0.00  0.00    +0.020 C 
ATOM     27  C   LIG    1        0.449   5.937  -1.765  0.00  0.00    +0.040 C 
ATOM     28  C   LIG    1        0.453   6.334   0.702  0.00  0.00    +0.040 C 
ENDBRANCH  25  26
ENDBRANCH  18  22
ENDBRANCH  17  18
ENDBRANCH   1  17
TORSDOF 7
