REMARK  Name = ZINCrH000004pPcL.0
REMARK                            x       y       z     vdW  Elec       q    Type
REMARK                         _______ _______ _______ _____ _____    ______ ____
ROOT
ATOM      1  C   LIG    1       -4.681  -0.402   0.291  0.00  0.00    +0.030 A 
ATOM      2  C   LIG    1       -4.757   0.981   0.203  0.00  0.00    +0.030 A 
ATOM      3  C   LIG    1       -3.601   1.732   0.113  0.00  0.00    +0.030 A 
ATOM      4  C   LIG    1       -2.363   1.104   0.110  0.00  0.00    +0.180 A 
ATOM      5  C   LIG    1       -2.285  -0.280   0.192  0.00  0.00    -0.040 A 
ATOM      6  C   LIG    1       -3.441  -1.032   0.287  0.00  0.00    +0.150 A 
ATOM      7  F   LIG    1       -3.367  -2.378   0.372  0.00  0.00    -0.120 F 
ENDROOT
BRANCH   1  11
ATOM      8  C   LIG    1       -8.805  -1.707  -1.938  0.00  0.00    +0.060 C 
ATOM      9  C   LIG    1       -7.910  -1.911  -0.715  0.00  0.00    +0.160 C 
ATOM     10  C   LIG    1       -6.671  -1.019  -0.831  0.00  0.00    +0.170 C 
ATOM     11  N   LIG    1       -5.854  -1.163   0.382  0.00  0.00    -0.500 N 
ATOM     12  C   LIG    1       -6.627  -0.798   1.578  0.00  0.00    +0.170 C 
ATOM     13  C   LIG    1       -7.866  -1.692   1.670  0.00  0.00    +0.160 C 
ATOM     14  C   LIG    1       -8.717  -1.264   2.868  0.00  0.00    +0.050 C 
ATOM     15  O   LIG    1       -8.632  -1.563   0.470  0.00  0.00    -0.380 OA
ENDBRANCH   1  11
BRANCH   4  16
ATOM     16  N   LIG    1       -1.191   1.867   0.018  0.00  0.00    -0.680 N 
ATOM     17  H   LIG    1       -0.426   1.524  -0.471  0.00  0.00    +0.420 HD
ATOM     18  C   LIG    1       -1.125   3.076   0.609  0.00  0.00    +0.520 C 
ATOM     19  O   LIG    1       -2.107   3.541   1.149  0.00  0.00    -0.520 OA
BRANCH  18  20
ATOM     20  C   LIG    1        0.169   3.848   0.605  0.00  0.00    +0.070 C 
BRANCH  20  21
ATOM     21  C   LIG    1       -0.026   5.174   1.343  0.00  0.00    +0.100 C 
BRANCH  21  22
ATOM     22  C   LIG    1        1.268   5.946   1.339  0.00  0.00    -0.110 A 
ATOM     23  C   LIG    1        2.131   5.854   2.413  0.00  0.00    +0.030 A 
ATOM     24  C   LIG    1        3.319   6.563   2.410  0.00  0.00    +0.000 A 
ATOM     25  C   LIG    1        3.646   7.364   1.332  0.00  0.00    +0.020 A 
ATOM     26  C   LIG    1        2.785   7.460   0.255  0.00  0.00    -0.010 A 
ATOM     27  C   LIG    1        1.596   6.745   0.253  0.00  0.00    +0.110 A 
BRANCH  27  28
ATOM     28  O   LIG    1        0.751   6.833  -0.808  0.00  0.00    -0.500 OA
ATOM     29  H   LIG    1        0.099   7.543  -0.734  0.00  0.00    +0.390 HD
ENDBRANCH  27  28
ENDBRANCH  21  22
ENDBRANCH  20  21
ENDBRANCH  18  20
ENDBRANCH   4  16
TORSDOF 6
