REMARK  Name = ZINCvU0000000DzY.0
REMARK                            x       y       z     vdW  Elec       q    Type
REMARK                         _______ _______ _______ _____ _____    ______ ____
ROOT
ATOM      1  C   LIG    1        2.017   3.537  -1.568  0.00  0.00    +0.060 C 
ATOM      2  C   LIG    1        0.967   2.950  -0.622  0.00  0.00    +0.210 C 
ATOM      3  C   LIG    1        1.482   3.013   0.821  0.00  0.00    +0.290 C 
ATOM      4  N   LIG    1        0.373   2.692   1.730  0.00  0.00    -0.610 N 
ATOM      5  C   LIG    1       -0.869   3.472   1.635  0.00  0.00    +0.270 C 
ATOM      6  C   LIG    1       -1.382   3.413   0.196  0.00  0.00    +0.270 C 
ATOM      7  C   LIG    1        0.490   1.695   2.630  0.00  0.00    +0.560 C 
ATOM      8  O   LIG    1        1.515   1.045   2.688  0.00  0.00    -0.530 OA
ATOM      9  N   LIG    1       -0.272   3.734  -0.713  0.00  0.00    -0.610 N 
ATOM     10  C   LIG    1       -0.390   4.729  -1.614  0.00  0.00    +0.560 C 
ATOM     11  O   LIG    1        0.562   5.041  -2.302  0.00  0.00    -0.520 OA
ENDROOT
BRANCH   7  12
ATOM     12  C   LIG    1       -0.629   1.394   3.549  0.00  0.00    -0.140 A 
ATOM     13  C   LIG    1       -1.394   2.430   4.086  0.00  0.00    +0.040 A 
ATOM     14  C   LIG    1       -2.439   2.141   4.939  0.00  0.00    +0.000 A 
ATOM     15  C   LIG    1       -2.723   0.828   5.270  0.00  0.00    -0.040 A 
ATOM     16  C   LIG    1       -1.966  -0.204   4.744  0.00  0.00    +0.010 A 
ATOM     17  C   LIG    1       -0.921   0.071   3.886  0.00  0.00    +0.070 A 
BRANCH  15  18
ATOM     18  C   LIG    1       -3.863   0.521   6.207  0.00  0.00    -0.030 C 
ATOM     19  C   LIG    1       -4.886  -0.364   5.492  0.00  0.00    +0.040 C 
ATOM     20  C   LIG    1       -4.533   1.826   6.641  0.00  0.00    +0.030 C 
ATOM     21  C   LIG    1       -3.327  -0.212   7.439  0.00  0.00    +0.040 C 
ENDBRANCH  15  18
ENDBRANCH   7  12
BRANCH  10  22
ATOM     22  C   LIG    1       -1.677   5.442  -1.765  0.00  0.00    -0.140 A 
ATOM     23  C   LIG    1       -2.878   4.732  -1.736  0.00  0.00    +0.040 A 
ATOM     24  C   LIG    1       -4.076   5.404  -1.872  0.00  0.00    +0.000 A 
ATOM     25  C   LIG    1       -4.087   6.776  -2.048  0.00  0.00    -0.040 A 
ATOM     26  C   LIG    1       -2.899   7.485  -2.083  0.00  0.00    +0.010 A 
ATOM     27  C   LIG    1       -1.695   6.826  -1.943  0.00  0.00    +0.070 A 
BRANCH  25  28
ATOM     28  C   LIG    1       -5.398   7.502  -2.201  0.00  0.00    -0.030 C 
ATOM     29  C   LIG    1       -5.545   8.531  -1.079  0.00  0.00    +0.040 C 
ATOM     30  C   LIG    1       -6.549   6.497  -2.126  0.00  0.00    +0.030 C 
ATOM     31  C   LIG    1       -5.431   8.216  -3.554  0.00  0.00    +0.040 C 
ENDBRANCH  25  28
ENDBRANCH  10  22
TORSDOF 4
