REMARK  Name = ZINCkj000005iUYU.0
REMARK                            x       y       z     vdW  Elec       q    Type
REMARK                         _______ _______ _______ _____ _____    ______ ____
ROOT
ATOM      1  C   LIG    1        3.722  -3.312  -0.050  0.00  0.00    +0.390 C 
ENDROOT
BRANCH   1   2
ATOM      2  N   LIG    1        2.950  -2.066  -0.036  0.00  0.00    -0.450 N 
ATOM      3  N   LIG    1        1.553  -1.958  -0.023  0.00  0.00    -0.300 NA
ATOM      4  C   LIG    1        1.248  -0.682  -0.013  0.00  0.00    +0.320 A 
ATOM      5  C   LIG    1        0.002  -0.004   0.002  0.00  0.00    +0.020 A 
ATOM      6  C   LIG    1       -0.016   1.351   0.009  0.00  0.00    +0.140 A 
ATOM      7  C   LIG    1        1.197   2.070   0.002  0.00  0.00    -0.010 A 
ATOM      8  C   LIG    1        2.375   1.423  -0.013  0.00  0.00    +0.300 A 
ATOM      9  N   LIG    1        2.421   0.049  -0.021  0.00  0.00    -0.480 N 
ATOM     10  C   LIG    1        3.456  -0.816  -0.035  0.00  0.00    +0.650 A 
ATOM     11  O   LIG    1        4.638  -0.520  -0.044  0.00  0.00    -0.530 OA
ENDBRANCH   1   2
BRANCH   1  12
ATOM     12  C   LIG    1        4.004  -3.753   1.388  0.00  0.00    +0.250 C 
BRANCH  12  16
ATOM     13  C   LIG    1        5.243  -7.767   2.100  0.00  0.00    +0.020 C 
ATOM     14  C   LIG    1        6.027  -6.613   2.732  0.00  0.00    +0.090 C 
ATOM     15  C   LIG    1        5.152  -5.358   2.748  0.00  0.00    +0.270 C 
ATOM     16  N   LIG    1        4.777  -5.001   1.374  0.00  0.00    -0.380 N 
ATOM     17  C   LIG    1        3.964  -6.073   0.787  0.00  0.00    +0.260 C 
ATOM     18  H   LIG    1        5.612  -4.873   0.821  0.00  0.00    +0.430 HD
ATOM     19  C   LIG    1        4.793  -7.356   0.695  0.00  0.00    +0.070 C 
BRANCH  13  21
ATOM     20  C   LIG    1        5.174 -10.511   1.374  0.00  0.00    +0.140 C 
ATOM     21  S   LIG    1        6.304  -9.235   1.994  0.00  0.00    -0.220 S 
ENDBRANCH  13  21
ENDBRANCH  12  16
ENDBRANCH   1  12
TORSDOF 4
