REMARK  Name = ZINCrH000004lEOY.0
REMARK                            x       y       z     vdW  Elec       q    Type
REMARK                         _______ _______ _______ _____ _____    ______ ____
ROOT
ATOM      1  C   LIG    1       -0.906   3.441  -1.663  0.00  0.00    +0.490 C 
ATOM      2  N   LIG    1       -0.783   3.611  -2.995  0.00  0.00    -0.550 N 
ATOM      3  O   LIG    1       -0.170   4.037  -0.905  0.00  0.00    -0.480 OA
ENDROOT
BRANCH   2   4
ATOM      4  C   LIG    1        0.284   4.357  -3.509  0.00  0.00    +0.150 A 
ATOM      5  C   LIG    1        0.335   4.652  -4.866  0.00  0.00    +0.000 A 
ATOM      6  C   LIG    1        1.383   5.394  -5.378  0.00  0.00    +0.050 A 
ATOM      7  C   LIG    1        2.392   5.836  -4.548  0.00  0.00    +0.040 A 
ATOM      8  C   LIG    1        2.354   5.540  -3.183  0.00  0.00    -0.000 A 
ATOM      9  C   LIG    1        1.293   4.796  -2.666  0.00  0.00    +0.070 A 
BRANCH   8  10
ATOM     10  C   LIG    1        3.400   5.997  -2.319  0.00  0.00    +0.250 C 
ATOM     11  N   LIG    1        4.230   6.360  -1.633  0.00  0.00    -0.410 NA
ENDBRANCH   8  10
ENDBRANCH   2   4
BRANCH   1  12
ATOM     12  C   LIG    1       -1.958   2.511  -1.117  0.00  0.00    +0.170 C 
BRANCH  12  13
ATOM     13  C   LIG    1       -1.556   1.062  -1.401  0.00  0.00    -0.020 C 
ATOM     14  C   LIG    1       -2.619   0.085  -0.842  0.00  0.00    +0.030 C 
ATOM     15  C   LIG    1       -1.741  -1.048  -0.252  0.00  0.00    +0.210 C 
ATOM     16  O   LIG    1       -0.607  -0.343   0.297  0.00  0.00    -0.370 OA
ATOM     17  C   LIG    1       -0.270   0.700  -0.633  0.00  0.00    +0.210 C 
ENDBRANCH  12  13
BRANCH  12  19
ATOM     18  C   LIG    1       -2.993   3.739   0.663  0.00  0.00    +0.220 C 
ATOM     19  O   LIG    1       -2.079   2.704   0.294  0.00  0.00    -0.340 OA
ENDBRANCH  12  19
ENDBRANCH   1  12
BRANCH   2  20
ATOM     20  C   LIG    1       -1.765   3.014  -3.903  0.00  0.00    +0.350 C 
BRANCH  20  21
ATOM     21  C   LIG    1       -2.838   4.025  -4.216  0.00  0.00    -0.110 A 
ATOM     22  C   LIG    1       -3.900   4.197  -3.348  0.00  0.00    +0.030 A 
ATOM     23  C   LIG    1       -4.882   5.127  -3.632  0.00  0.00    +0.030 A 
ATOM     24  C   LIG    1       -4.808   5.879  -4.791  0.00  0.00    -0.030 A 
ATOM     25  C   LIG    1       -3.748   5.702  -5.663  0.00  0.00    +0.040 A 
ATOM     26 CL   LIG    1       -6.044   7.043  -5.152  0.00  0.00    -0.060 Cl
ATOM     27  C   LIG    1       -2.764   4.776  -5.375  0.00  0.00    +0.050 A 
ENDBRANCH  20  21
ENDBRANCH   2  20
TORSDOF 7
