REMARK  Name = ZINCqH0000007Hq1.0
REMARK                            x       y       z     vdW  Elec       q    Type
REMARK                         _______ _______ _______ _____ _____    ______ ____
ROOT
ATOM      1  C   LIG    1        1.140   2.151   0.003  0.00  0.00    +0.520 C 
ATOM      2  N   LIG    1       -0.018   1.461   0.010  0.00  0.00    -0.730 N 
ATOM      3  H   LIG    1       -0.864   1.934   0.017  0.00  0.00    +0.410 HD
ATOM      4  O   LIG    1        2.199   1.558  -0.011  0.00  0.00    -0.510 OA
ENDROOT
BRANCH   2   5
ATOM      5  C   LIG    1        0.002  -0.004   0.002  0.00  0.00    +0.350 C 
ATOM      6  C   LIG    1        0.148  -0.520   1.435  0.00  0.00    +0.040 C 
BRANCH   5   7
ATOM      7  C   LIG    1       -1.284  -0.521  -0.589  0.00  0.00    +0.020 A 
ATOM      8  C   LIG    1       -1.381  -1.567  -1.421  0.00  0.00    -0.030 A 
ATOM      9  C   LIG    1       -2.807  -1.708  -1.737  0.00  0.00    -0.130 A 
ATOM     10  C   LIG    1       -3.547  -2.584  -2.529  0.00  0.00    +0.060 A 
ATOM     11  C   LIG    1       -4.915  -2.436  -2.612  0.00  0.00    -0.010 A 
ATOM     12  C   LIG    1       -5.552  -1.423  -1.912  0.00  0.00    +0.050 A 
ATOM     13  C   LIG    1       -4.832  -0.550  -1.125  0.00  0.00    +0.020 A 
ATOM     14  C   LIG    1       -3.452  -0.681  -1.028  0.00  0.00    +0.060 A 
ATOM     15  O   LIG    1       -2.502  -0.002  -0.353  0.00  0.00    -0.190 OA
ENDBRANCH   5   7
ENDBRANCH   2   5
BRANCH   1  16
ATOM     16  C   LIG    1        1.120   3.657   0.011  0.00  0.00    +0.210 C 
BRANCH  16  17
ATOM     17  O   LIG    1        2.460   4.152   0.001  0.00  0.00    -0.280 OA
BRANCH  17  23
ATOM     18  C   LIG    1        2.696   6.201  -1.193  0.00  0.00    +0.150 A 
ATOM     19  C   LIG    1        2.854   7.579  -1.183  0.00  0.00    -0.100 A 
ATOM     20  C   LIG    1        2.946   8.257   0.018  0.00  0.00    +0.090 A 
ATOM     21  C   LIG    1        2.877   7.566   1.214  0.00  0.00    -0.100 A 
ATOM     22  C   LIG    1        2.714   6.189   1.212  0.00  0.00    +0.150 A 
ATOM     23  C   LIG    1        2.620   5.503   0.007  0.00  0.00    +0.020 A 
BRANCH  18  25
ATOM     24  C   LIG    1        2.697   6.316  -3.568  0.00  0.00    +0.240 C 
ATOM     25  O   LIG    1        2.611   5.534  -2.375  0.00  0.00    -0.300 OA
ENDBRANCH  18  25
BRANCH  22  26
ATOM     26  O   LIG    1        2.645   5.510   2.388  0.00  0.00    -0.300 OA
ATOM     27  C   LIG    1        2.748   6.279   3.588  0.00  0.00    +0.240 C 
ENDBRANCH  22  26
ENDBRANCH  17  23
ENDBRANCH  16  17
ENDBRANCH   1  16
TORSDOF 7
