REMARK  Name = ZINCah0000002qqz.0
REMARK                            x       y       z     vdW  Elec       q    Type
REMARK                         _______ _______ _______ _____ _____    ______ ____
ROOT
ATOM      1  C   LIG    1        0.191   1.164   2.483  0.00  0.00    +0.030 C 
ATOM      2  C   LIG    1       -0.681   1.554   1.288  0.00  0.00    -0.020 C 
ATOM      3  C   LIG    1       -2.060   0.917   1.447  0.00  0.00    +0.050 C 
ATOM      4  C   LIG    1       -3.065   1.751   0.681  0.00  0.00    +0.520 C 
ATOM      5  N   LIG    1       -3.062   1.748  -0.653  0.00  0.00    -0.730 N 
ATOM      6  H   LIG    1       -3.706   2.288  -1.137  0.00  0.00    +0.400 HD
ATOM      7  C   LIG    1       -2.088   0.930  -1.394  0.00  0.00    +0.280 C 
ATOM      8  C   LIG    1       -0.705   1.568  -1.254  0.00  0.00    -0.030 C 
ATOM      9  C   LIG    1        0.147   1.195  -2.469  0.00  0.00    +0.030 C 
ATOM     10  O   LIG    1       -3.874   2.425   1.282  0.00  0.00    -0.550 OA
ATOM     11  C   LIG    1       -0.013   1.086   0.008  0.00  0.00    +0.030 C 
ENDROOT
TORSDOF 0
