REMARK  Name = ZINCrH000004u6yH.0
REMARK                            x       y       z     vdW  Elec       q    Type
REMARK                         _______ _______ _______ _____ _____    ______ ____
ROOT
ATOM      1  C   LIG    1        1.503   0.115  -4.527  0.00  0.00    -0.060 A 
ATOM      2  C   LIG    1        1.171  -0.130  -3.212  0.00  0.00    +0.160 A 
ATOM      3  C   LIG    1        2.362  -0.121  -2.479  0.00  0.00    -0.760 A 
ATOM      4  C   LIG    1        3.379   0.115  -3.342  0.00  0.00    +0.350 A 
ATOM      5  N   LIG    1        2.870   0.260  -4.590  0.00  0.00    -0.530 N 
ATOM      6  H   LIG    1        3.384   0.437  -5.393  0.00  0.00    +0.420 HD
ENDROOT
BRANCH   1   8
ATOM      7  O   LIG    1       -0.624   0.052  -5.470  0.00  0.00    -0.520 OA
ATOM      8  C   LIG    1        0.569   0.199  -5.655  0.00  0.00    +0.590 C 
ATOM      9  N   LIG    1        1.034   0.439  -6.898  0.00  0.00    -0.730 N 
ATOM     10  H   LIG    1        1.985   0.557  -7.045  0.00  0.00    +0.390 HD
BRANCH   9  11
ATOM     11  C   LIG    1        0.102   0.523  -8.025  0.00  0.00    +0.240 C 
ATOM     12  C   LIG    1       -0.179  -0.883  -8.560  0.00  0.00    +0.000 C 
ATOM     13  C   LIG    1       -1.424  -0.850  -9.448  0.00  0.00    +0.010 C 
ATOM     14  C   LIG    1       -2.511  -0.011  -8.774  0.00  0.00    +0.010 C 
ATOM     15  C   LIG    1       -2.755   1.259  -9.592  0.00  0.00    +0.000 C 
ATOM     16  C   LIG    1       -1.614   2.249  -9.349  0.00  0.00    +0.000 C 
ATOM     17  C   LIG    1       -0.373   1.797 -10.121  0.00  0.00    +0.030 C 
ATOM     18  C   LIG    1        0.719   1.377  -9.134  0.00  0.00    +0.010 C 
ENDBRANCH   9  11
ENDBRANCH   1   8
BRANCH   3  19
ATOM     19  S   LIG    1        2.513  -0.378  -0.742  0.00  0.00    +2.720 S 
ATOM     20  O   LIG    1        1.361  -1.108  -0.343  0.00  0.00    -0.940 OA
ATOM     21  O   LIG    1        3.840  -0.835  -0.518  0.00  0.00    -0.950 OA
BRANCH  19  22
ATOM     22  N   LIG    1        2.401   1.106  -0.015  0.00  0.00    -1.050 N 
ATOM     23  H   LIG    1        3.138   1.441   0.519  0.00  0.00    +0.430 HD
BRANCH  22  24
ATOM     24  C   LIG    1        1.244   1.876  -0.172  0.00  0.00    +0.130 A 
ATOM     25  C   LIG    1        0.003   1.259  -0.241  0.00  0.00    +0.030 A 
ATOM     26  C   LIG    1       -1.138   2.022  -0.402  0.00  0.00    +0.040 A 
ATOM     27  C   LIG    1       -1.046   3.399  -0.483  0.00  0.00    +0.040 A 
ATOM     28  C   LIG    1        0.189   4.018  -0.414  0.00  0.00    +0.010 A 
ATOM     29  C   LIG    1        1.335   3.261  -0.259  0.00  0.00    +0.080 A 
ATOM     30  F   LIG    1        2.541   3.866  -0.192  0.00  0.00    -0.140 F 
ENDBRANCH  22  24
ENDBRANCH  19  22
ENDBRANCH   3  19
TORSDOF 5
