REMARK  Name = ZINCpk00000xWecQ.0
REMARK                            x       y       z     vdW  Elec       q    Type
REMARK                         _______ _______ _______ _____ _____    ______ ____
ROOT
ATOM      1  N   LIG    1        2.329  -2.268  -2.811  0.00  0.00    -0.730 N 
ATOM      2  H   LIG    1        2.795  -2.166  -1.966  0.00  0.00    +0.400 HD
ATOM      3  C   LIG    1        3.029  -2.467  -3.946  0.00  0.00    +0.700 C 
ATOM      4  N   LIG    1        4.375  -2.527  -3.906  0.00  0.00    -0.680 N 
ATOM      5  H   LIG    1        4.837  -2.496  -3.054  0.00  0.00    +0.410 HD
ATOM      6  O   LIG    1        2.446  -2.594  -5.005  0.00  0.00    -0.570 OA
ENDROOT
BRANCH   4   7
ATOM      7  C   LIG    1        5.107  -2.633  -5.096  0.00  0.00    +0.170 A 
ATOM      8  C   LIG    1        6.297  -3.348  -5.118  0.00  0.00    +0.000 A 
ATOM      9  C   LIG    1        7.017  -3.457  -6.292  0.00  0.00    +0.050 A 
ATOM     10  C   LIG    1        6.560  -2.844  -7.449  0.00  0.00    +0.030 A 
ATOM     11  O   LIG    1        7.288  -2.955  -8.595  0.00  0.00    -0.310 OA
ATOM     12  C   LIG    1        6.612  -2.645  -9.819  0.00  0.00    +0.220 C 
ATOM     13  C   LIG    1        5.840  -1.333  -9.622  0.00  0.00    +0.220 C 
ATOM     14  O   LIG    1        4.903  -1.520  -8.556  0.00  0.00    -0.300 OA
ATOM     15  C   LIG    1        5.371  -2.124  -7.429  0.00  0.00    +0.070 A 
ATOM     16  C   LIG    1        4.646  -2.019  -6.252  0.00  0.00    +0.030 A 
ENDBRANCH   4   7
BRANCH   1  17
ATOM     17  C   LIG    1        0.867  -2.203  -2.855  0.00  0.00    +0.290 C 
BRANCH  17  19
ATOM     18  C   LIG    1        0.646  -2.998  -0.496  0.00  0.00    +0.040 C 
ATOM     19  C   LIG    1        0.330  -1.856  -1.464  0.00  0.00    +0.100 C 
ATOM     20  C   LIG    1       -1.185  -1.654  -1.538  0.00  0.00    +0.030 C 
BRANCH  19  21
ATOM     21  N   LIG    1        0.966  -0.620  -0.988  0.00  0.00    -0.550 NA
ATOM     22  C   LIG    1        0.730   0.484  -1.921  0.00  0.00    +0.220 C 
ATOM     23  C   LIG    1        1.734   1.611  -1.658  0.00  0.00    -0.220 C 
ATOM     24  S   LIG    1        1.476   2.233   0.032  0.00  0.00    +1.230 S 
ATOM     25  C   LIG    1        1.516   0.697   1.007  0.00  0.00    -0.220 C 
ATOM     26  O   LIG    1        2.570   3.059   0.405  0.00  0.00    -0.850 OA
ATOM     27  C   LIG    1        0.541  -0.304   0.377  0.00  0.00    +0.220 C 
ENDBRANCH  19  21
ENDBRANCH  17  19
ENDBRANCH   1  17
TORSDOF 4
