REMARK  Name = ZINCrH00000No4Ae.0
REMARK                            x       y       z     vdW  Elec       q    Type
REMARK                         _______ _______ _______ _____ _____    ______ ____
ROOT
ATOM      1  C   LIG    1       -6.222   1.665   0.041  0.00  0.00    -0.100 A 
ATOM      2  C   LIG    1       -6.238   3.061   0.054  0.00  0.00    +0.040 A 
ATOM      3  C   LIG    1       -7.442   3.733   0.058  0.00  0.00    +0.120 A 
ATOM      4  C   LIG    1       -8.632   3.028   0.060  0.00  0.00    -0.650 A 
ATOM      5  C   LIG    1       -8.623   1.644   0.052  0.00  0.00    +0.120 A 
ATOM      6  C   LIG    1       -7.426   0.959   0.042  0.00  0.00    +0.070 A 
ENDROOT
BRANCH   4   7
ATOM      7  S   LIG    1      -10.166   3.895   0.071  0.00  0.00    +2.690 S 
ATOM      8  O   LIG    1      -11.133   3.008  -0.474  0.00  0.00    -0.950 OA
ATOM      9  O   LIG    1       -9.902   5.183  -0.467  0.00  0.00    -0.950 OA
BRANCH   7  10
ATOM     10  N   LIG    1      -10.586   4.128   1.656  0.00  0.00    -1.000 NA
ATOM     11  C   LIG    1      -11.403   3.135   2.367  0.00  0.00    +0.290 C 
ATOM     12  C   LIG    1      -10.671   2.733   3.657  0.00  0.00    +0.010 C 
ATOM     13  C   LIG    1      -10.358   3.990   4.472  0.00  0.00    +0.020 C 
ATOM     14  C   LIG    1       -9.440   4.909   3.664  0.00  0.00    +0.010 C 
ATOM     15  C   LIG    1      -10.153   5.333   2.376  0.00  0.00    +0.290 C 
ENDBRANCH   7  10
ENDBRANCH   4   7
BRANCH   1  16
ATOM     16  C   LIG    1       -4.934   0.936   0.030  0.00  0.00    +0.420 C 
ATOM     17  O   LIG    1       -4.923  -0.281   0.024  0.00  0.00    -0.450 OA
BRANCH  16  19
ATOM     18  C   LIG    1       -2.499   1.014   0.019  0.00  0.00    +0.140 C 
ATOM     19  C   LIG    1       -3.674   1.679   0.029  0.00  0.00    -0.100 C 
BRANCH  18  24
ATOM     20  C   LIG    1        1.175   1.786   0.000  0.00  0.00    +0.130 A 
ATOM     21  C   LIG    1        1.155   3.175   0.008  0.00  0.00    -0.060 A 
ATOM     22  C   LIG    1       -0.050   3.856   0.023  0.00  0.00    +0.050 A 
ATOM     23  C   LIG    1       -1.240   3.160   0.031  0.00  0.00    +0.000 A 
ATOM     24  C   LIG    1       -1.231   1.761   0.017  0.00  0.00    -0.050 A 
ATOM     25  C   LIG    1       -0.013   1.076   0.008  0.00  0.00    +0.020 A 
BRANCH  20  27
ATOM     26  C   LIG    1        3.549   1.921  -0.021  0.00  0.00    +0.250 C 
ATOM     27  O   LIG    1        2.362   1.125  -0.015  0.00  0.00    -0.320 OA
ENDBRANCH  20  27
ENDBRANCH  18  24
ENDBRANCH  16  19
ENDBRANCH   1  16
TORSDOF 6
