REMARK  Name = ZINCqH0000000q9d.0
REMARK                            x       y       z     vdW  Elec       q    Type
REMARK                         _______ _______ _______ _____ _____    ______ ____
ROOT
ATOM      1  C   LIG    1       -3.142   7.039  -5.040  0.00  0.00    +0.130 A 
ATOM      2  C   LIG    1       -3.247   6.013  -5.904  0.00  0.00    -0.110 A 
ATOM      3  S   LIG    1       -2.680   4.553  -5.098  0.00  0.00    +0.210 S 
ATOM      4  C   LIG    1       -2.348   5.485  -3.642  0.00  0.00    +0.270 A 
ATOM      5  N   LIG    1       -2.665   6.726  -3.843  0.00  0.00    -0.500 NA
ENDROOT
BRANCH   1   9
ATOM      6  C   LIG    1       -4.275  11.005  -6.069  0.00  0.00    -0.080 A 
ATOM      7  C   LIG    1       -3.778  10.736  -4.806  0.00  0.00    +0.020 A 
ATOM      8  C   LIG    1       -3.408   9.451  -4.467  0.00  0.00    +0.050 A 
ATOM      9  C   LIG    1       -3.537   8.422  -5.399  0.00  0.00    -0.020 A 
ATOM     10  C   LIG    1       -4.033   8.700  -6.671  0.00  0.00    +0.030 A 
ATOM     11  C   LIG    1       -4.405   9.989  -6.998  0.00  0.00    +0.020 A 
BRANCH   6  12
ATOM     12  C   LIG    1       -4.676  12.411  -6.434  0.00  0.00    +0.070 C 
BRANCH  12  13
ATOM     13  C   LIG    1       -3.474  13.147  -7.029  0.00  0.00    +0.260 C 
BRANCH  13  16
ATOM     14  C   LIG    1       -3.362  16.758  -8.293  0.00  0.00    +0.110 C 
ATOM     15  C   LIG    1       -2.961  15.352  -7.928  0.00  0.00    +0.510 C 
ATOM     16  N   LIG    1       -3.864  14.513  -7.383  0.00  0.00    -0.730 N 
ATOM     17  H   LIG    1       -4.773  14.815  -7.226  0.00  0.00    +0.400 HD
ATOM     18  O   LIG    1       -1.825  14.976  -8.125  0.00  0.00    -0.550 OA
ENDBRANCH  13  16
ENDBRANCH  12  13
ENDBRANCH   6  12
ENDBRANCH   1   9
BRANCH   4  19
ATOM     19  N   LIG    1       -1.832   4.970  -2.459  0.00  0.00    -0.620 N 
ATOM     20  H   LIG    1       -1.679   5.555  -1.700  0.00  0.00    +0.430 HD
ATOM     21  C   LIG    1       -1.544   3.656  -2.365  0.00  0.00    +0.520 C 
ATOM     22  O   LIG    1       -1.736   2.924  -3.312  0.00  0.00    -0.500 OA
BRANCH  21  23
ATOM     23  C   LIG    1       -0.985   3.097  -1.081  0.00  0.00    +0.010 C 
ATOM     24  C   LIG    1       -1.983   3.316   0.058  0.00  0.00    +0.080 C 
ATOM     25  C   LIG    1       -1.560   2.540   1.271  0.00  0.00    -0.050 C 
ATOM     26  C   LIG    1       -0.710   1.567   1.247  0.00  0.00    -0.040 C 
ATOM     27  C   LIG    1       -0.013   1.086   0.008  0.00  0.00    +0.070 C 
ATOM     28  C   LIG    1       -0.747   1.590  -1.236  0.00  0.00    +0.060 C 
ENDBRANCH  21  23
ENDBRANCH   4  19
TORSDOF 6
