REMARK  Name = ZINCtV00000vo1iJ.0
REMARK                            x       y       z     vdW  Elec       q    Type
REMARK                         _______ _______ _______ _____ _____    ______ ____
ROOT
ATOM      1  C   LIG    1        3.522   8.940  -0.964  0.00  0.00    +0.060 A 
ATOM      2  N   LIG    1        2.720   7.937  -1.092  0.00  0.00    -0.450 NA
ATOM      3  C   LIG    1        2.279   7.375   0.016  0.00  0.00    +0.080 A 
ATOM      4  C   LIG    1        2.731   7.939   1.140  0.00  0.00    -0.040 A 
ATOM      5  S   LIG    1        3.796   9.268   0.691  0.00  0.00    +0.170 S 
ENDROOT
BRANCH   1   6
ATOM      6  C   LIG    1        4.128   9.710  -2.108  0.00  0.00    +0.180 C 
BRANCH   6   9
ATOM      7  N   LIG    1        3.562  11.685  -3.486  0.00  0.00    -0.670 N 
ATOM      8  H   LIG    1        4.422  11.588  -3.925  0.00  0.00    +0.410 HD
ATOM      9  C   LIG    1        3.221  10.854  -2.482  0.00  0.00    +0.520 C 
ATOM     10  O   LIG    1        2.183  11.026  -1.878  0.00  0.00    -0.510 OA
BRANCH   7  15
ATOM     11  C   LIG    1       -0.030  15.748  -5.151  0.00  0.00    +0.090 C 
ATOM     12  C   LIG    1        0.924  14.669  -4.709  0.00  0.00    -0.100 A 
ATOM     13  C   LIG    1        0.996  14.316  -3.374  0.00  0.00    +0.030 A 
ATOM     14  C   LIG    1        1.870  13.328  -2.965  0.00  0.00    +0.030 A 
ATOM     15  C   LIG    1        2.676  12.687  -3.897  0.00  0.00    +0.130 A 
ATOM     16  C   LIG    1        2.605  13.047  -5.236  0.00  0.00    -0.010 A 
ATOM     17  C   LIG    1        1.725  14.033  -5.639  0.00  0.00    +0.030 A 
ENDBRANCH   7  15
ENDBRANCH   6   9
ENDBRANCH   1   6
BRANCH   3  18
ATOM     18  C   LIG    1        1.337   6.199   0.014  0.00  0.00    +0.170 C 
BRANCH  18  19
ATOM     19  S   LIG    1        2.293   4.662   0.004  0.00  0.00    +0.050 S 
BRANCH  19  20
ATOM     20  C   LIG    1        0.981   3.486   0.004  0.00  0.00    +0.050 A 
ATOM     21  N   LIG    1        1.130   2.196  -0.002  0.00  0.00    -0.440 NA
ATOM     22  C   LIG    1        0.018   1.462  -0.001  0.00  0.00    +0.120 A 
ATOM     23  C   LIG    1       -1.130   2.160   0.002  0.00  0.00    -0.050 A 
ATOM     24  S   LIG    1       -0.736   3.877   0.013  0.00  0.00    +0.090 S 
BRANCH  22  25
ATOM     25  C   LIG    1        0.047  -0.020  -0.008  0.00  0.00    -0.030 A 
ATOM     26  C   LIG    1       -1.146  -0.743  -0.000  0.00  0.00    +0.020 A 
ATOM     27  C   LIG    1       -1.113  -2.122  -0.012  0.00  0.00    +0.010 A 
ATOM     28  C   LIG    1        0.099  -2.788  -0.020  0.00  0.00    +0.020 A 
ATOM     29  C   LIG    1        1.285  -2.077  -0.022  0.00  0.00    +0.010 A 
ATOM     30  C   LIG    1        1.265  -0.697  -0.016  0.00  0.00    +0.050 A 
ENDBRANCH  22  25
ENDBRANCH  19  20
ENDBRANCH  18  19
ENDBRANCH   3  18
TORSDOF 7
