REMARK  Name = ZINCrD000000fAsH.0
REMARK                            x       y       z     vdW  Elec       q    Type
REMARK                         _______ _______ _______ _____ _____    ______ ____
ROOT
ATOM      1  C   LIG    1       -3.772   1.219   4.784  0.00  0.00    -0.110 A 
ATOM      2  C   LIG    1       -4.507   2.404   4.856  0.00  0.00    +0.050 A 
ATOM      3  C   LIG    1       -5.101   2.776   6.045  0.00  0.00    +0.050 A 
ATOM      4  C   LIG    1       -4.971   1.979   7.168  0.00  0.00    -0.040 A 
ATOM      5  C   LIG    1       -4.240   0.796   7.106  0.00  0.00    +0.150 A 
ATOM      6 CL   LIG    1       -5.722   2.455   8.659  0.00  0.00    -0.050 Cl
ATOM      7  C   LIG    1       -3.645   0.412   5.915  0.00  0.00    +0.120 A 
ENDROOT
BRANCH   1  10
ATOM      8  N   LIG    1       -3.264   1.597   2.419  0.00  0.00    -0.720 N 
ATOM      9  H   LIG    1       -3.774   2.420   2.468  0.00  0.00    +0.400 HD
ATOM     10  C   LIG    1       -3.135   0.818   3.512  0.00  0.00    +0.560 C 
ATOM     11  O   LIG    1       -2.496  -0.214   3.451  0.00  0.00    -0.520 OA
BRANCH   8  17
ATOM     12  C   LIG    1       -1.550   2.817  -3.490  0.00  0.00    +0.090 C 
ATOM     13  C   LIG    1       -0.745   2.435  -2.274  0.00  0.00    +0.510 C 
ATOM     14  N   LIG    1       -1.313   1.709  -1.291  0.00  0.00    -0.620 N 
ATOM     15  C   LIG    1       -0.511   1.224  -0.160  0.00  0.00    +0.280 C 
ATOM     16  C   LIG    1       -1.174   1.671   1.147  0.00  0.00    +0.010 C 
ATOM     17  C   LIG    1       -2.633   1.199   1.158  0.00  0.00    +0.240 C 
ATOM     18  C   LIG    1       -3.388   1.834  -0.012  0.00  0.00    +0.030 C 
ATOM     19  C   LIG    1       -2.747   1.388  -1.330  0.00  0.00    +0.290 C 
ATOM     20  O   LIG    1        0.414   2.780  -2.181  0.00  0.00    -0.540 OA
ENDBRANCH   8  17
ENDBRANCH   1  10
BRANCH   5  21
ATOM     21  N   LIG    1       -4.112  -0.007   8.244  0.00  0.00    -0.670 N 
ATOM     22  H   LIG    1       -4.845  -0.074   8.876  0.00  0.00    +0.410 HD
ATOM     23  C   LIG    1       -2.970  -0.689   8.462  0.00  0.00    +0.600 C 
ATOM     24  O   LIG    1       -2.083  -0.674   7.628  0.00  0.00    -0.500 OA
BRANCH  23  25
ATOM     25  C   LIG    1       -2.795  -1.448   9.704  0.00  0.00    -0.280 A 
ATOM     26  C   LIG    1       -1.688  -2.175  10.039  0.00  0.00    +0.120 A 
ATOM     27  C   LIG    1       -1.792  -2.789  11.265  0.00  0.00    +0.000 A 
ATOM     28  C   LIG    1       -2.942  -2.572  11.913  0.00  0.00    -0.050 A 
ATOM     29  S   LIG    1       -3.974  -1.562  11.004  0.00  0.00    +0.200 S 
ENDBRANCH  23  25
ENDBRANCH   5  21
TORSDOF 4
