REMARK  Name = ZINCrD000000AEN6.0
REMARK                            x       y       z     vdW  Elec       q    Type
REMARK                         _______ _______ _______ _____ _____    ______ ____
ROOT
ATOM      1  O   LIG    1       -2.365  -2.362   2.542  0.00  0.00    -0.530 OA
ATOM      2  C   LIG    1       -1.418  -2.068   1.844  0.00  0.00    +0.500 C 
ATOM      3  N   LIG    1       -1.467  -0.967   1.069  0.00  0.00    -0.720 N 
ATOM      4  H   LIG    1       -0.709  -0.732   0.511  0.00  0.00    +0.400 HD
ENDROOT
BRANCH   3   5
ATOM      5  C   LIG    1       -2.666  -0.125   1.068  0.00  0.00    +0.300 C 
BRANCH   5   6
ATOM      6  C   LIG    1       -2.510   0.985   0.026  0.00  0.00    -0.060 C 
ATOM      7  C   LIG    1       -3.541   2.117   0.169  0.00  0.00    +0.050 C 
ATOM      8  C   LIG    1       -2.544   2.798   1.122  0.00  0.00    +0.010 C 
ATOM      9  C   LIG    1       -1.436   2.024   0.390  0.00  0.00    +0.030 C 
BRANCH   6  10
ATOM     10  C   LIG    1       -2.386   0.455  -1.379  0.00  0.00    -0.050 A 
ATOM     11  C   LIG    1       -3.359  -0.385  -1.889  0.00  0.00    +0.030 A 
ATOM     12  C   LIG    1       -3.248  -0.868  -3.179  0.00  0.00    +0.040 A 
ATOM     13  C   LIG    1       -2.162  -0.514  -3.959  0.00  0.00    -0.090 A 
ATOM     14  C   LIG    1       -1.186   0.322  -3.447  0.00  0.00    +0.040 A 
ATOM     15 BR   LIG    1       -2.010  -1.174  -5.724  0.00  0.00    -0.050 Br
ATOM     16  C   LIG    1       -1.297   0.804  -2.156  0.00  0.00    +0.020 A 
ENDBRANCH   6  10
ENDBRANCH   5   6
ENDBRANCH   3   5
BRANCH   2  17
ATOM     17  C   LIG    1       -0.184  -2.934   1.845  0.00  0.00    +0.370 C 
BRANCH  17  18
ATOM     18  N   LIG    1       -0.379  -4.059   2.763  0.00  0.00    -0.420 N 
ATOM     19  N   LIG    1        0.002  -3.920   4.098  0.00  0.00    -0.230 NA
ATOM     20  C   LIG    1       -0.145  -4.871   4.972  0.00  0.00    +0.320 A 
ATOM     21  C   LIG    1       -0.717  -6.155   4.567  0.00  0.00    -0.070 A 
ATOM     22  C   LIG    1       -0.886  -7.204   5.473  0.00  0.00    +0.050 A 
ATOM     23  C   LIG    1       -1.429  -8.394   5.042  0.00  0.00    +0.050 A 
ATOM     24  C   LIG    1       -1.811  -8.562   3.717  0.00  0.00    +0.030 A 
ATOM     25  C   LIG    1       -1.654  -7.541   2.805  0.00  0.00    +0.080 A 
ATOM     26  C   LIG    1       -1.107  -6.328   3.219  0.00  0.00    -0.120 A 
ATOM     27  C   LIG    1       -0.915  -5.205   2.292  0.00  0.00    +0.540 A 
ATOM     28  O   LIG    1       -1.236  -5.305   1.122  0.00  0.00    -0.520 OA
ENDBRANCH  17  18
ENDBRANCH   2  17
TORSDOF 5
