REMARK  Name = ZINCtj0000000HWO.0
REMARK                            x       y       z     vdW  Elec       q    Type
REMARK                         _______ _______ _______ _____ _____    ______ ____
ROOT
ATOM      1  C   LIG    1       -1.053  -0.798  -0.474  0.00  0.00    -0.170 A 
ATOM      2  C   LIG    1       -1.407  -0.781  -1.808  0.00  0.00    +0.510 A 
ATOM      3  N   LIG    1       -2.440  -1.580  -2.239  0.00  0.00    -0.530 N 
ATOM      4  C   LIG    1       -3.106  -2.360  -1.368  0.00  0.00    +0.710 A 
ATOM      5  N   LIG    1       -2.779  -2.385  -0.064  0.00  0.00    -0.660 N 
ATOM      6  H   LIG    1       -3.275  -2.957   0.544  0.00  0.00    +0.440 HD
ATOM      7  O   LIG    1       -4.021  -3.054  -1.768  0.00  0.00    -0.520 OA
ATOM      8  C   LIG    1       -1.771  -1.627   0.409  0.00  0.00    +0.580 A 
ATOM      9  O   LIG    1       -1.483  -1.657   1.593  0.00  0.00    -0.520 OA
ENDROOT
BRANCH   1  10
ATOM     10  N   LIG    1        0.007   0.005  -0.002  0.00  0.00    -0.500 N 
ATOM     11  C   LIG    1        1.130  -0.572   0.475  0.00  0.00    +0.510 C 
ATOM     12  O   LIG    1        1.268  -1.775   0.411  0.00  0.00    -0.510 OA
BRANCH  10  14
ATOM     13  C   LIG    1       -0.833   1.943   1.232  0.00  0.00    +0.040 C 
ATOM     14  C   LIG    1       -0.112   1.465  -0.030  0.00  0.00    +0.270 C 
ENDBRANCH  10  14
BRANCH  11  15
ATOM     15  C   LIG    1        2.211   0.279   1.089  0.00  0.00    +0.280 C 
BRANCH  15  16
ATOM     16  N   LIG    1        3.319  -0.579   1.529  0.00  0.00    -0.370 N 
ATOM     17  C   LIG    1        2.856  -1.458   2.609  0.00  0.00    +0.250 C 
ATOM     18  C   LIG    1        3.983  -2.410   3.016  0.00  0.00    +0.060 C 
ATOM     19  C   LIG    1        5.184  -1.593   3.500  0.00  0.00    +0.030 C 
ATOM     20  C   LIG    1        5.612  -0.627   2.392  0.00  0.00    +0.060 C 
ATOM     21  C   LIG    1        4.425   0.259   2.009  0.00  0.00    +0.170 C 
ATOM     22  C   LIG    1        4.848   1.227   0.901  0.00  0.00    +0.080 C 
ATOM     23  H   LIG    1        3.637  -1.140   0.753  0.00  0.00    +0.430 HD
ENDBRANCH  15  16
ENDBRANCH  11  15
ENDBRANCH   1  10
BRANCH   2  24
ATOM     24  N   LIG    1       -0.730   0.020  -2.696  0.00  0.00    -0.830 N 
ATOM     25  H   LIG    1       -0.935  -0.025  -3.643  0.00  0.00    +0.410 HD
ATOM     26  H   LIG    1       -0.048   0.631  -2.376  0.00  0.00    +0.420 HD
ENDBRANCH   2  24
BRANCH   3  27
ATOM     27  C   LIG    1       -2.822  -1.577  -3.653  0.00  0.00    +0.380 C 
BRANCH  27  28
ATOM     28  C   LIG    1       -3.867  -0.517  -3.889  0.00  0.00    -0.130 A 
ATOM     29  C   LIG    1       -5.208  -0.830  -3.772  0.00  0.00    +0.050 A 
ATOM     30  C   LIG    1       -6.166   0.143  -3.984  0.00  0.00    +0.010 A 
ATOM     31  C   LIG    1       -5.784   1.428  -4.322  0.00  0.00    +0.030 A 
ATOM     32  C   LIG    1       -4.443   1.740  -4.444  0.00  0.00    +0.010 A 
ATOM     33  C   LIG    1       -3.484   0.768  -4.228  0.00  0.00    +0.020 A 
ENDBRANCH  27  28
ENDBRANCH   3  27
TORSDOF 7
