REMARK  Name = ZINCtj0000000HWO.1
REMARK                            x       y       z     vdW  Elec       q    Type
REMARK                         _______ _______ _______ _____ _____    ______ ____
ROOT
ATOM      1  C   LIG    1        4.130   3.837  -3.332  0.00  0.00    -0.170 A 
ATOM      2  C   LIG    1        3.145   2.962  -2.924  0.00  0.00    +0.510 A 
ATOM      3  N   LIG    1        3.501   1.811  -2.259  0.00  0.00    -0.530 N 
ATOM      4  C   LIG    1        4.795   1.546  -2.004  0.00  0.00    +0.710 A 
ATOM      5  N   LIG    1        5.769   2.384  -2.398  0.00  0.00    -0.660 N 
ATOM      6  H   LIG    1        6.695   2.168  -2.206  0.00  0.00    +0.440 HD
ATOM      7  O   LIG    1        5.089   0.526  -1.411  0.00  0.00    -0.520 OA
ATOM      8  C   LIG    1        5.474   3.524  -3.053  0.00  0.00    +0.580 A 
ATOM      9  O   LIG    1        6.365   4.280  -3.402  0.00  0.00    -0.520 OA
ENDROOT
BRANCH   1  10
ATOM     10  N   LIG    1        3.797   5.025  -4.016  0.00  0.00    -0.500 N 
ATOM     11  C   LIG    1        4.159   5.185  -5.306  0.00  0.00    +0.500 C 
ATOM     12  O   LIG    1        4.849   4.349  -5.851  0.00  0.00    -0.500 OA
BRANCH  10  14
ATOM     13  C   LIG    1        4.043   7.111  -2.763  0.00  0.00    +0.040 C 
ATOM     14  C   LIG    1        3.058   6.085  -3.326  0.00  0.00    +0.270 C 
ENDBRANCH  10  14
BRANCH  11  15
ATOM     15  C   LIG    1        3.706   6.402  -6.070  0.00  0.00    +0.290 C 
BRANCH  15  16
ATOM     16  N   LIG    1        4.229   6.342  -7.442  0.00  0.00    -0.370 N 
ATOM     17  C   LIG    1        3.633   5.197  -8.140  0.00  0.00    +0.260 C 
ATOM     18  C   LIG    1        4.234   5.081  -9.543  0.00  0.00    +0.060 C 
ATOM     19  C   LIG    1        3.943   6.365 -10.324  0.00  0.00    +0.030 C 
ATOM     20  C   LIG    1        4.504   7.561  -9.549  0.00  0.00    +0.060 C 
ATOM     21  C   LIG    1        3.891   7.584  -8.147  0.00  0.00    +0.170 C 
ATOM     22  C   LIG    1        2.370   7.711  -8.257  0.00  0.00    +0.090 C 
ATOM     23  H   LIG    1        5.231   6.234  -7.414  0.00  0.00    +0.430 HD
ENDBRANCH  15  16
ENDBRANCH  11  15
ENDBRANCH   1  10
BRANCH   2  24
ATOM     24  N   LIG    1        1.822   3.235  -3.180  0.00  0.00    -0.830 N 
ATOM     25  H   LIG    1        1.573   4.076  -3.594  0.00  0.00    +0.420 HD
ATOM     26  H   LIG    1        1.139   2.587  -2.947  0.00  0.00    +0.410 HD
ENDBRANCH   2  24
BRANCH   3  27
ATOM     27  C   LIG    1        2.465   0.873  -1.820  0.00  0.00    +0.380 C 
BRANCH  27  28
ATOM     28  C   LIG    1        2.206  -0.135  -2.909  0.00  0.00    -0.130 A 
ATOM     29  C   LIG    1        1.244   0.116  -3.870  0.00  0.00    +0.000 A 
ATOM     30  C   LIG    1        1.008  -0.809  -4.869  0.00  0.00    +0.010 A 
ATOM     31  C   LIG    1        1.732  -1.986  -4.907  0.00  0.00    +0.030 A 
ATOM     32  C   LIG    1        2.693  -2.238  -3.946  0.00  0.00    +0.010 A 
ATOM     33  C   LIG    1        2.930  -1.312  -2.947  0.00  0.00    +0.050 A 
ENDBRANCH  27  28
ENDBRANCH   3  27
TORSDOF 7
