REMARK  Name = ZINCrH000004mppQ.0
REMARK                            x       y       z     vdW  Elec       q    Type
REMARK                         _______ _______ _______ _____ _____    ______ ____
ROOT
ATOM      1  N   LIG    1        2.358   3.888   0.001  0.00  0.00    -0.460 N 
ATOM      2  C   LIG    1        3.529   3.224   0.089  0.00  0.00    +0.570 A 
ATOM      3  C   LIG    1        4.788   3.991   0.080  0.00  0.00    -0.160 A 
ATOM      4  C   LIG    1        6.024   3.354   0.169  0.00  0.00    +0.130 A 
ATOM      5  C   LIG    1        7.181   4.106   0.157  0.00  0.00    +0.020 A 
ATOM      6  C   LIG    1        7.118   5.486   0.058  0.00  0.00    +0.100 A 
ATOM      7  C   LIG    1        5.899   6.129  -0.030  0.00  0.00    +0.020 A 
ATOM      8  C   LIG    1        4.726   5.391  -0.021  0.00  0.00    +0.170 A 
ATOM      9  N   LIG    1        3.484   6.008  -0.108  0.00  0.00    -0.420 N 
ATOM     10  C   LIG    1        3.095   7.316  -0.212  0.00  0.00    +0.170 A 
ATOM     11  N   LIG    1        1.785   7.323  -0.259  0.00  0.00    -0.250 NA
ATOM     12  N   LIG    1        1.335   6.121  -0.191  0.00  0.00    -0.270 NA
ATOM     13  O   LIG    1        3.546   2.010   0.174  0.00  0.00    -0.480 OA
ATOM     14  C   LIG    1        2.329   5.270  -0.102  0.00  0.00    +0.420 A 
ENDROOT
BRANCH   1  18
ATOM     15  C   LIG    1       -1.221   1.749   0.023  0.00  0.00    +0.150 A 
ATOM     16  C   LIG    1       -0.672   2.193   1.216  0.00  0.00    +0.000 A 
ATOM     17  C   LIG    1        0.514   2.900   1.210  0.00  0.00    +0.080 A 
ATOM     18  C   LIG    1        1.155   3.171   0.008  0.00  0.00    +0.080 A 
ATOM     19  C   LIG    1        0.601   2.730  -1.187  0.00  0.00    +0.080 A 
ATOM     20  C   LIG    1       -0.585   2.024  -1.179  0.00  0.00    -0.060 A 
BRANCH  15  22
ATOM     21  C   LIG    1       -2.894   0.621  -1.235  0.00  0.00    +0.240 C 
ATOM     22  O   LIG    1       -2.386   1.048   0.030  0.00  0.00    -0.310 OA
ENDBRANCH  15  22
ENDBRANCH   1  18
BRANCH  10  23
ATOM     23  S   LIG    1        4.154   8.724  -0.273  0.00  0.00    +0.010 S 
BRANCH  23  24
ATOM     24  C   LIG    1        2.987  10.106  -0.410  0.00  0.00    +0.100 C 
BRANCH  24  25
ATOM     25  C   LIG    1        3.763  11.423  -0.474  0.00  0.00    +0.000 C 
ATOM     26  C   LIG    1        2.780  12.595  -0.464  0.00  0.00    +0.040 C 
ATOM     27  C   LIG    1        4.593  11.465  -1.759  0.00  0.00    +0.020 C 
ENDBRANCH  24  25
ENDBRANCH  23  24
ENDBRANCH  10  23
TORSDOF 5
