REMARK  Name = ZINCqH0000038ln6.0
REMARK                            x       y       z     vdW  Elec       q    Type
REMARK                         _______ _______ _______ _____ _____    ______ ____
ROOT
ATOM      1  N   LIG    1       -2.309  -0.439   0.549  0.00  0.00    -0.640 N 
ATOM      2  H   LIG    1       -1.437  -0.862   0.587  0.00  0.00    +0.410 HD
ATOM      3  C   LIG    1       -2.405   0.889   0.344  0.00  0.00    +0.570 C 
ATOM      4  O   LIG    1       -3.498   1.419   0.297  0.00  0.00    -0.480 OA
ENDROOT
BRANCH   3   5
ATOM      5  C   LIG    1       -1.182   1.702   0.175  0.00  0.00    -0.140 A 
ATOM      6  C   LIG    1        0.066   1.082   0.094  0.00  0.00    +0.110 A 
ATOM      7  C   LIG    1        1.203   1.845  -0.070  0.00  0.00    +0.030 A 
ATOM      8  C   LIG    1        1.109   3.224  -0.148  0.00  0.00    +0.140 A 
ATOM      9  C   LIG    1       -0.125   3.845  -0.063  0.00  0.00    -0.060 A 
ATOM     10  C   LIG    1       -1.270   3.093   0.100  0.00  0.00    +0.050 A 
ATOM     11  C   LIG    1       -2.612   3.772   0.192  0.00  0.00    +0.150 C 
BRANCH   9  12
ATOM     12  N   LIG    1       -0.216   5.320  -0.148  0.00  0.00    +0.030 N 
ATOM     13  O   LIG    1       -1.306   5.861  -0.196  0.00  0.00    -0.140 OA
ATOM     14  O   LIG    1        0.800   5.993  -0.168  0.00  0.00    -0.160 OA
ENDBRANCH   9  12
ENDBRANCH   3   5
BRANCH   1  19
ATOM     15  N   LIG    1       -3.514  -2.546   0.921  0.00  0.00    -0.380 N 
ATOM     16  N   LIG    1       -4.862  -2.912   1.025  0.00  0.00    -0.280 NA
ATOM     17  C   LIG    1       -5.594  -1.837   0.881  0.00  0.00    +0.250 A 
ATOM     18  C   LIG    1       -4.744  -0.746   0.686  0.00  0.00    -0.100 A 
ATOM     19  C   LIG    1       -3.462  -1.205   0.709  0.00  0.00    +0.300 A 
BRANCH  15  20
ATOM     20  C   LIG    1       -2.364  -3.448   1.023  0.00  0.00    +0.370 C 
BRANCH  20  26
ATOM     21  C   LIG    1        0.459  -1.771   4.800  0.00  0.00    +0.080 C 
ATOM     22  C   LIG    1       -0.570  -2.735   4.268  0.00  0.00    -0.080 A 
ATOM     23  C   LIG    1       -1.108  -3.700   5.098  0.00  0.00    +0.020 A 
ATOM     24  C   LIG    1       -2.052  -4.583   4.610  0.00  0.00    +0.020 A 
ATOM     25  C   LIG    1       -2.459  -4.502   3.292  0.00  0.00    +0.040 A 
ATOM     26  C   LIG    1       -1.921  -3.536   2.461  0.00  0.00    -0.120 A 
ATOM     27  C   LIG    1       -0.973  -2.656   2.948  0.00  0.00    +0.000 A 
ENDBRANCH  20  26
ENDBRANCH  15  20
ENDBRANCH   1  19
TORSDOF 5
