REMARK  Name = ZINCkj00000hdGwM.1
REMARK                            x       y       z     vdW  Elec       q    Type
REMARK                         _______ _______ _______ _____ _____    ______ ____
ROOT
ATOM      1  O   LIG    1        0.002  -0.004   0.002  0.00  0.00    -0.930 OA
ATOM      2  S   LIG    1       -0.017   1.417   0.010  0.00  0.00    +2.610 S 
ATOM      3  C   LIG    1       -1.170   2.044  -1.249  0.00  0.00    -0.370 C 
ATOM      4  C   LIG    1       -0.379   2.547  -2.452  0.00  0.00    +0.290 C 
ATOM      5  N   LIG    1       -1.068   3.623  -3.162  0.00  0.00    -0.370 N 
ATOM      6  C   LIG    1       -0.772   4.923  -2.562  0.00  0.00    +0.260 C 
ATOM      7  C   LIG    1       -1.813   5.351  -1.535  0.00  0.00    +0.020 C 
ATOM      8  C   LIG    1       -1.214   6.443  -0.637  0.00  0.00    +0.040 C 
ATOM      9  C   LIG    1       -1.708   6.244   0.797  0.00  0.00    +0.010 C 
ATOM     10  C   LIG    1       -0.689   5.415   1.581  0.00  0.00    +0.020 C 
ATOM     11  C   LIG    1       -1.340   4.111   2.047  0.00  0.00    +0.000 C 
ATOM     12  C   LIG    1       -0.274   3.018   2.157  0.00  0.00    +0.300 C 
ATOM     13  H   LIG    1       -0.692   3.641  -4.119  0.00  0.00    +0.440 HD
ATOM     14  O   LIG    1        1.187   2.169   0.002  0.00  0.00    -0.930 OA
ATOM     15  N   LIG    1       -0.752   1.812   1.452  0.00  0.00    -1.110 NA
ATOM     16  H   LIG    1       -1.470   1.268   1.817  0.00  0.00    +0.430 HD
ENDROOT
BRANCH   5  17
ATOM     17  C   LIG    1       -2.504   3.374  -3.273  0.00  0.00    +0.270 C 
BRANCH  17  18
ATOM     18  C   LIG    1       -2.741   2.139  -4.144  0.00  0.00    +0.150 C 
ATOM     19  C   LIG    1       -4.260   1.898  -4.333  0.00  0.00    +0.040 C 
ATOM     20  C   LIG    1       -4.269   1.104  -5.668  0.00  0.00    +0.030 C 
ATOM     21  C   LIG    1       -3.087   1.737  -6.433  0.00  0.00    +0.210 C 
ATOM     22  O   LIG    1       -2.228   2.357  -5.468  0.00  0.00    -0.390 OA
ENDBRANCH  17  18
ENDBRANCH   5  17
TORSDOF 2
