REMARK  Name = ZINCkj00000hdGwM.0
REMARK                            x       y       z     vdW  Elec       q    Type
REMARK                         _______ _______ _______ _____ _____    ______ ____
ROOT
ATOM      1  O   LIG    1        0.798   3.740   5.341  0.00  0.00    -0.930 OA
ATOM      2  S   LIG    1        0.746   2.741   4.331  0.00  0.00    +2.610 S 
ATOM      3  C   LIG    1        0.453   3.499   2.705  0.00  0.00    -0.350 C 
ATOM      4  C   LIG    1        1.750   3.488   1.904  0.00  0.00    +0.300 C 
ATOM      5  N   LIG    1        1.518   3.433   0.461  0.00  0.00    -0.370 N 
ATOM      6  C   LIG    1        1.415   2.049  -0.000  0.00  0.00    +0.260 C 
ATOM      7  C   LIG    1       -0.019   1.530   0.011  0.00  0.00    +0.020 C 
ATOM      8  C   LIG    1        0.002  -0.004   0.002  0.00  0.00    +0.040 C 
ATOM      9  C   LIG    1       -1.175  -0.532   0.822  0.00  0.00    +0.010 C 
ATOM     10  C   LIG    1       -0.725  -0.787   2.262  0.00  0.00    +0.010 C 
ATOM     11  C   LIG    1       -1.513   0.114   3.213  0.00  0.00    +0.000 C 
ATOM     12  C   LIG    1       -0.652   0.445   4.435  0.00  0.00    +0.300 C 
ATOM     13  H   LIG    1        2.349   3.838   0.008  0.00  0.00    +0.430 HD
ATOM     14  O   LIG    1        1.747   1.738   4.239  0.00  0.00    -0.940 OA
ATOM     15  N   LIG    1       -0.661   1.908   4.642  0.00  0.00    -1.110 NA
ATOM     16  H   LIG    1       -1.462   2.367   4.946  0.00  0.00    +0.420 HD
ENDROOT
BRANCH   5  17
ATOM     17  C   LIG    1        0.371   4.240   0.055  0.00  0.00    +0.270 C 
BRANCH  17  18
ATOM     18  C   LIG    1        0.665   5.717   0.328  0.00  0.00    +0.150 C 
ATOM     19  C   LIG    1       -0.540   6.578  -0.098  0.00  0.00    +0.030 C 
ATOM     20  C   LIG    1       -0.954   7.318   1.198  0.00  0.00    +0.010 C 
ATOM     21  C   LIG    1        0.340   7.234   2.047  0.00  0.00    +0.230 C 
ATOM     22  O   LIG    1        0.862   5.924   1.736  0.00  0.00    -0.380 OA
ENDBRANCH  17  18
ENDBRANCH   5  17
TORSDOF 2
