REMARK  Name = ZINCrD00000s0M5A.2
REMARK                            x       y       z     vdW  Elec       q    Type
REMARK                         _______ _______ _______ _____ _____    ______ ____
ROOT
ATOM      1  N   LIG    1       -1.823   4.849  -5.897  0.00  0.00    -0.650 N 
ATOM      2  H   LIG    1       -2.597   5.142  -5.391  0.00  0.00    +0.410 HD
ATOM      3  C   LIG    1       -0.592   4.933  -5.354  0.00  0.00    +0.710 C 
ATOM      4  N   LIG    1       -0.426   5.506  -4.145  0.00  0.00    -0.620 N 
ATOM      5  C   LIG    1       -1.584   5.934  -3.347  0.00  0.00    +0.280 C 
ATOM      6  C   LIG    1       -1.454   5.343  -1.939  0.00  0.00    +0.170 C 
ATOM      7  N   LIG    1       -0.148   5.713  -1.375  0.00  0.00    -0.520 NA
ATOM      8  C   LIG    1        0.952   5.157  -2.167  0.00  0.00    +0.100 C 
ATOM      9  C   LIG    1        0.840   3.622  -2.215  0.00  0.00    -0.010 C 
ATOM     10  C   LIG    1        2.309   3.134  -2.155  0.00  0.00    +0.020 C 
ATOM     11  C   LIG    1        2.963   4.135  -1.169  0.00  0.00    +0.000 C 
ATOM     12  C   LIG    1        2.298   5.487  -1.506  0.00  0.00    +0.030 C 
ATOM     13  C   LIG    1        0.919   5.720  -3.589  0.00  0.00    +0.320 C 
ATOM     14  O   LIG    1        0.369   4.491  -5.955  0.00  0.00    -0.580 OA
ENDROOT
BRANCH   1  21
ATOM     15  C   LIG    1       -4.562   4.550  -7.349  0.00  0.00    +0.160 C 
ATOM     16  C   LIG    1       -3.200   4.187  -7.882  0.00  0.00    +0.060 A 
ATOM     17  N   LIG    1       -2.950   3.682  -9.062  0.00  0.00    -0.280 NA
ATOM     18  N   LIG    1       -1.568   3.482  -9.172  0.00  0.00    -0.380 N 
ATOM     19  C   LIG    1       -0.993   3.892  -8.012  0.00  0.00    +0.250 A 
ATOM     20  C   LIG    1       -0.866   2.928 -10.333  0.00  0.00    +0.360 C 
ATOM     21  C   LIG    1       -1.985   4.336  -7.198  0.00  0.00    +0.010 A 
ENDBRANCH   1  21
BRANCH   7  22
ATOM     22  C   LIG    1       -0.046   5.299   0.031  0.00  0.00    +0.230 C 
BRANCH  22  23
ATOM     23  C   LIG    1       -1.057   6.057   0.852  0.00  0.00    -0.080 A 
ATOM     24  C   LIG    1       -2.286   5.489   1.130  0.00  0.00    +0.000 A 
ATOM     25  C   LIG    1       -3.214   6.185   1.883  0.00  0.00    +0.000 A 
ATOM     26  C   LIG    1       -2.912   7.447   2.359  0.00  0.00    +0.000 A 
ATOM     27  C   LIG    1       -1.684   8.016   2.077  0.00  0.00    +0.000 A 
ATOM     28  C   LIG    1       -0.754   7.319   1.328  0.00  0.00    +0.020 A 
ENDBRANCH  22  23
ENDBRANCH   7  22
TORSDOF 3
