REMARK  Name = ZINCpk00000jWp4y.0
REMARK                            x       y       z     vdW  Elec       q    Type
REMARK                         _______ _______ _______ _____ _____    ______ ____
ROOT
ATOM      1  C   LIG    1       -1.911  -0.480  -2.477  0.00  0.00    +0.290 C 
ATOM      2  N   LIG    1       -1.083   0.729  -2.468  0.00  0.00    -0.600 N 
ATOM      3  C   LIG    1       -0.262   0.991  -3.504  0.00  0.00    +0.570 C 
ATOM      4  O   LIG    1        0.362   2.033  -3.536  0.00  0.00    -0.520 OA
ENDROOT
BRANCH   3   5
ATOM      5  C   LIG    1       -0.120   0.010  -4.601  0.00  0.00    -0.110 A 
ATOM      6  C   LIG    1       -1.254  -0.543  -5.194  0.00  0.00    +0.060 A 
ATOM      7  C   LIG    1       -1.115  -1.455  -6.221  0.00  0.00    -0.040 A 
ATOM      8  C   LIG    1        0.145  -1.825  -6.654  0.00  0.00    +0.060 A 
ATOM      9  C   LIG    1        1.278  -1.283  -6.066  0.00  0.00    -0.090 A 
ATOM     10  C   LIG    1        2.744  -1.526  -6.358  0.00  0.00    +0.090 C 
ATOM     11  C   LIG    1        3.487  -0.341  -5.705  0.00  0.00    +0.040 C 
ATOM     12  C   LIG    1        2.523   0.070  -4.573  0.00  0.00    +0.080 C 
ATOM     13 CL   LIG    1       -2.524  -2.143  -6.967  0.00  0.00    -0.060 Cl
ATOM     14  C   LIG    1        1.152  -0.368  -5.042  0.00  0.00    -0.040 A 
ENDBRANCH   3   5
BRANCH   2  15
ATOM     15  C   LIG    1       -1.148   1.652  -1.333  0.00  0.00    +0.250 C 
ATOM     16  C   LIG    1       -2.594   2.138  -1.130  0.00  0.00    +0.030 C 
ATOM     17  C   LIG    1       -3.016   1.687   0.284  0.00  0.00    +0.020 C 
ATOM     18  C   LIG    1       -1.675   1.521   1.048  0.00  0.00    +0.250 C 
ATOM     19  C   LIG    1       -0.742   0.924  -0.035  0.00  0.00    +0.020 C 
BRANCH  18  20
ATOM     20  N   LIG    1       -1.825   0.595   2.172  0.00  0.00    -0.690 N 
ATOM     21  H   LIG    1       -1.694  -0.357   2.038  0.00  0.00    +0.410 HD
ATOM     22  C   LIG    1       -2.146   1.064   3.394  0.00  0.00    +0.510 C 
ATOM     23  O   LIG    1       -2.309   2.255   3.563  0.00  0.00    -0.510 OA
BRANCH  22  24
ATOM     24  C   LIG    1       -2.299   0.119   4.542  0.00  0.00    +0.510 C 
ATOM     25  O   LIG    1       -2.135  -1.071   4.373  0.00  0.00    -0.520 OA
ATOM     26  N   LIG    1       -2.619   0.589   5.764  0.00  0.00    -0.820 N 
ATOM     27  H   LIG    1       -2.719  -0.025   6.508  0.00  0.00    +0.410 HD
ATOM     28  H   LIG    1       -2.751   1.540   5.899  0.00  0.00    +0.420 HD
ENDBRANCH  22  24
ENDBRANCH  18  20
ENDBRANCH   2  15
TORSDOF 4
