REMARK  Name = ZINCrH00000No4ZS.0
REMARK                            x       y       z     vdW  Elec       q    Type
REMARK                         _______ _______ _______ _____ _____    ______ ____
ROOT
ATOM      1  O   LIG    1       -5.123   4.860  -1.046  0.00  0.00    -0.520 OA
ATOM      2  C   LIG    1       -5.034   3.769  -0.514  0.00  0.00    +0.550 C 
ATOM      3  N   LIG    1       -6.111   3.219   0.080  0.00  0.00    -0.650 N 
ATOM      4  H   LIG    1       -6.062   2.316   0.433  0.00  0.00    +0.430 HD
ENDROOT
BRANCH   3   5
ATOM      5  C   LIG    1       -7.293   3.944   0.187  0.00  0.00    +0.220 A 
ATOM      6  C   LIG    1       -7.262   5.332   0.187  0.00  0.00    +0.010 A 
ATOM      7  C   LIG    1       -8.437   6.050   0.293  0.00  0.00    +0.070 A 
ATOM      8  C   LIG    1       -9.652   5.395   0.400  0.00  0.00    -0.020 A 
ATOM      9  C   LIG    1       -9.703   4.017   0.401  0.00  0.00    +0.070 A 
ATOM     10  C   LIG    1       -8.524   3.277   0.289  0.00  0.00    -0.180 A 
BRANCH  10  11
ATOM     11  C   LIG    1       -8.571   1.803   0.284  0.00  0.00    +0.580 C 
ATOM     12  N   LIG    1       -9.759   1.167   0.281  0.00  0.00    -0.690 N 
ATOM     13  H   LIG    1      -10.583   1.678   0.282  0.00  0.00    +0.400 HD
ATOM     14  O   LIG    1       -7.538   1.161   0.282  0.00  0.00    -0.550 OA
BRANCH  12  15
ATOM     15  C   LIG    1       -9.806  -0.298   0.276  0.00  0.00    +0.220 C 
ATOM     16  C   LIG    1      -10.808  -0.969  -0.665  0.00  0.00    +0.020 C 
ATOM     17  C   LIG    1      -11.059  -0.966   0.845  0.00  0.00    +0.020 C 
ENDBRANCH  12  15
ENDBRANCH  10  11
ENDBRANCH   3   5
BRANCH   2  18
ATOM     18  C   LIG    1       -3.756   3.055  -0.519  0.00  0.00    -0.050 C 
ATOM     19  C   LIG    1       -2.678   3.606  -1.114  0.00  0.00    +0.130 C 
BRANCH  19  20
ATOM     20  C   LIG    1       -1.394   2.888  -1.119  0.00  0.00    -0.070 A 
ATOM     21  C   LIG    1       -1.289   1.632  -0.513  0.00  0.00    +0.120 A 
ATOM     22  C   LIG    1       -0.081   0.968  -0.517  0.00  0.00    +0.050 A 
ATOM     23  C   LIG    1        1.024   1.536  -1.129  0.00  0.00    +0.020 A 
ATOM     24  C   LIG    1        0.926   2.778  -1.736  0.00  0.00    -0.040 A 
ATOM     25 CL   LIG    1        2.540   0.689  -1.135  0.00  0.00    +0.000 Cl
ATOM     26  C   LIG    1       -0.274   3.456  -1.735  0.00  0.00    +0.150 A 
BRANCH  24  27
ATOM     27  N   LIG    1        2.113   3.377  -2.387  0.00  0.00    +0.020 N 
ATOM     28  O   LIG    1        3.174   2.780  -2.389  0.00  0.00    -0.130 OA
ATOM     29  O   LIG    1        2.028   4.469  -2.921  0.00  0.00    -0.160 OA
ENDBRANCH  24  27
ENDBRANCH  19  20
ENDBRANCH   2  18
TORSDOF 6
