REMARK  Name = ZINCpk000004AT9V.0
REMARK                            x       y       z     vdW  Elec       q    Type
REMARK                         _______ _______ _______ _____ _____    ______ ____
ROOT
ATOM      1  C   LIG    1       -1.248   3.191  -0.094  0.00  0.00    -0.090 A 
ATOM      2  C   LIG    1       -0.211   3.607   0.723  0.00  0.00    +0.030 A 
ATOM      3  C   LIG    1        0.993   2.933   0.711  0.00  0.00    +0.050 A 
ATOM      4  C   LIG    1        1.160   1.823  -0.119  0.00  0.00    -0.120 A 
ATOM      5  C   LIG    1        0.108   1.406  -0.936  0.00  0.00    +0.060 A 
ATOM      6  C   LIG    1       -1.089   2.092  -0.919  0.00  0.00    +0.030 A 
ENDROOT
BRANCH   4   7
ATOM      7  C   LIG    1        2.446   1.094  -0.133  0.00  0.00    +0.560 C 
ATOM      8  N   LIG    1        3.607   1.775  -0.199  0.00  0.00    -0.600 N 
ATOM      9  C   LIG    1        3.616   3.244  -0.161  0.00  0.00    +0.270 C 
ATOM     10  C   LIG    1        4.394   3.764  -1.374  0.00  0.00    +0.030 C 
ATOM     11  C   LIG    1        5.785   3.127  -1.394  0.00  0.00    +0.050 C 
ATOM     12  C   LIG    1        5.651   1.608  -1.522  0.00  0.00    -0.020 C 
ATOM     13  C   LIG    1        4.888   1.063  -0.304  0.00  0.00    +0.310 C 
ATOM     14  O   LIG    1        2.456  -0.121  -0.085  0.00  0.00    -0.530 OA
BRANCH  12  15
ATOM     15  C   LIG    1        7.021   0.984  -1.575  0.00  0.00    +0.520 C 
ATOM     16  N   LIG    1        7.228  -0.128  -2.307  0.00  0.00    -0.620 N 
ATOM     17  C   LIG    1        6.098  -0.798  -2.957  0.00  0.00    +0.290 C 
ATOM     18  C   LIG    1        8.582  -0.668  -2.454  0.00  0.00    +0.290 C 
ATOM     19  O   LIG    1        7.939   1.484  -0.959  0.00  0.00    -0.530 OA
ENDBRANCH  12  15
ENDBRANCH   4   7
BRANCH   1  20
ATOM     20  C   LIG    1       -2.558   3.936  -0.080  0.00  0.00    +0.320 C 
BRANCH  20  22
ATOM     21  C   LIG    1       -4.674   3.861   1.126  0.00  0.00    +0.540 C 
ATOM     22  N   LIG    1       -3.440   3.353   0.934  0.00  0.00    -0.720 N 
ATOM     23  H   LIG    1       -3.136   2.602   1.467  0.00  0.00    +0.400 HD
ATOM     24  O   LIG    1       -5.054   4.803   0.458  0.00  0.00    -0.540 OA
BRANCH  21  26
ATOM     25  C   LIG    1       -6.777   3.777   2.334  0.00  0.00    +0.150 C 
ATOM     26  C   LIG    1       -5.560   3.276   2.144  0.00  0.00    -0.090 C 
ENDBRANCH  21  26
ENDBRANCH  20  22
ENDBRANCH   1  20
TORSDOF 5
