REMARK  Name = ZINCpe00000gNmsq.0
REMARK                            x       y       z     vdW  Elec       q    Type
REMARK                         _______ _______ _______ _____ _____    ______ ____
ROOT
ATOM      1  N   LIG    1        1.911   2.286  -2.070  0.00  0.00    -0.690 NA
ATOM      2  H   LIG    1        2.422   2.021  -2.850  0.00  0.00    +0.410 HD
ENDROOT
BRANCH   1   7
ATOM      3  N   LIG    1        1.288   4.450  -3.024  0.00  0.00    -0.370 N 
ATOM      4  N   LIG    1        0.542   5.528  -2.516  0.00  0.00    -0.080 NA
ATOM      5  N   LIG    1        0.162   5.193  -1.330  0.00  0.00    -0.010 NA
ATOM      6  N   LIG    1        0.598   4.022  -1.035  0.00  0.00    -0.360 NA
ATOM      7  C   LIG    1        1.292   3.523  -2.035  0.00  0.00    +0.500 C 
BRANCH   3  11
ATOM      8  C   LIG    1        3.113   4.173  -6.762  0.00  0.00    +0.030 A 
ATOM      9  C   LIG    1        1.829   4.676  -6.657  0.00  0.00    +0.040 A 
ATOM     10  C   LIG    1        1.222   4.769  -5.419  0.00  0.00    +0.040 A 
ATOM     11  C   LIG    1        1.902   4.357  -4.281  0.00  0.00    +0.130 A 
ATOM     12  C   LIG    1        3.193   3.857  -4.390  0.00  0.00    +0.000 A 
ATOM     13  C   LIG    1        3.793   3.761  -5.631  0.00  0.00    +0.040 A 
ENDBRANCH   3  11
ENDBRANCH   1   7
BRANCH   1  14
ATOM     14  C   LIG    1        1.794   1.376  -0.927  0.00  0.00    +0.310 C 
BRANCH  14  15
ATOM     15  C   LIG    1        2.700   0.163  -1.147  0.00  0.00    +0.150 C 
BRANCH  15  16
ATOM     16  N   LIG    1        2.261  -0.939  -0.281  0.00  0.00    -0.520 NA
ATOM     17  C   LIG    1        3.228  -2.047  -0.306  0.00  0.00    +0.150 C 
ATOM     18  C   LIG    1        2.763  -3.145   0.654  0.00  0.00    +0.220 C 
ATOM     19  O   LIG    1        1.447  -3.567   0.286  0.00  0.00    -0.380 OA
ATOM     20  C   LIG    1        0.479  -2.514   0.301  0.00  0.00    +0.220 C 
ATOM     21  C   LIG    1        0.921  -1.409  -0.662  0.00  0.00    +0.150 C 
ENDBRANCH  15  16
BRANCH  15  22
ATOM     22  C   LIG    1        4.144   0.535  -0.807  0.00  0.00    -0.030 C 
ATOM     23  C   LIG    1        4.545   1.871  -1.490  0.00  0.00    +0.000 C 
ATOM     24  C   LIG    1        5.624   2.392  -0.507  0.00  0.00    +0.200 C 
ATOM     25  O   LIG    1        5.159   2.008   0.797  0.00  0.00    -0.380 OA
ATOM     26  C   LIG    1        4.284   0.879   0.692  0.00  0.00    +0.210 C 
ENDBRANCH  15  22
ENDBRANCH  14  15
ENDBRANCH   1  14
TORSDOF 6
