REMARK  Name = ZINCrD00000hQ6u6.0
REMARK                            x       y       z     vdW  Elec       q    Type
REMARK                         _______ _______ _______ _____ _____    ______ ____
ROOT
ATOM      1  N   LIG    1        3.705   1.679  -0.029  0.00  0.00    -0.460 N 
ATOM      2  C   LIG    1        4.648   0.671  -0.039  0.00  0.00    +0.070 A 
ATOM      3  C   LIG    1        6.035   0.649  -0.052  0.00  0.00    +0.040 A 
ATOM      4  C   LIG    1        6.700  -0.560  -0.066  0.00  0.00    -0.010 A 
ATOM      5  C   LIG    1        5.991  -1.753  -0.066  0.00  0.00    +0.020 A 
ATOM      6  C   LIG    1        4.625  -1.752  -0.052  0.00  0.00    +0.090 A 
ATOM      7 CL   LIG    1        8.436  -0.589  -0.083  0.00  0.00    -0.060 Cl
ATOM      8  C   LIG    1        3.929  -0.539  -0.038  0.00  0.00    +0.050 A 
ATOM      9  N   LIG    1        2.612  -0.221  -0.024  0.00  0.00    -0.470 NA
ATOM     10  C   LIG    1        2.473   1.081  -0.015  0.00  0.00    +0.330 A 
ENDROOT
BRANCH  10  11
ATOM     11  C   LIG    1        1.179   1.799   0.001  0.00  0.00    +0.180 A 
ATOM     12  C   LIG    1       -0.013   1.076   0.008  0.00  0.00    +0.030 A 
ATOM     13  C   LIG    1       -1.216   1.762   0.017  0.00  0.00    +0.080 A 
ATOM     14  C   LIG    1       -1.187   3.148   0.030  0.00  0.00    -0.020 A 
ATOM     15  C   LIG    1        0.033   3.803   0.022  0.00  0.00    +0.270 A 
ATOM     16  N   LIG    1        1.163   3.127   0.008  0.00  0.00    -0.480 NA
ENDBRANCH  10  11
BRANCH   1  17
ATOM     17  C   LIG    1        3.972   3.119  -0.031  0.00  0.00    +0.300 C 
BRANCH  17  18
ATOM     18  C   LIG    1        4.083   3.619   1.411  0.00  0.00    +0.210 C 
BRANCH  18  19
ATOM     19  O   LIG    1        5.222   3.024   2.035  0.00  0.00    -0.540 OA
ATOM     20  H   LIG    1        6.061   3.226   1.598  0.00  0.00    +0.370 HD
ENDBRANCH  18  19
BRANCH  18  21
ATOM     21  C   LIG    1        4.238   5.141   1.412  0.00  0.00    +0.150 C 
BRANCH  21  22
ATOM     22  O   LIG    1        4.224   5.620   2.759  0.00  0.00    -0.370 OA
BRANCH  22  23
ATOM     23  C   LIG    1        4.363   7.038   2.873  0.00  0.00    +0.150 C 
ATOM     24  C   LIG    1        5.847   7.399   2.991  0.00  0.00    -0.030 C 
ATOM     25  C   LIG    1        5.981   8.911   3.192  0.00  0.00    +0.210 C 
ATOM     26  O   LIG    1        5.250   9.303   4.356  0.00  0.00    -0.380 OA
ATOM     27  C   LIG    1        3.849   9.032   4.283  0.00  0.00    +0.210 C 
ATOM     28  C   LIG    1        3.629   7.525   4.126  0.00  0.00    +0.010 C 
ENDBRANCH  22  23
ENDBRANCH  21  22
ENDBRANCH  18  21
ENDBRANCH  17  18
ENDBRANCH   1  17
TORSDOF 7
