REMARK  Name = ZINCpe00000gN3iu.0
REMARK                            x       y       z     vdW  Elec       q    Type
REMARK                         _______ _______ _______ _____ _____    ______ ____
ROOT
ATOM      1  N   LIG    1       -5.419   2.082   1.342  0.00  0.00    -0.730 N 
ATOM      2  H   LIG    1       -5.899   1.767   0.561  0.00  0.00    +0.400 HD
ATOM      3  C   LIG    1       -4.261   2.757   1.195  0.00  0.00    +0.540 C 
ATOM      4  O   LIG    1       -3.661   3.151   2.173  0.00  0.00    -0.530 OA
ENDROOT
BRANCH   1   9
ATOM      5  N   LIG    1       -7.405   0.344   3.984  0.00  0.00    -0.470 N 
ATOM      6  C   LIG    1       -8.232   1.472   4.433  0.00  0.00    +0.180 C 
ATOM      7  C   LIG    1       -7.370   2.733   4.524  0.00  0.00    +0.050 C 
ATOM      8  C   LIG    1       -6.768   3.034   3.149  0.00  0.00    +0.010 C 
ATOM      9  C   LIG    1       -5.952   1.825   2.683  0.00  0.00    +0.250 C 
ATOM     10  C   LIG    1       -6.854   0.590   2.645  0.00  0.00    +0.210 C 
BRANCH   5  16
ATOM     11  C   LIG    1       -8.795  -0.789   6.436  0.00  0.00    +0.350 C 
ATOM     12  N   LIG    1       -8.753  -1.373   5.092  0.00  0.00    -0.380 N 
ATOM     13  N   LIG    1       -9.357  -2.573   4.696  0.00  0.00    -0.300 NA
ATOM     14  C   LIG    1       -9.097  -2.766   3.428  0.00  0.00    +0.240 A 
ATOM     15  C   LIG    1       -8.323  -1.696   2.970  0.00  0.00    -0.170 A 
ATOM     16  C   LIG    1       -8.126  -0.847   4.016  0.00  0.00    +0.270 A 
ENDBRANCH   5  16
ENDBRANCH   1   9
BRANCH   3  17
ATOM     17  C   LIG    1       -3.713   3.022  -0.183  0.00  0.00    +0.120 C 
BRANCH  17  18
ATOM     18  C   LIG    1       -2.420   3.787  -0.071  0.00  0.00    -0.010 A 
ATOM     19  C   LIG    1       -2.405   5.152  -0.273  0.00  0.00    +0.010 A 
ATOM     20  C   LIG    1       -1.218   5.856  -0.169  0.00  0.00    +0.040 A 
ATOM     21  C   LIG    1       -0.040   5.198   0.136  0.00  0.00    +0.000 A 
ATOM     22  C   LIG    1       -0.042   3.834   0.345  0.00  0.00    +0.050 A 
ATOM     23  C   LIG    1       -1.235   3.117   0.237  0.00  0.00    -0.130 A 
BRANCH  23  24
ATOM     24  C   LIG    1       -1.244   1.655   0.455  0.00  0.00    +0.570 C 
ATOM     25  O   LIG    1       -2.297   1.048   0.464  0.00  0.00    -0.540 OA
ATOM     26  N   LIG    1       -0.084   0.994   0.643  0.00  0.00    -0.850 N 
ATOM     27  H   LIG    1        0.757   1.478   0.631  0.00  0.00    +0.400 HD
ATOM     28  H   LIG    1       -0.090   0.035   0.786  0.00  0.00    +0.410 HD
ENDBRANCH  23  24
ENDBRANCH  17  18
ENDBRANCH   3  17
TORSDOF 5
