REMARK  Name = ZINCpe000000UFJE.0
REMARK                            x       y       z     vdW  Elec       q    Type
REMARK                         _______ _______ _______ _____ _____    ______ ____
ROOT
ATOM      1  C   LIG    1        5.212   1.584  -3.011  0.00  0.00    -0.030 A 
ATOM      2  C   LIG    1        5.628   2.631  -3.778  0.00  0.00    +0.110 A 
ATOM      3  C   LIG    1        6.323   2.101  -4.880  0.00  0.00    -0.310 A 
ATOM      4  C   LIG    1        6.302   0.695  -4.753  0.00  0.00    +0.350 A 
ATOM      5  N   LIG    1        6.894  -0.053  -5.681  0.00  0.00    -0.540 NA
ATOM      6  C   LIG    1        7.505   0.493  -6.728  0.00  0.00    +0.430 A 
ATOM      7  C   LIG    1        8.115  -0.349  -7.679  0.00  0.00    +0.030 A 
ATOM      8  C   LIG    1        8.743   0.199  -8.755  0.00  0.00    +0.120 A 
ATOM      9  C   LIG    1        8.776   1.594  -8.904  0.00  0.00    -0.020 A 
ATOM     10  C   LIG    1        8.188   2.388  -7.983  0.00  0.00    +0.290 A 
ATOM     11  N   LIG    1        7.555   1.851  -6.900  0.00  0.00    -0.450 N 
ATOM     12  C   LIG    1        6.975   2.674  -5.997  0.00  0.00    +0.560 A 
ATOM     13  O   LIG    1        7.014   3.883  -6.143  0.00  0.00    -0.510 OA
ATOM     14  N   LIG    1        5.620   0.399  -3.607  0.00  0.00    -0.410 N 
ATOM     15  C   LIG    1        5.362  -0.948  -3.091  0.00  0.00    +0.340 C 
ENDROOT
BRANCH   1  18
ATOM     16  C   LIG    1        4.492   4.115  -2.011  0.00  0.00    +0.310 C 
ATOM     17  N   LIG    1        4.059   2.901  -1.315  0.00  0.00    -0.600 N 
ATOM     18  C   LIG    1        4.451   1.692  -1.764  0.00  0.00    +0.590 C 
ATOM     19  O   LIG    1        4.173   0.689  -1.132  0.00  0.00    -0.520 OA
BRANCH  17  20
ATOM     20  C   LIG    1        3.201   3.001  -0.133  0.00  0.00    +0.440 C 
BRANCH  20  21
ATOM     21  C   LIG    1        4.058   3.100   1.103  0.00  0.00    +0.150 A 
ATOM     22  N   LIG    1        4.498   4.195   1.648  0.00  0.00    -0.370 NA
ATOM     23  O   LIG    1        5.160   3.938   2.631  0.00  0.00    +0.080 OA
ATOM     24  C   LIG    1        5.207   2.615   2.813  0.00  0.00    +0.420 A 
ATOM     25  N   LIG    1        4.508   2.072   1.845  0.00  0.00    -0.470 NA
ENDBRANCH  20  21
ENDBRANCH  17  20
ENDBRANCH   1  18
TORSDOF 3
