REMARK  Name = ZINCtV00001bB3yt.0
REMARK                            x       y       z     vdW  Elec       q    Type
REMARK                         _______ _______ _______ _____ _____    ______ ____
ROOT
ATOM      1  C   LIG    1        5.699   2.952   0.523  0.00  0.00    +0.470 A 
ATOM      2  N   LIG    1        4.670   2.212   0.139  0.00  0.00    -0.570 NA
ATOM      3  C   LIG    1        3.449   2.730   0.018  0.00  0.00    +0.410 A 
ATOM      4  N   LIG    1        3.183   3.997   0.279  0.00  0.00    -0.510 NA
ATOM      5  C   LIG    1        4.156   4.827   0.680  0.00  0.00    +0.190 A 
ATOM      6  C   LIG    1        3.907   6.176   0.966  0.00  0.00    +0.040 A 
ATOM      7  C   LIG    1        4.933   6.978   1.371  0.00  0.00    +0.050 A 
ATOM      8  C   LIG    1        6.225   6.478   1.505  0.00  0.00    +0.000 A 
ATOM      9  C   LIG    1        6.501   5.169   1.235  0.00  0.00    +0.050 A 
ATOM     10  C   LIG    1        5.472   4.320   0.817  0.00  0.00    -0.200 A 
ENDROOT
BRANCH   3  11
ATOM     11  C   LIG    1        2.344   1.848  -0.422  0.00  0.00    -0.090 A 
ATOM     12  C   LIG    1        2.590   0.506  -0.706  0.00  0.00    +0.110 A 
ATOM     13  C   LIG    1        1.556  -0.312  -1.115  0.00  0.00    -0.040 A 
ATOM     14  C   LIG    1        0.275   0.196  -1.244  0.00  0.00    +0.070 A 
ATOM     15  C   LIG    1        0.019   1.525  -0.965  0.00  0.00    -0.100 A 
ATOM     16  C   LIG    1        1.047   2.358  -0.554  0.00  0.00    +0.180 A 
BRANCH  16  17
ATOM     17  O   LIG    1        0.798   3.664  -0.280  0.00  0.00    -0.260 OA
BRANCH  17  18
ATOM     18  C   LIG    1       -0.559   4.101  -0.383  0.00  0.00    +0.140 C 
ATOM     19  C   LIG    1       -0.881   4.425  -1.843  0.00  0.00    +0.020 C 
ATOM     20  C   LIG    1       -0.759   5.353   0.474  0.00  0.00    +0.060 C 
ENDBRANCH  17  18
ENDBRANCH  16  17
ENDBRANCH   3  11
BRANCH   1  21
ATOM     21  N   LIG    1        6.960   2.404   0.640  0.00  0.00    -0.640 N 
ATOM     22  H   LIG    1        7.720   2.973   0.840  0.00  0.00    +0.420 HD
BRANCH  21  27
ATOM     23  C   LIG    1        7.702  -3.177  -0.050  0.00  0.00    +0.090 C 
ATOM     24  C   LIG    1        7.505  -1.694   0.133  0.00  0.00    -0.100 A 
ATOM     25  C   LIG    1        6.340  -1.219   0.707  0.00  0.00    +0.030 A 
ATOM     26  C   LIG    1        6.159   0.139   0.881  0.00  0.00    +0.020 A 
ATOM     27  C   LIG    1        7.143   1.028   0.469  0.00  0.00    +0.150 A 
ATOM     28  C   LIG    1        8.312   0.547  -0.107  0.00  0.00    -0.020 A 
ATOM     29  C   LIG    1        8.489  -0.812  -0.274  0.00  0.00    -0.070 A 
ATOM     30  C   LIG    1        9.757  -1.335  -0.898  0.00  0.00    +0.080 C 
ENDBRANCH  21  27
ENDBRANCH   1  21
TORSDOF 5
