REMARK  Name = ZINCrg00000fRFdx.0
REMARK                            x       y       z     vdW  Elec       q    Type
REMARK                         _______ _______ _______ _____ _____    ______ ____
ROOT
ATOM      1  N   LIG    1        2.573  -3.459  -1.652  0.00  0.00    -0.720 N 
ATOM      2  H   LIG    1        2.890  -4.006  -0.916  0.00  0.00    +0.410 HD
ATOM      3  C   LIG    1        2.062  -2.235  -1.410  0.00  0.00    +0.500 C 
ATOM      4  O   LIG    1        1.666  -1.551  -2.329  0.00  0.00    -0.510 OA
ENDROOT
BRANCH   1   5
ATOM      5  C   LIG    1        2.649  -3.963  -3.025  0.00  0.00    +0.280 C 
BRANCH   5   6
ATOM      6  C   LIG    1        3.263  -5.364  -3.021  0.00  0.00    +0.090 C 
BRANCH   6  10
ATOM      7  C   LIG    1        3.485  -6.834  -7.031  0.00  0.00    -0.140 A 
ATOM      8  C   LIG    1        4.549  -6.111  -6.490  0.00  0.00    +0.080 A 
ATOM      9  C   LIG    1        4.471  -5.640  -5.196  0.00  0.00    +0.010 A 
ATOM     10  C   LIG    1        3.341  -5.882  -4.434  0.00  0.00    -0.060 A 
ATOM     11  C   LIG    1        2.285  -6.603  -4.963  0.00  0.00    +0.010 A 
ATOM     12  C   LIG    1        2.348  -7.075  -6.258  0.00  0.00    +0.050 A 
BRANCH   7  16
ATOM     13  C   LIG    1        2.608  -8.545 -10.310  0.00  0.00    +0.290 C 
ATOM     14  N   LIG    1        2.532  -8.041  -8.937  0.00  0.00    -0.730 N 
ATOM     15  H   LIG    1        1.741  -8.209  -8.401  0.00  0.00    +0.400 HD
ATOM     16  C   LIG    1        3.562  -7.343  -8.417  0.00  0.00    +0.560 C 
ATOM     17  O   LIG    1        4.553  -7.132  -9.088  0.00  0.00    -0.530 OA
ENDBRANCH   7  16
ENDBRANCH   6  10
ENDBRANCH   5   6
ENDBRANCH   1   5
BRANCH   3  18
ATOM     18  C   LIG    1        1.984  -1.717   0.003  0.00  0.00    +0.370 C 
BRANCH  18  19
ATOM     19  N   LIG    1        1.396  -0.376  -0.001  0.00  0.00    -0.370 N 
ATOM     20  N   LIG    1        0.031  -0.042   0.044  0.00  0.00    -0.070 NA
ATOM     21  N   LIG    1       -0.040   1.245   0.022  0.00  0.00    -0.030 NA
ATOM     22  N   LIG    1        1.137   1.757  -0.032  0.00  0.00    -0.320 NA
ATOM     23  C   LIG    1        2.051   0.811  -0.047  0.00  0.00    +0.300 A 
BRANCH  23  24
ATOM     24  C   LIG    1        3.517   1.005  -0.105  0.00  0.00    -0.040 A 
ATOM     25  C   LIG    1        4.077   2.227   0.267  0.00  0.00    +0.080 A 
ATOM     26  C   LIG    1        5.446   2.399   0.217  0.00  0.00    +0.020 A 
ATOM     27  C   LIG    1        6.260   1.367  -0.213  0.00  0.00    +0.040 A 
ATOM     28  C   LIG    1        5.710   0.155  -0.589  0.00  0.00    +0.010 A 
ATOM     29  C   LIG    1        4.344  -0.032  -0.538  0.00  0.00    +0.020 A 
ENDBRANCH  23  24
ENDBRANCH  18  19
ENDBRANCH   3  18
TORSDOF 7
