REMARK  Name = ZINCah0000002CuG.0
REMARK                            x       y       z     vdW  Elec       q    Type
REMARK                         _______ _______ _______ _____ _____    ______ ____
ROOT
ATOM      1  C   LIG    1       -2.918   2.074   2.037  0.00  0.00    +0.100 A 
ATOM      2  N   LIG    1       -2.409   3.231   1.662  0.00  0.00    -0.240 NA
ATOM      3  N   LIG    1       -1.366   3.039   0.937  0.00  0.00    -0.370 N 
ATOM      4  H   LIG    1       -0.823   3.743   0.550  0.00  0.00    +0.450 HD
ATOM      5  C   LIG    1       -1.137   1.716   0.789  0.00  0.00    +0.060 A 
ATOM      6  C   LIG    1       -2.102   1.062   1.478  0.00  0.00    -0.010 A 
ENDROOT
BRANCH   5   7
ATOM      7  C   LIG    1       -0.013   1.086   0.008  0.00  0.00    +0.050 C 
ATOM      8  C   LIG    1        0.460   1.806  -1.256  0.00  0.00    +0.040 C 
ATOM      9  C   LIG    1        1.335   1.811  -0.001  0.00  0.00    +0.040 C 
ENDBRANCH   5   7
BRANCH   1  11
ATOM     10  N   LIG    1       -4.996   1.723   3.505  0.00  0.00    -0.390 NA
ATOM     11  C   LIG    1       -4.077   1.878   2.856  0.00  0.00    +0.300 C 
ENDBRANCH   1  11
TORSDOF 2
