REMARK  Name = ZINCvU0000000H7B.0
REMARK                            x       y       z     vdW  Elec       q    Type
REMARK                         _______ _______ _______ _____ _____    ______ ____
ROOT
ATOM      1  C   LIG    1       -2.180   8.962   1.224  0.00  0.00    +0.210 A 
ATOM      2  N   LIG    1       -3.299   9.515   1.643  0.00  0.00    -0.450 NA
ATOM      3  C   LIG    1       -4.419   8.812   1.822  0.00  0.00    +0.130 A 
ATOM      4  C   LIG    1       -5.600   9.431   2.270  0.00  0.00    +0.040 A 
ATOM      5  C   LIG    1       -6.728   8.687   2.443  0.00  0.00    +0.030 A 
ATOM      6  C   LIG    1       -6.733   7.319   2.184  0.00  0.00    +0.020 A 
ATOM      7  C   LIG    1       -5.606   6.685   1.749  0.00  0.00    +0.060 A 
ATOM      8  C   LIG    1       -4.431   7.419   1.560  0.00  0.00    -0.070 A 
ATOM      9  C   LIG    1       -3.198   6.782   1.095  0.00  0.00    -0.070 A 
ATOM     10  C   LIG    1       -2.082   7.590   0.943  0.00  0.00    +0.010 A 
ENDROOT
BRANCH   1  14
ATOM     11  C   LIG    1        1.260  11.412   0.727  0.00  0.00    +0.140 A 
ATOM     12  C   LIG    1        0.068  11.972   1.167  0.00  0.00    -0.020 A 
ATOM     13  C   LIG    1       -1.049  11.181   1.329  0.00  0.00    +0.110 A 
ATOM     14  C   LIG    1       -0.981   9.816   1.051  0.00  0.00    -0.100 A 
ATOM     15  C   LIG    1        0.219   9.255   0.614  0.00  0.00    +0.070 A 
ATOM     16  C   LIG    1        1.331  10.053   0.449  0.00  0.00    -0.080 A 
BRANCH  11  18
ATOM     17  C   LIG    1        3.551  11.553   0.113  0.00  0.00    +0.240 C 
ATOM     18  O   LIG    1        2.359  12.194   0.569  0.00  0.00    -0.310 OA
ENDBRANCH  11  18
ENDBRANCH   1  14
BRANCH   9  19
ATOM     19  C   LIG    1       -3.144   5.332   0.804  0.00  0.00    +0.570 C 
ATOM     20  N   LIG    1       -2.029   4.793   0.274  0.00  0.00    -0.710 N 
ATOM     21  H   LIG    1       -1.261   5.355   0.083  0.00  0.00    +0.400 HD
ATOM     22  O   LIG    1       -4.105   4.628   1.043  0.00  0.00    -0.520 OA
BRANCH  20  23
ATOM     23  C   LIG    1       -1.975   3.357  -0.015  0.00  0.00    +0.290 C 
ATOM     24  C   LIG    1       -0.951   3.103  -1.119  0.00  0.00    +0.020 C 
ATOM     25  C   LIG    1       -0.750   1.589  -1.253  0.00  0.00    +0.030 C 
ATOM     26  C   LIG    1       -0.012   1.090  -0.012  0.00  0.00    +0.080 C 
ATOM     27  C   LIG    1       -0.699   1.570   1.240  0.00  0.00    -0.070 A 
ATOM     28  C   LIG    1       -0.400   0.921   2.430  0.00  0.00    -0.010 A 
ATOM     29  C   LIG    1       -0.992   1.316   3.612  0.00  0.00    +0.010 A 
ATOM     30  C   LIG    1       -1.890   2.367   3.612  0.00  0.00    -0.010 A 
ATOM     31  C   LIG    1       -2.189   3.011   2.431  0.00  0.00    +0.020 A 
ATOM     32  C   LIG    1       -1.596   2.614   1.240  0.00  0.00    -0.100 A 
ENDBRANCH  20  23
ENDBRANCH   9  19
TORSDOF 4
