REMARK  Name = ZINCtV00000L6joc.0
REMARK                            x       y       z     vdW  Elec       q    Type
REMARK                         _______ _______ _______ _____ _____    ______ ____
ROOT
ATOM      1  C   LIG    1       -2.553   3.869   0.044  0.00  0.00    +0.190 C 
ATOM      2  C   LIG    1       -3.339   3.496  -1.179  0.00  0.00    -0.100 C 
ATOM      3  C   LIG    1       -4.372   2.615  -1.108  0.00  0.00    +0.160 C 
ATOM      4  N   LIG    1       -4.719   2.055   0.100  0.00  0.00    -0.640 N 
ATOM      5  H   LIG    1       -5.242   1.238   0.119  0.00  0.00    +0.420 HD
ATOM      6  C   LIG    1       -4.332   2.640   1.275  0.00  0.00    +0.220 C 
ATOM      7  C   LIG    1       -5.087   2.288   2.533  0.00  0.00    +0.090 C 
ATOM      8  C   LIG    1       -4.149   2.378   3.738  0.00  0.00    +0.060 C 
ATOM      9  C   LIG    1       -3.583   3.800   3.807  0.00  0.00    +0.030 C 
ATOM     10  C   LIG    1       -2.898   4.118   2.506  0.00  0.00    +0.400 C 
ATOM     11  O   LIG    1       -1.978   4.911   2.495  0.00  0.00    -0.460 OA
ATOM     12  C   LIG    1       -3.303   3.514   1.303  0.00  0.00    -0.260 C 
ENDROOT
BRANCH   1  17
ATOM     13  C   LIG    1        2.490   1.048  -0.016  0.00  0.00    +0.080 C 
ATOM     14  C   LIG    1        1.175   1.783   0.000  0.00  0.00    -0.090 A 
ATOM     15  C   LIG    1       -0.013   1.076   0.008  0.00  0.00    +0.000 A 
ATOM     16  C   LIG    1       -1.219   1.751   0.017  0.00  0.00    +0.010 A 
ATOM     17  C   LIG    1       -1.238   3.133   0.029  0.00  0.00    -0.080 A 
ATOM     18  C   LIG    1       -0.050   3.840   0.022  0.00  0.00    +0.030 A 
ATOM     19  C   LIG    1        1.156   3.165   0.008  0.00  0.00    +0.000 A 
ENDBRANCH   1  17
BRANCH   2  20
ATOM     20  C   LIG    1       -2.995   4.079  -2.441  0.00  0.00    +0.260 C 
ATOM     21  N   LIG    1       -2.722   4.540  -3.442  0.00  0.00    -0.400 NA
ENDBRANCH   2  20
BRANCH   3  22
ATOM     22  S   LIG    1       -5.268   2.191  -2.564  0.00  0.00    -0.030 S 
BRANCH  22  23
ATOM     23  C   LIG    1       -6.469   1.030  -1.867  0.00  0.00    +0.120 C 
BRANCH  23  24
ATOM     24  C   LIG    1       -7.370   0.520  -2.963  0.00  0.00    -0.080 A 
ATOM     25  C   LIG    1       -7.026  -0.618  -3.667  0.00  0.00    +0.050 A 
ATOM     26  C   LIG    1       -7.852  -1.085  -4.673  0.00  0.00    +0.030 A 
ATOM     27  C   LIG    1       -9.022  -0.414  -4.974  0.00  0.00    +0.050 A 
ATOM     28  C   LIG    1       -9.367   0.725  -4.271  0.00  0.00    +0.030 A 
ATOM     29  C   LIG    1       -8.544   1.189  -3.260  0.00  0.00    -0.020 A 
ATOM     30 CL   LIG    1       -8.981   2.614  -2.370  0.00  0.00    -0.060 Cl
ENDBRANCH  23  24
ENDBRANCH  22  23
ENDBRANCH   3  22
TORSDOF 5
