REMARK  Name = ZINCvU0000000HMD.0
REMARK                            x       y       z     vdW  Elec       q    Type
REMARK                         _______ _______ _______ _____ _____    ______ ____
ROOT
ATOM      1  C   LIG    1       -0.300   5.608   0.286  0.00  0.00    +0.080 A 
ATOM      2  C   LIG    1        0.837   6.371   0.089  0.00  0.00    +0.110 A 
ATOM      3  C   LIG    1        2.066   5.763  -0.122  0.00  0.00    -0.080 A 
ATOM      4  C   LIG    1        2.172   4.402  -0.154  0.00  0.00    +0.120 A 
ATOM      5  C   LIG    1        1.030   3.607   0.014  0.00  0.00    -0.150 A 
ATOM      6  C   LIG    1        1.120   2.192  -0.052  0.00  0.00    +0.230 A 
ATOM      7  C   LIG    1       -0.061   1.466  -0.071  0.00  0.00    -0.160 A 
ATOM      8  C   LIG    1       -1.323   2.229  -0.058  0.00  0.00    +0.530 A 
ATOM      9  O   LIG    1       -2.342   1.765  -0.535  0.00  0.00    -0.400 OA
ATOM     10  O   LIG    1       -1.309   3.459   0.507  0.00  0.00    -0.260 OA
ATOM     11  C   LIG    1       -0.212   4.217   0.265  0.00  0.00    +0.140 A 
ENDROOT
BRANCH   7  12
ATOM     12  C   LIG    1       -0.056  -0.008  -0.108  0.00  0.00    +0.240 A 
ATOM     13  N   LIG    1       -1.114  -0.799  -0.128  0.00  0.00    -0.440 NA
ATOM     14  C   LIG    1       -0.624  -2.056  -0.161  0.00  0.00    +0.220 A 
ATOM     15  N   LIG    1        0.682  -1.967  -0.159  0.00  0.00    -0.370 NA
ATOM     16  O   LIG    1        1.026  -0.804  -0.134  0.00  0.00    +0.090 OA
BRANCH  14  17
ATOM     17  C   LIG    1       -1.419  -3.308  -0.193  0.00  0.00    -0.020 A 
ATOM     18  C   LIG    1       -2.812  -3.253  -0.186  0.00  0.00    +0.090 A 
ATOM     19  C   LIG    1       -3.547  -4.420  -0.222  0.00  0.00    +0.030 A 
ATOM     20  C   LIG    1       -2.903  -5.645  -0.253  0.00  0.00    -0.020 A 
ATOM     21  C   LIG    1       -1.520  -5.706  -0.255  0.00  0.00    +0.030 A 
ATOM     22 CL   LIG    1       -3.833  -7.111  -0.290  0.00  0.00    -0.060 Cl
ATOM     23  C   LIG    1       -0.776  -4.544  -0.226  0.00  0.00    +0.070 A 
ENDBRANCH  14  17
ENDBRANCH   7  12
BRANCH   3  24
ATOM     24  C   LIG    1        3.296   6.613  -0.317  0.00  0.00    -0.030 C 
ATOM     25  C   LIG    1        4.317   6.291   0.776  0.00  0.00    +0.050 C 
ATOM     26  C   LIG    1        2.911   8.092  -0.237  0.00  0.00    +0.040 C 
ATOM     27  C   LIG    1        3.907   6.318  -1.688  0.00  0.00    +0.050 C 
ENDBRANCH   3  24
BRANCH   1  28
ATOM     28  O   LIG    1       -1.499   6.212   0.500  0.00  0.00    -0.280 OA
BRANCH  28  30
ATOM     29  C   LIG    1       -3.283   6.860   2.079  0.00  0.00    +0.180 C 
ATOM     30  C   LIG    1       -1.913   6.313   1.773  0.00  0.00    +0.460 C 
ATOM     31  O   LIG    1       -1.185   5.966   2.673  0.00  0.00    -0.490 OA
ENDBRANCH  28  30
ENDBRANCH   1  28
TORSDOF 5
