REMARK  Name = ZINCAx0000000dFm.0
REMARK                            x       y       z     vdW  Elec       q    Type
REMARK                         _______ _______ _______ _____ _____    ______ ____
ROOT
ATOM      1  C   LIG    1        1.328   6.019   5.219  0.00  0.00    +0.500 C 
ATOM      2  N   LIG    1        1.744   4.740   5.143  0.00  0.00    -0.670 N 
ATOM      3  H   LIG    1        2.102   4.299   5.929  0.00  0.00    +0.420 HD
ATOM      4  O   LIG    1        0.803   6.544   4.259  0.00  0.00    -0.500 OA
ENDROOT
BRANCH   2   5
ATOM      5  C   LIG    1        1.659   4.047   3.930  0.00  0.00    +0.200 A 
ATOM      6  C   LIG    1        0.597   4.283   3.067  0.00  0.00    +0.000 A 
ATOM      7  C   LIG    1        0.516   3.598   1.871  0.00  0.00    +0.140 A 
ATOM      8  C   LIG    1        1.491   2.677   1.532  0.00  0.00    -0.680 A 
ATOM      9  C   LIG    1        2.546   2.436   2.392  0.00  0.00    +0.190 A 
ATOM     10  C   LIG    1        2.636   3.121   3.588  0.00  0.00    -0.030 A 
BRANCH   8  11
ATOM     11  S   LIG    1        1.383   1.805   0.005  0.00  0.00    +2.690 S 
ATOM     12  O   LIG    1        2.133   0.609   0.172  0.00  0.00    -0.930 OA
ATOM     13  O   LIG    1        0.013   1.817  -0.369  0.00  0.00    -0.950 OA
BRANCH  11  14
ATOM     14  N   LIG    1        2.185   2.705  -1.131  0.00  0.00    -1.030 N 
ATOM     15  H   LIG    1        1.698   3.092  -1.875  0.00  0.00    +0.430 HD
BRANCH  14  16
ATOM     16  C   LIG    1        3.538   2.897  -1.022  0.00  0.00    +0.400 C 
ATOM     17  N   LIG    1        4.174   2.389  -0.037  0.00  0.00    -0.580 NA
ATOM     18  C   LIG    1        5.626   2.582   0.094  0.00  0.00    +0.220 C 
ATOM     19  C   LIG    1        6.339   1.739  -0.965  0.00  0.00    +0.000 C 
ATOM     20  C   LIG    1        6.451   2.502  -2.274  0.00  0.00    +0.000 C 
ATOM     21  C   LIG    1        5.106   2.769  -2.929  0.00  0.00    +0.030 C 
ATOM     22  C   LIG    1        4.266   3.715  -2.066  0.00  0.00    +0.070 C 
ENDBRANCH  14  16
ENDBRANCH  11  14
ENDBRANCH   8  11
ENDBRANCH   2   5
BRANCH   1  23
ATOM     23  C   LIG    1        1.515   6.799   6.495  0.00  0.00    +0.370 C 
BRANCH  23  28
ATOM     24  C   LIG    1        0.757  10.379   5.862  0.00  0.00    +0.170 C 
ATOM     25  N   LIG    1       -0.511   9.808   6.347  0.00  0.00    -0.710 N 
ATOM     26  H   LIG    1       -1.350  10.279   6.469  0.00  0.00    +0.440 HD
ATOM     27  C   LIG    1       -0.278   8.505   6.589  0.00  0.00    +0.710 C 
ATOM     28  N   LIG    1        0.984   8.153   6.322  0.00  0.00    -0.560 N 
ATOM     29  O   LIG    1       -1.121   7.734   7.004  0.00  0.00    -0.530 OA
ATOM     30  C   LIG    1        1.710   9.200   5.881  0.00  0.00    +0.540 C 
ATOM     31  O   LIG    1        2.880   9.198   5.563  0.00  0.00    -0.450 OA
BRANCH  24  32
ATOM     32  C   LIG    1        1.242  11.461   6.792  0.00  0.00    -0.100 A 
ATOM     33  C   LIG    1        2.005  12.504   6.301  0.00  0.00    +0.040 A 
ATOM     34  C   LIG    1        2.445  13.499   7.153  0.00  0.00    +0.010 A 
ATOM     35  C   LIG    1        2.131  13.447   8.498  0.00  0.00    +0.020 A 
ATOM     36  C   LIG    1        1.372  12.402   8.990  0.00  0.00    +0.010 A 
ATOM     37  C   LIG    1        0.928  11.409   8.137  0.00  0.00    +0.020 A 
ENDBRANCH  24  32
BRANCH  24  39
ATOM     38  C   LIG    1        0.034   9.827   3.535  0.00  0.00    +0.030 C 
ATOM     39  C   LIG    1        0.593  10.925   4.442  0.00  0.00    +0.060 C 
ENDBRANCH  24  39
ENDBRANCH  23  28
ENDBRANCH   1  23
TORSDOF 8
