REMARK  Name = ZINCrg000000sOou.0
REMARK                            x       y       z     vdW  Elec       q    Type
REMARK                         _______ _______ _______ _____ _____    ______ ____
ROOT
ATOM      1  C   LIG    1        1.913   8.868  -3.947  0.00  0.00    +0.570 C 
ATOM      2  N   LIG    1        0.749   8.322  -3.544  0.00  0.00    -0.710 N 
ATOM      3  H   LIG    1       -0.001   8.894  -3.314  0.00  0.00    +0.400 HD
ATOM      4  O   LIG    1        2.853   8.151  -4.234  0.00  0.00    -0.510 OA
ENDROOT
BRANCH   1  11
ATOM      5  C   LIG    1        1.724  15.554  -4.106  0.00  0.00    +0.390 C 
ATOM      6  N   LIG    1        2.562  14.377  -4.344  0.00  0.00    -0.380 N 
ATOM      7  N   LIG    1        3.893  14.374  -4.785  0.00  0.00    +0.020 NA
ATOM      8  N   LIG    1        4.311  13.161  -4.883  0.00  0.00    -0.190 NA
ATOM      9  C   LIG    1        3.326  12.302  -4.529  0.00  0.00    -0.070 A 
ATOM     10  C   LIG    1        3.252  10.908  -4.452  0.00  0.00    +0.260 A 
ATOM     11  C   LIG    1        2.049  10.336  -4.040  0.00  0.00    -0.210 A 
ATOM     12  C   LIG    1        0.971  11.168  -3.711  0.00  0.00    +0.390 A 
ATOM     13  N   LIG    1        1.074  12.475  -3.789  0.00  0.00    -0.480 NA
ATOM     14  C   LIG    1        2.196  13.066  -4.180  0.00  0.00    +0.290 A 
ENDBRANCH   1  11
BRANCH   2  15
ATOM     15  C   LIG    1        0.614   6.867  -3.451  0.00  0.00    +0.250 C 
ATOM     16  C   LIG    1       -0.868   6.450  -3.592  0.00  0.00    +0.060 C 
ATOM     17  C   LIG    1       -1.316   6.378  -2.115  0.00  0.00    +0.270 C 
ATOM     18  N   LIG    1       -0.094   6.114  -1.347  0.00  0.00    -0.610 N 
ATOM     19  C   LIG    1        1.006   6.391  -2.069  0.00  0.00    +0.510 C 
ATOM     20  O   LIG    1        2.146   6.274  -1.672  0.00  0.00    -0.500 OA
BRANCH  18  21
ATOM     21  C   LIG    1       -0.074   5.619   0.032  0.00  0.00    +0.350 C 
BRANCH  21  22
ATOM     22  C   LIG    1       -0.054   4.112   0.024  0.00  0.00    -0.130 A 
ATOM     23  C   LIG    1        1.153   3.438   0.009  0.00  0.00    +0.070 A 
ATOM     24  C   LIG    1        1.173   2.056   0.002  0.00  0.00    -0.010 A 
ATOM     25  C   LIG    1       -0.016   1.347   0.009  0.00  0.00    +0.100 A 
ATOM     26  C   LIG    1       -1.224   2.023   0.019  0.00  0.00    -0.020 A 
ATOM     27  F   LIG    1        0.002  -0.004   0.002  0.00  0.00    -0.140 F 
ATOM     28  C   LIG    1       -1.242   3.405   0.031  0.00  0.00    +0.050 A 
ENDBRANCH  21  22
ENDBRANCH  18  21
ENDBRANCH   2  15
TORSDOF 4
