REMARK  Name = ZINCpk00000y5zAS.0
REMARK                            x       y       z     vdW  Elec       q    Type
REMARK                         _______ _______ _______ _____ _____    ______ ____
ROOT
ATOM      1  C   LIG    1       -3.526   9.847   1.382  0.00  0.00    +0.140 C 
ATOM      2  C   LIG    1       -4.915   9.204   1.361  0.00  0.00    +0.060 C 
ATOM      3  C   LIG    1       -4.775   7.681   1.391  0.00  0.00    +0.030 C 
ATOM      4  C   LIG    1       -4.009   7.217   0.148  0.00  0.00    +0.280 C 
ATOM      5  N   LIG    1       -2.731   7.940   0.083  0.00  0.00    -0.590 N 
ATOM      6  C   LIG    1       -1.568   7.268  -0.024  0.00  0.00    +0.570 C 
ATOM      7  O   LIG    1       -1.573   6.059  -0.148  0.00  0.00    -0.520 OA
ATOM      8  C   LIG    1       -2.746   9.408   0.144  0.00  0.00    +0.250 C 
ENDROOT
BRANCH   6   9
ATOM      9  C   LIG    1       -0.285   8.002   0.009  0.00  0.00    -0.170 A 
ATOM     10  C   LIG    1       -0.121   9.160  -0.742  0.00  0.00    +0.120 A 
ATOM     11  C   LIG    1        1.118   9.819  -0.675  0.00  0.00    -0.090 A 
ATOM     12  C   LIG    1        1.359  10.994  -1.407  0.00  0.00    +0.040 A 
ATOM     13  C   LIG    1        2.572  11.607  -1.319  0.00  0.00    +0.050 A 
ATOM     14  C   LIG    1        3.579  11.084  -0.511  0.00  0.00    +0.020 A 
ATOM     15  C   LIG    1        3.383   9.943   0.208  0.00  0.00    +0.130 A 
ATOM     16  F   LIG    1        4.375   9.449   0.981  0.00  0.00    -0.120 F 
ATOM     17  C   LIG    1        2.141   9.284   0.148  0.00  0.00    +0.110 A 
ATOM     18  N   LIG    1        1.923   8.165   0.849  0.00  0.00    -0.460 NA
ATOM     19  C   LIG    1        0.778   7.535   0.801  0.00  0.00    +0.350 A 
ENDBRANCH   6   9
BRANCH   1  20
ATOM     20  O   LIG    1       -2.826   9.430   2.556  0.00  0.00    -0.530 OA
ATOM     21  H   LIG    1       -1.936   9.800   2.635  0.00  0.00    +0.370 HD
ENDBRANCH   1  20
BRANCH   1  22
ATOM     22  C   LIG    1       -3.668  11.370   1.384  0.00  0.00    +0.040 C 
BRANCH  22  26
ATOM     23  C   LIG    1       -5.179  13.550   4.144  0.00  0.00    +0.290 C 
ATOM     24  N   LIG    1       -4.539  13.121   2.898  0.00  0.00    -0.740 N 
ATOM     25  H   LIG    1       -4.269  13.781   2.240  0.00  0.00    +0.400 HD
ATOM     26  C   LIG    1       -4.327  11.811   2.666  0.00  0.00    +0.510 C 
ATOM     27  O   LIG    1       -4.665  10.987   3.489  0.00  0.00    -0.510 OA
ENDBRANCH  22  26
ENDBRANCH   1  22
TORSDOF 4
