REMARK  Name = ZINCpe000000UVYM.0
REMARK                            x       y       z     vdW  Elec       q    Type
REMARK                         _______ _______ _______ _____ _____    ______ ____
ROOT
ATOM      1  C   LIG    1        4.615  -6.319   2.555  0.00  0.00    +0.220 C 
ATOM      2  C   LIG    1        5.873  -5.950   3.356  0.00  0.00    +0.040 C 
ATOM      3  C   LIG    1        5.461  -5.467   4.748  0.00  0.00    +0.020 C 
ATOM      4  C   LIG    1        4.588  -4.217   4.620  0.00  0.00    +0.010 C 
ATOM      5  C   LIG    1        3.320  -4.564   3.833  0.00  0.00    +0.280 C 
ATOM      6  N   LIG    1        3.708  -5.163   2.550  0.00  0.00    -0.600 N 
ATOM      7  C   LIG    1        3.238  -4.666   1.389  0.00  0.00    +0.520 C 
ATOM      8  O   LIG    1        3.619  -5.125   0.333  0.00  0.00    -0.500 OA
ENDROOT
BRANCH   1  12
ATOM      9  C   LIG    1        4.976  -8.179  -0.771  0.00  0.00    +0.290 C 
ATOM     10  N   LIG    1        4.604  -7.840   0.605  0.00  0.00    -0.740 N 
ATOM     11  H   LIG    1        4.073  -8.459   1.130  0.00  0.00    +0.400 HD
ATOM     12  C   LIG    1        4.998  -6.668   1.140  0.00  0.00    +0.530 C 
ATOM     13  O   LIG    1        5.662  -5.894   0.484  0.00  0.00    -0.520 OA
ENDBRANCH   1  12
BRANCH   7  14
ATOM     14  C   LIG    1        2.237  -3.539   1.403  0.00  0.00    +0.050 C 
BRANCH  14  15
ATOM     15  C   LIG    1        1.870  -3.165  -0.035  0.00  0.00    +0.350 C 
BRANCH  15  16
ATOM     16  N   LIG    1        0.897  -2.070  -0.021  0.00  0.00    -0.540 N 
ATOM     17  C   LIG    1       -0.442  -2.205   0.007  0.00  0.00    +0.680 A 
ATOM     18  N   LIG    1       -1.021  -0.990   0.012  0.00  0.00    -0.540 N 
ATOM     19  C   LIG    1       -0.016  -0.025  -0.014  0.00  0.00    +0.090 A 
ATOM     20  C   LIG    1       -0.028   1.361  -0.021  0.00  0.00    +0.030 A 
ATOM     21  C   LIG    1        1.164   2.059  -0.049  0.00  0.00    +0.020 A 
ATOM     22  C   LIG    1        2.370   1.380  -0.070  0.00  0.00    +0.020 A 
ATOM     23  C   LIG    1        2.392  -0.002  -0.064  0.00  0.00    +0.030 A 
ATOM     24  C   LIG    1       -2.462  -0.726   0.041  0.00  0.00    +0.340 C 
ATOM     25  O   LIG    1       -1.039  -3.265   0.025  0.00  0.00    -0.550 OA
ATOM     26  C   LIG    1        1.201  -0.710  -0.035  0.00  0.00    +0.090 A 
ENDBRANCH  15  16
ENDBRANCH  14  15
ENDBRANCH   7  14
TORSDOF 4
