REMARK  Name = ZINCrD0000075sdc.0
REMARK                            x       y       z     vdW  Elec       q    Type
REMARK                         _______ _______ _______ _____ _____    ______ ____
ROOT
ATOM      1  O   LIG    1       -2.468  -0.344   0.027  0.00  0.00    -0.330 OA
ENDROOT
BRANCH   1   2
ATOM      2  C   LIG    1       -2.486   1.003   0.042  0.00  0.00    +0.510 C 
ATOM      3  O   LIG    1       -3.546   1.597   0.057  0.00  0.00    -0.480 OA
BRANCH   2   4
ATOM      4  C   LIG    1       -1.218   1.757   0.042  0.00  0.00    -0.150 A 
ATOM      5  C   LIG    1       -0.012   1.075   0.024  0.00  0.00    +0.140 A 
ATOM      6  C   LIG    1        1.190   1.797   0.018  0.00  0.00    -0.080 A 
ATOM      7  C   LIG    1        2.433   1.138  -0.005  0.00  0.00    +0.040 A 
ATOM      8  C   LIG    1        3.582   1.867  -0.011  0.00  0.00    +0.010 A 
ATOM      9  C   LIG    1        3.548   3.260   0.006  0.00  0.00    +0.040 A 
ATOM     10  C   LIG    1        2.365   3.933   0.029  0.00  0.00    +0.010 A 
ATOM     11  C   LIG    1        1.156   3.216   0.035  0.00  0.00    -0.010 A 
ATOM     12  C   LIG    1       -0.081   3.883   0.058  0.00  0.00    -0.010 A 
ATOM     13  C   LIG    1       -1.241   3.168   0.063  0.00  0.00    +0.160 A 
BRANCH  13  14
ATOM     14  O   LIG    1       -2.432   3.820   0.086  0.00  0.00    -0.480 OA
ATOM     15  H   LIG    1       -2.787   4.019  -0.791  0.00  0.00    +0.400 HD
ENDBRANCH  13  14
ENDBRANCH   2   4
ENDBRANCH   1   2
BRANCH   1  16
ATOM     16  C   LIG    1       -3.753  -1.020   0.029  0.00  0.00    +0.270 C 
BRANCH  16  18
ATOM     17  O   LIG    1       -2.410  -2.960  -0.004  0.00  0.00    -0.490 OA
ATOM     18  C   LIG    1       -3.537  -2.511   0.009  0.00  0.00    +0.520 C 
ATOM     19  N   LIG    1       -4.595  -3.346   0.008  0.00  0.00    -0.660 N 
ATOM     20  H   LIG    1       -5.494  -2.990   0.086  0.00  0.00    +0.420 HD
BRANCH  19  21
ATOM     21  C   LIG    1       -4.397  -4.724  -0.105  0.00  0.00    +0.190 A 
ATOM     22  C   LIG    1       -3.307  -5.307   0.466  0.00  0.00    +0.060 A 
ATOM     23  C   LIG    1       -3.082  -6.679   0.371  0.00  0.00    +0.080 A 
ATOM     24  C   LIG    1       -3.936  -7.496  -0.293  0.00  0.00    +0.060 A 
ATOM     25  C   LIG    1       -5.093  -6.960  -0.913  0.00  0.00    +0.100 A 
ATOM     26  N   LIG    1       -6.057  -7.546  -1.606  0.00  0.00    -0.590 NA
ATOM     27  S   LIG    1       -7.091  -6.477  -2.060  0.00  0.00    +0.810 S 
ATOM     28  N   LIG    1       -6.450  -5.198  -1.449  0.00  0.00    -0.600 NA
ATOM     29  C   LIG    1       -5.338  -5.524  -0.813  0.00  0.00    +0.070 A 
ENDBRANCH  19  21
ENDBRANCH  16  18
ENDBRANCH   1  16
TORSDOF 6
