REMARK  Name = ZINCrH000004tGqU.0
REMARK                            x       y       z     vdW  Elec       q    Type
REMARK                         _______ _______ _______ _____ _____    ______ ____
ROOT
ATOM      1  O   LIG    1        6.492   6.705  -3.812  0.00  0.00    -0.510 OA
ATOM      2  C   LIG    1        6.834   7.415  -2.890  0.00  0.00    +0.510 C 
ATOM      3  N   LIG    1        7.402   8.612  -3.136  0.00  0.00    -0.670 N 
ATOM      4  H   LIG    1        7.614   9.209  -2.401  0.00  0.00    +0.420 HD
ENDROOT
BRANCH   3   5
ATOM      5  C   LIG    1        7.686   8.995  -4.453  0.00  0.00    +0.140 A 
ATOM      6  C   LIG    1        8.813   9.757  -4.728  0.00  0.00    +0.100 A 
ATOM      7  C   LIG    1        9.094  10.130  -6.028  0.00  0.00    +0.040 A 
ATOM      8  C   LIG    1        8.246   9.752  -7.056  0.00  0.00    +0.160 A 
ATOM      9  C   LIG    1        7.118   8.997  -6.783  0.00  0.00    -0.060 A 
ATOM     10  F   LIG    1        8.520  10.122  -8.326  0.00  0.00    -0.100 F 
ATOM     11  C   LIG    1        6.836   8.618  -5.485  0.00  0.00    +0.140 A 
BRANCH   9  12
ATOM     12  N   LIG    1        6.213   8.595  -7.883  0.00  0.00    +0.030 N 
ATOM     13  O   LIG    1        6.461   8.928  -9.028  0.00  0.00    -0.140 OA
ATOM     14  O   LIG    1        5.221   7.930  -7.644  0.00  0.00    -0.150 OA
ENDBRANCH   9  12
ENDBRANCH   3   5
BRANCH   2  15
ATOM     15  C   LIG    1        6.623   6.959  -1.469  0.00  0.00    +0.080 C 
BRANCH  15  16
ATOM     16  C   LIG    1        5.966   5.577  -1.469  0.00  0.00    +0.060 C 
BRANCH  16  17
ATOM     17  C   LIG    1        5.753   5.114  -0.027  0.00  0.00    +0.200 C 
BRANCH  17  18
ATOM     18  C   LIG    1        5.106   3.753  -0.027  0.00  0.00    +0.160 A 
ATOM     19  N   LIG    1        5.726   2.606  -0.032  0.00  0.00    -0.280 NA
ATOM     20  N   LIG    1        4.864   1.651  -0.031  0.00  0.00    -0.270 NA
ATOM     21  C   LIG    1        3.654   2.160  -0.025  0.00  0.00    +0.210 A 
ATOM     22  O   LIG    1        3.786   3.502  -0.029  0.00  0.00    -0.220 OA
BRANCH  21  23
ATOM     23  C   LIG    1        2.384   1.403  -0.022  0.00  0.00    -0.030 A 
ATOM     24  C   LIG    1        1.164   2.082  -0.017  0.00  0.00    +0.050 A 
ATOM     25  C   LIG    1       -0.017   1.370  -0.014  0.00  0.00    +0.010 A 
ATOM     26  C   LIG    1        0.005  -0.014  -0.018  0.00  0.00    +0.040 A 
ATOM     27  C   LIG    1        1.211  -0.692  -0.023  0.00  0.00    +0.020 A 
ATOM     28  C   LIG    1        2.400   0.008  -0.025  0.00  0.00    +0.070 A 
ENDBRANCH  21  23
ENDBRANCH  17  18
ENDBRANCH  16  17
ENDBRANCH  15  16
ENDBRANCH   2  15
TORSDOF 7
