REMARK  Name = ZINCqH0000035pa7.0
REMARK                            x       y       z     vdW  Elec       q    Type
REMARK                         _______ _______ _______ _____ _____    ______ ____
ROOT
ATOM      1  N   LIG    1        0.200   7.645  -0.161  0.00  0.00    -0.640 N 
ATOM      2  H   LIG    1        1.125   7.935  -0.168  0.00  0.00    +0.410 HD
ATOM      3  C   LIG    1       -0.094   6.333  -0.064  0.00  0.00    +0.720 C 
ATOM      4  N   LIG    1        0.898   5.425   0.023  0.00  0.00    -0.680 N 
ATOM      5  H   LIG    1        1.821   5.719   0.083  0.00  0.00    +0.410 HD
ATOM      6  O   LIG    1       -1.254   5.968  -0.056  0.00  0.00    -0.540 OA
ENDROOT
BRANCH   4   7
ATOM      7  C   LIG    1        0.598   4.058   0.027  0.00  0.00    +0.190 A 
ATOM      8  C   LIG    1       -0.562   3.605   0.650  0.00  0.00    +0.050 A 
ATOM      9  C   LIG    1       -0.866   2.273   0.667  0.00  0.00    +0.100 A 
ATOM     10  C   LIG    1       -0.015   1.357   0.046  0.00  0.00    +0.010 A 
ATOM     11  N   LIG    1       -0.040   0.005  -0.109  0.00  0.00    -0.470 NA
ATOM     12  C   LIG    1        1.015  -0.360  -0.773  0.00  0.00    +0.280 A 
ATOM     13  O   LIG    1        1.766   0.710  -1.079  0.00  0.00    -0.210 OA
ATOM     14  C   LIG    1        1.156   1.808  -0.583  0.00  0.00    +0.030 A 
ATOM     15  C   LIG    1        1.456   3.161  -0.589  0.00  0.00    +0.020 A 
BRANCH  12  16
ATOM     16  C   LIG    1        1.347  -1.782  -1.148  0.00  0.00    +0.050 C 
ATOM     17  C   LIG    1        0.280  -2.848  -0.893  0.00  0.00    +0.080 C 
ATOM     18  C   LIG    1        1.528  -2.788  -0.010  0.00  0.00    +0.060 C 
ENDBRANCH  12  16
ENDBRANCH   4   7
BRANCH   1  22
ATOM     19  N   LIG    1       -1.953  10.472  -0.416  0.00  0.00    -0.360 N 
ATOM     20  C   LIG    1       -2.870   9.484  -0.355  0.00  0.00    +0.250 A 
ATOM     21  C   LIG    1       -2.208   8.309  -0.254  0.00  0.00    -0.080 A 
ATOM     22  C   LIG    1       -0.832   8.589  -0.252  0.00  0.00    +0.310 A 
ATOM     23  N   LIG    1       -0.681   9.889  -0.345  0.00  0.00    -0.320 NA
BRANCH  19  24
ATOM     24  C   LIG    1       -2.237  11.905  -0.532  0.00  0.00    +0.280 C 
ATOM     25  C   LIG    1       -3.481  12.109  -1.399  0.00  0.00    +0.070 C 
BRANCH  24  26
ATOM     26  C   LIG    1       -2.485  12.490   0.860  0.00  0.00    +0.170 C 
BRANCH  26  28
ATOM     27  C   LIG    1       -2.884  14.554   2.011  0.00  0.00    +0.200 C 
ATOM     28  O   LIG    1       -2.647  13.906   0.759  0.00  0.00    -0.390 OA
ENDBRANCH  26  28
ENDBRANCH  24  26
ENDBRANCH  19  24
ENDBRANCH   1  22
TORSDOF 6
