REMARK  Name = ZINCrD000002HLMD.0
REMARK                            x       y       z     vdW  Elec       q    Type
REMARK                         _______ _______ _______ _____ _____    ______ ____
ROOT
ATOM      1  N   LIG    1        1.184   3.909  -1.369  0.00  0.00    -0.530 NA
ATOM      2  C   LIG    1        0.070   3.278  -2.087  0.00  0.00    +0.180 C 
ATOM      3  C   LIG    1        0.093   3.716  -3.554  0.00  0.00    +0.030 C 
ATOM      4  C   LIG    1       -0.026   5.241  -3.627  0.00  0.00    +0.000 C 
ATOM      5  C   LIG    1        1.119   5.873  -2.831  0.00  0.00    +0.250 C 
ATOM      6  C   LIG    1        1.066   5.373  -1.386  0.00  0.00    +0.170 C 
ENDROOT
BRANCH   5   7
ATOM      7  N   LIG    1        0.980   7.332  -2.849  0.00  0.00    -0.710 N 
ATOM      8  H   LIG    1        0.528   7.785  -2.120  0.00  0.00    +0.410 HD
ATOM      9  C   LIG    1        1.480   8.044  -3.878  0.00  0.00    +0.580 C 
ATOM     10  O   LIG    1        2.047   7.476  -4.792  0.00  0.00    -0.520 OA
BRANCH   9  11
ATOM     11  C   LIG    1        1.340   9.515  -3.896  0.00  0.00    +0.130 A 
ATOM     12  C   LIG    1        1.861  10.258  -4.968  0.00  0.00    -0.110 A 
ATOM     13  C   LIG    1        2.577   9.932  -6.196  0.00  0.00    -0.010 A 
ATOM     14  C   LIG    1        2.813  11.094  -6.833  0.00  0.00    +0.230 A 
ATOM     15  N   LIG    1        2.303  12.135  -6.109  0.00  0.00    -0.590 N 
ATOM     16  H   LIG    1        2.350  13.069  -6.366  0.00  0.00    +0.420 HD
ATOM     17  C   LIG    1        1.714  11.663  -4.963  0.00  0.00    +0.120 A 
ATOM     18  C   LIG    1        1.056  12.250  -3.889  0.00  0.00    -0.010 A 
ATOM     19  C   LIG    1        0.574  11.444  -2.874  0.00  0.00    +0.270 A 
ATOM     20  N   LIG    1        0.717  10.135  -2.902  0.00  0.00    -0.470 NA
ENDBRANCH   9  11
ENDBRANCH   5   7
BRANCH   1  21
ATOM     21  C   LIG    1        1.276   3.404   0.007  0.00  0.00    +0.270 C 
BRANCH  21  24
ATOM     22  C   LIG    1        0.002  -0.004   0.002  0.00  0.00    +0.050 A 
ATOM     23  N   LIG    1       -0.015   1.286   0.009  0.00  0.00    -0.470 NA
ATOM     24  C   LIG    1        1.149   1.903   0.001  0.00  0.00    +0.070 A 
ATOM     25  C   LIG    1        2.208   1.087  -0.013  0.00  0.00    -0.060 A 
ATOM     26  S   LIG    1        1.615  -0.572  -0.016  0.00  0.00    +0.120 S 
BRANCH  22  27
ATOM     27  C   LIG    1       -1.222  -0.883   0.009  0.00  0.00    +0.140 C 
BRANCH  27  29
ATOM     28  C   LIG    1       -2.892  -2.066  -1.424  0.00  0.00    +0.030 C 
ATOM     29  C   LIG    1       -1.650  -1.173  -1.431  0.00  0.00    +0.010 C 
ENDBRANCH  27  29
ENDBRANCH  22  27
ENDBRANCH  21  24
ENDBRANCH   1  21
TORSDOF 6
