REMARK  Name = ZINCrg000000mYF6.0
REMARK                            x       y       z     vdW  Elec       q    Type
REMARK                         _______ _______ _______ _____ _____    ______ ____
ROOT
ATOM      1  C   LIG    1        4.826   6.700   3.488  0.00  0.00    -0.680 A 
ATOM      2  C   LIG    1        4.209   7.869   3.079  0.00  0.00    +0.160 A 
ATOM      3  C   LIG    1        2.909   7.844   2.606  0.00  0.00    +0.000 A 
ATOM      4  C   LIG    1        2.220   6.651   2.538  0.00  0.00    +0.100 A 
ATOM      5  C   LIG    1        2.836   5.468   2.948  0.00  0.00    -0.160 A 
ATOM      6  C   LIG    1        4.146   5.501   3.429  0.00  0.00    +0.190 A 
ENDROOT
BRANCH   5   7
ATOM      7  C   LIG    1        2.102   4.186   2.879  0.00  0.00    +0.570 C 
ATOM      8  N   LIG    1        0.758   4.173   2.968  0.00  0.00    -0.610 N 
ATOM      9  C   LIG    1       -0.011   2.930   2.787  0.00  0.00    +0.300 C 
ATOM     10  C   LIG    1       -0.720   2.623   4.106  0.00  0.00    +0.110 C 
ATOM     11  C   LIG    1       -1.398   3.851   4.647  0.00  0.00    -0.230 A 
ATOM     12  C   LIG    1       -1.065   5.111   4.278  0.00  0.00    +0.150 A 
ATOM     13  N   LIG    1       -1.696   6.154   4.838  0.00  0.00    -0.540 NA
ATOM     14  C   LIG    1       -2.640   5.996   5.722  0.00  0.00    +0.590 A 
ATOM     15  N   LIG    1       -3.033   4.768   6.116  0.00  0.00    -0.630 N 
ATOM     16  H   LIG    1       -3.744   4.670   6.768  0.00  0.00    +0.420 HD
ATOM     17  C   LIG    1       -2.429   3.678   5.602  0.00  0.00    +0.520 A 
ATOM     18  O   LIG    1       -2.768   2.559   5.951  0.00  0.00    -0.530 OA
ATOM     19  C   LIG    1        0.000   5.398   3.250  0.00  0.00    +0.360 C 
ATOM     20  O   LIG    1        2.712   3.144   2.741  0.00  0.00    -0.520 OA
ENDBRANCH   5   7
BRANCH   1  21
ATOM     21  S   LIG    1        6.481   6.743   4.090  0.00  0.00    +2.690 S 
ATOM     22  O   LIG    1        6.992   8.029   3.769  0.00  0.00    -0.950 OA
ATOM     23  O   LIG    1        7.095   5.534   3.663  0.00  0.00    -0.950 OA
BRANCH  21  24
ATOM     24  N   LIG    1        6.404   6.669   5.742  0.00  0.00    -1.110 NA
ATOM     25  H   LIG    1        6.754   5.895   6.210  0.00  0.00    +0.420 HD
BRANCH  24  27
ATOM     26  C   LIG    1        4.388   8.032   5.987  0.00  0.00    +0.030 C 
ATOM     27  C   LIG    1        5.806   7.773   6.498  0.00  0.00    +0.170 C 
ATOM     28  C   LIG    1        6.653   9.034   6.313  0.00  0.00    +0.050 C 
ATOM     29  C   LIG    1        5.755   7.407   7.982  0.00  0.00    +0.050 C 
ENDBRANCH  24  27
ENDBRANCH  21  24
ENDBRANCH   1  21
TORSDOF 4
