REMARK  Name = ZINCBI0000000e0U.0
REMARK                            x       y       z     vdW  Elec       q    Type
REMARK                         _______ _______ _______ _____ _____    ______ ____
ROOT
ATOM      1  C   LIG    1       -8.293   3.124   0.097  0.00  0.00    +0.270 C 
ATOM      2  C   LIG    1       -6.801   2.737   0.075  0.00  0.00    +0.110 C 
ATOM      3  C   LIG    1       -6.080   4.066   0.081  0.00  0.00    +0.240 C 
ATOM      4  N   LIG    1       -6.941   5.023   0.094  0.00  0.00    -0.280 NA
ATOM      5  N   LIG    1       -8.267   4.596   0.104  0.00  0.00    -0.450 N 
ATOM      6  C   LIG    1       -9.350   5.399   0.118  0.00  0.00    +0.540 C 
ATOM      7  O   LIG    1      -10.463   4.916   0.125  0.00  0.00    -0.510 OA
ENDROOT
BRANCH   1  12
ATOM      8  C   LIG    1      -10.408   1.013   2.409  0.00  0.00    +0.140 A 
ATOM      9  C   LIG    1      -10.194   1.641   3.627  0.00  0.00    -0.070 A 
ATOM     10  C   LIG    1       -9.366   2.745   3.698  0.00  0.00    +0.060 A 
ATOM     11  C   LIG    1       -8.748   3.221   2.557  0.00  0.00    -0.030 A 
ATOM     12  C   LIG    1       -8.964   2.600   1.340  0.00  0.00    -0.060 A 
ATOM     13  C   LIG    1       -9.790   1.496   1.264  0.00  0.00    +0.000 A 
BRANCH   8  15
ATOM     14  C   LIG    1      -11.823  -0.515   3.556  0.00  0.00    +0.250 C 
ATOM     15  O   LIG    1      -11.221  -0.073   2.338  0.00  0.00    -0.310 OA
ENDBRANCH   8  15
ENDBRANCH   1  12
BRANCH   3  16
ATOM     16  C   LIG    1       -4.616   4.239   0.068  0.00  0.00    -0.200 A 
ATOM     17  C   LIG    1       -3.676   3.245   0.054  0.00  0.00    +0.310 A 
ATOM     18  N   LIG    1       -2.457   3.824   0.046  0.00  0.00    -0.300 N 
ATOM     19  N   LIG    1       -2.602   5.215   0.060  0.00  0.00    -0.260 NA
ATOM     20  C   LIG    1       -3.884   5.508   0.067  0.00  0.00    +0.160 A 
BRANCH  18  21
ATOM     21  C   LIG    1       -1.236   3.138   0.031  0.00  0.00    +0.140 A 
ATOM     22  C   LIG    1       -1.218   1.749   0.017  0.00  0.00    +0.000 A 
ATOM     23  C   LIG    1       -0.013   1.076   0.008  0.00  0.00    +0.050 A 
ATOM     24  C   LIG    1        1.176   1.783   0.000  0.00  0.00    +0.010 A 
ATOM     25  C   LIG    1        1.161   3.166   0.007  0.00  0.00    +0.050 A 
ATOM     26  C   LIG    1       -0.041   3.845   0.023  0.00  0.00    +0.030 A 
ENDBRANCH  18  21
BRANCH  20  27
ATOM     27  C   LIG    1       -4.477   6.867   0.080  0.00  0.00    -0.020 A 
ATOM     28  C   LIG    1       -5.666   7.118  -0.604  0.00  0.00    +0.070 A 
ATOM     29  C   LIG    1       -6.216   8.383  -0.584  0.00  0.00    -0.040 A 
ATOM     30  C   LIG    1       -5.584   9.404   0.102  0.00  0.00    +0.020 A 
ATOM     31  C   LIG    1       -4.402   9.163   0.778  0.00  0.00    +0.010 A 
ATOM     32  C   LIG    1       -3.845   7.900   0.770  0.00  0.00    +0.050 A 
ENDBRANCH  20  27
ENDBRANCH   3  16
BRANCH   6  33
ATOM     33  C   LIG    1       -9.178   6.896   0.124  0.00  0.00    +0.310 C 
BRANCH  33  34
ATOM     34  N   LIG    1      -10.497   7.540   0.139  0.00  0.00    -0.500 N 
ATOM     35  H   LIG    1      -11.001   7.257   0.966  0.00  0.00    +0.440 HD
ATOM     36  H   LIG    1      -11.016   7.265  -0.682  0.00  0.00    +0.430 HD
BRANCH  34  37
ATOM     37  C   LIG    1      -10.329   9.000   0.144  0.00  0.00    +0.290 C 
BRANCH  37  38
ATOM     38  C   LIG    1      -11.704   9.671   0.160  0.00  0.00    +0.220 C 
BRANCH  38  39
ATOM     39  O   LIG    1      -12.371   9.363   1.385  0.00  0.00    -0.580 OA
ATOM     40  H   LIG    1      -13.251   9.757   1.464  0.00  0.00    +0.410 HD
ENDBRANCH  38  39
ENDBRANCH  37  38
ENDBRANCH  34  37
ENDBRANCH  33  34
ENDBRANCH   6  33
TORSDOF 10
