REMARK  Name = ZINCvU0000000IBW.0
REMARK                            x       y       z     vdW  Elec       q    Type
REMARK                         _______ _______ _______ _____ _____    ______ ____
ROOT
ATOM      1  O   LIG    1       -4.780   6.671   7.471  0.00  0.00    -0.490 OA
ATOM      2  C   LIG    1       -4.564   7.284   6.442  0.00  0.00    +0.560 A 
ATOM      3  C   LIG    1       -5.638   8.007   5.747  0.00  0.00    -0.200 A 
ATOM      4  C   LIG    1       -6.945   8.025   6.232  0.00  0.00    +0.100 A 
ATOM      5  C   LIG    1       -7.915   8.718   5.543  0.00  0.00    +0.000 A 
ATOM      6  C   LIG    1       -7.603   9.398   4.372  0.00  0.00    +0.070 A 
ATOM      7  C   LIG    1       -6.319   9.394   3.876  0.00  0.00    +0.030 A 
ATOM      8  C   LIG    1       -5.316   8.698   4.556  0.00  0.00    +0.170 A 
ATOM      9  N   LIG    1       -4.040   8.673   4.104  0.00  0.00    -0.530 NA
ATOM     10  C   LIG    1       -3.101   8.016   4.738  0.00  0.00    +0.370 A 
ATOM     11  N   LIG    1       -3.327   7.324   5.896  0.00  0.00    -0.490 N 
ENDROOT
BRANCH  11  12
ATOM     12  C   LIG    1       -2.269   6.649   6.521  0.00  0.00    +0.040 A 
ATOM     13  C   LIG    1       -1.488   7.293   7.476  0.00  0.00    +0.100 A 
ATOM     14  C   LIG    1       -0.454   6.585   8.066  0.00  0.00    -0.010 A 
ATOM     15  C   LIG    1       -0.234   5.273   7.691  0.00  0.00    +0.290 A 
ATOM     16  N   LIG    1       -0.993   4.692   6.783  0.00  0.00    -0.470 NA
ATOM     17  C   LIG    1       -1.990   5.328   6.200  0.00  0.00    +0.300 A 
ENDBRANCH  11  12
BRANCH  10  18
ATOM     18  S   LIG    1       -1.469   8.032   4.074  0.00  0.00    +0.020 S 
BRANCH  18  19
ATOM     19  C   LIG    1       -1.738   9.053   2.604  0.00  0.00    +0.130 C 
BRANCH  19  20
ATOM     20  C   LIG    1       -0.419   9.210   1.844  0.00  0.00    +0.170 C 
ATOM     21  C   LIG    1       -0.618  10.174   0.671  0.00  0.00    +0.020 C 
ATOM     22  C   LIG    1        0.689  10.280  -0.120  0.00  0.00    +0.020 C 
ATOM     23  C   LIG    1        1.108   8.881  -0.582  0.00  0.00    +0.010 C 
ATOM     24  C   LIG    1        1.240   7.967   0.639  0.00  0.00    +0.210 C 
ATOM     25  O   LIG    1       -0.001   7.938   1.347  0.00  0.00    -0.360 OA
BRANCH  24  26
ATOM     26  C   LIG    1        1.595   6.573   0.188  0.00  0.00    -0.080 A 
ATOM     27  C   LIG    1        2.905   6.137   0.255  0.00  0.00    +0.010 A 
ATOM     28  C   LIG    1        3.230   4.859  -0.159  0.00  0.00    +0.000 A 
ATOM     29  C   LIG    1        2.244   4.017  -0.639  0.00  0.00    +0.000 A 
ATOM     30  C   LIG    1        0.935   4.455  -0.712  0.00  0.00    +0.000 A 
ATOM     31  C   LIG    1        0.610   5.731  -0.293  0.00  0.00    +0.040 A 
ENDBRANCH  24  26
ENDBRANCH  19  20
ENDBRANCH  18  19
ENDBRANCH  10  18
TORSDOF 5
