REMARK  Name = ZINCqH0000033Lkz.0
REMARK                            x       y       z     vdW  Elec       q    Type
REMARK                         _______ _______ _______ _____ _____    ______ ____
ROOT
ATOM      1  N   LIG    1       -1.738  -3.126   0.003  0.00  0.00    -0.630 N 
ATOM      2  H   LIG    1       -1.464  -4.056  -0.005  0.00  0.00    +0.420 HD
ATOM      3  C   LIG    1       -3.047  -2.808   0.017  0.00  0.00    +0.510 C 
ATOM      4  O   LIG    1       -3.389  -1.645   0.027  0.00  0.00    -0.440 OA
ENDROOT
BRANCH   3   5
ATOM      5  C   LIG    1       -4.087  -3.899   0.021  0.00  0.00    +0.070 C 
ATOM      6  C   LIG    1       -3.929  -4.758  -1.234  0.00  0.00    +0.100 C 
ATOM      7  C   LIG    1       -4.378  -3.985  -2.444  0.00  0.00    +0.520 C 
ATOM      8  N   LIG    1       -5.408  -3.123  -2.368  0.00  0.00    -0.660 N 
ATOM      9  H   LIG    1       -5.693  -2.641  -3.160  0.00  0.00    +0.410 HD
ATOM     10  C   LIG    1       -6.071  -2.916  -1.154  0.00  0.00    +0.180 A 
ATOM     11  C   LIG    1       -7.337  -2.347  -1.138  0.00  0.00    -0.020 A 
ATOM     12  C   LIG    1       -7.987  -2.147   0.065  0.00  0.00    +0.050 A 
ATOM     13  C   LIG    1       -7.377  -2.512   1.251  0.00  0.00    -0.010 A 
ATOM     14  C   LIG    1       -6.115  -3.079   1.238  0.00  0.00    +0.060 A 
ATOM     15  O   LIG    1       -3.804  -4.141  -3.501  0.00  0.00    -0.520 OA
ATOM     16  C   LIG    1       -5.462  -3.282   0.039  0.00  0.00    -0.110 A 
ENDBRANCH   3   5
BRANCH   1  22
ATOM     17  C   LIG    1        2.382   1.462  -0.012  0.00  0.00    +0.150 A 
ATOM     18  C   LIG    1        1.155   2.119   0.002  0.00  0.00    -0.040 A 
ATOM     19  C   LIG    1       -0.017   1.407   0.010  0.00  0.00    +0.120 A 
ATOM     20  C   LIG    1        0.002  -0.004   0.002  0.00  0.00    +0.070 A 
ATOM     21  N   LIG    1       -1.039  -0.862   0.008  0.00  0.00    -0.460 NA
ATOM     22  C   LIG    1       -0.781  -2.123  -0.001  0.00  0.00    +0.330 A 
ATOM     23  S   LIG    1        0.956  -2.393  -0.019  0.00  0.00    +0.070 S 
ATOM     24  C   LIG    1        1.240  -0.654  -0.013  0.00  0.00    -0.140 A 
ATOM     25  C   LIG    1        2.423   0.082  -0.021  0.00  0.00    +0.030 A 
BRANCH  17  26
ATOM     26  O   LIG    1        3.538   2.179  -0.019  0.00  0.00    -0.310 OA
BRANCH  26  28
ATOM     27  C   LIG    1        4.814   4.231  -0.019  0.00  0.00    +0.070 C 
ATOM     28  C   LIG    1        3.419   3.603  -0.009  0.00  0.00    +0.190 C 
ENDBRANCH  26  28
ENDBRANCH  17  26
ENDBRANCH   1  22
TORSDOF 4
