REMARK  Name = ZINCc70000006loC.0
REMARK                            x       y       z     vdW  Elec       q    Type
REMARK                         _______ _______ _______ _____ _____    ______ ____
ROOT
ATOM      1  C   LIG    1       -2.983   1.662   0.380  0.00  0.00    -0.070 C 
ATOM      2  C   LIG    1       -2.104   0.900  -0.616  0.00  0.00    +0.030 C 
ATOM      3  C   LIG    1       -0.649   1.348  -0.444  0.00  0.00    +0.030 C 
ATOM      4  C   LIG    1       -0.220   1.115   1.007  0.00  0.00    +0.210 C 
ATOM      5  O   LIG    1       -1.097   1.827   1.883  0.00  0.00    -0.340 OA
ATOM      6  C   LIG    1       -2.463   1.416   1.799  0.00  0.00    +0.230 C 
ENDROOT
BRANCH   1   8
ATOM      7  C   LIG    1       -4.399  -0.274   0.419  0.00  0.00    +0.290 C 
ATOM      8  N   LIG    1       -4.369   1.188   0.275  0.00  0.00    -0.360 N 
ATOM      9  C   LIG    1       -5.179   1.802   1.335  0.00  0.00    +0.310 C 
ATOM     10  H   LIG    1       -4.745   1.444  -0.626  0.00  0.00    +0.430 HD
ENDBRANCH   1   8
BRANCH   1  11
ATOM     11  C   LIG    1       -2.930   3.136   0.073  0.00  0.00    +0.500 C 
ATOM     12  O   LIG    1       -1.890   3.754   0.223  0.00  0.00    -0.610 OA
ATOM     13  O   LIG    1       -3.928   3.712  -0.326  0.00  0.00    -0.680 OA
ENDBRANCH   1  11
TORSDOF 2
