REMARK  Name = ZINCpk000000mNNb.0
REMARK                            x       y       z     vdW  Elec       q    Type
REMARK                         _______ _______ _______ _____ _____    ______ ____
ROOT
ATOM      1  C   LIG    1        0.007  -0.003   0.008  0.00  0.00    +0.190 C 
ATOM      2  C   LIG    1        1.371  -0.507   0.490  0.00  0.00    +0.050 C 
ATOM      3  C   LIG    1        1.336  -2.032   0.605  0.00  0.00    +0.030 C 
ATOM      4  C   LIG    1        0.279  -2.443   1.634  0.00  0.00    +0.010 C 
ATOM      5  C   LIG    1       -1.097  -1.962   1.165  0.00  0.00    +0.270 C 
ATOM      6  N   LIG    1       -1.032  -0.516   0.912  0.00  0.00    -0.600 N 
ATOM      7  C   LIG    1       -1.908   0.325   1.498  0.00  0.00    +0.520 C 
ATOM      8  O   LIG    1       -1.906   1.502   1.207  0.00  0.00    -0.500 OA
ENDROOT
BRANCH   1   9
ATOM      9  C   LIG    1       -0.009   1.504   0.023  0.00  0.00    +0.490 C 
ATOM     10  O   LIG    1        0.741   2.109   0.752  0.00  0.00    -0.520 OA
BRANCH   9  11
ATOM     11  O   LIG    1       -0.853   2.173  -0.778  0.00  0.00    -0.330 OA
ATOM     12  C   LIG    1       -0.814   3.623  -0.712  0.00  0.00    +0.240 C 
ENDBRANCH   9  11
ENDBRANCH   1   9
BRANCH   1  13
ATOM     13  C   LIG    1       -0.253  -0.505  -1.413  0.00  0.00    +0.070 C 
BRANCH  13  15
ATOM     14  C   LIG    1       -1.696   0.663  -2.998  0.00  0.00    +0.010 C 
ATOM     15  C   LIG    1       -1.598  -0.014  -1.882  0.00  0.00    -0.040 C 
ENDBRANCH  13  15
ENDBRANCH   1  13
BRANCH   7  16
ATOM     16  C   LIG    1       -2.889  -0.199   2.515  0.00  0.00    +0.220 C 
BRANCH  16  17
ATOM     17  C   LIG    1       -3.748   0.934   3.014  0.00  0.00    +0.180 A 
ATOM     18  N   LIG    1       -4.888   1.332   2.504  0.00  0.00    -0.290 NA
ATOM     19  N   LIG    1       -5.312   2.325   3.208  0.00  0.00    -0.130 N 
ATOM     20  N   LIG    1       -4.468   2.563   4.152  0.00  0.00    -0.060 NA
ATOM     21  N   LIG    1       -3.497   1.719   4.061  0.00  0.00    -0.280 NA
BRANCH  19  22
ATOM     22  C   LIG    1       -6.556   3.063   2.974  0.00  0.00    +0.180 C 
ATOM     23  C   LIG    1       -6.522   3.689   1.579  0.00  0.00    +0.080 C 
ATOM     24  C   LIG    1       -6.700   4.165   4.025  0.00  0.00    +0.100 C 
ATOM     25  C   LIG    1       -7.744   2.104   3.074  0.00  0.00    +0.080 C 
ENDBRANCH  19  22
ENDBRANCH  16  17
ENDBRANCH   7  16
TORSDOF 7
