REMARK  Name = ZINCpk00000ebJ8t.0
REMARK                            x       y       z     vdW  Elec       q    Type
REMARK                         _______ _______ _______ _____ _____    ______ ____
ROOT
ATOM      1  O   LIG    1       -2.583   0.520   0.976  0.00  0.00    -0.490 OA
ATOM      2  C   LIG    1       -1.913   1.296   1.630  0.00  0.00    +0.570 C 
ATOM      3  N   LIG    1       -0.731   1.735   1.153  0.00  0.00    -0.610 N 
ATOM      4  C   LIG    1        0.156   2.706   1.818  0.00  0.00    +0.240 C 
ATOM      5  C   LIG    1        1.566   2.411   1.247  0.00  0.00    +0.040 C 
ATOM      6  C   LIG    1        1.237   2.062  -0.229  0.00  0.00    +0.040 C 
ATOM      7  C   LIG    1       -0.114   1.324  -0.117  0.00  0.00    +0.220 C 
ENDROOT
BRANCH   2   8
ATOM      8  C   LIG    1       -2.395   1.758   2.946  0.00  0.00    -0.210 A 
ATOM      9  C   LIG    1       -1.962   2.985   3.472  0.00  0.00    +0.110 A 
ATOM     10  C   LIG    1       -2.435   3.374   4.696  0.00  0.00    -0.050 A 
ATOM     11  C   LIG    1       -3.325   2.548   5.379  0.00  0.00    +0.330 A 
ATOM     12  N   LIG    1       -3.719   1.393   4.860  0.00  0.00    -0.520 NA
ATOM     13  C   LIG    1       -3.292   0.984   3.683  0.00  0.00    +0.360 A 
BRANCH  11  14
ATOM     14  N   LIG    1       -3.806   2.938   6.618  0.00  0.00    -0.480 N 
ATOM     15  C   LIG    1       -2.702   3.200   7.553  0.00  0.00    +0.180 C 
ATOM     16  C   LIG    1       -3.275   3.685   8.887  0.00  0.00    +0.230 C 
ATOM     17  O   LIG    1       -4.191   2.709   9.390  0.00  0.00    -0.380 OA
ATOM     18  C   LIG    1       -5.279   2.430   8.505  0.00  0.00    +0.230 C 
ATOM     19  C   LIG    1       -4.726   1.932   7.167  0.00  0.00    +0.190 C 
ENDBRANCH  11  14
ENDBRANCH   2   8
BRANCH   7  20
ATOM     20  C   LIG    1       -1.018   1.714  -1.288  0.00  0.00    +0.310 C 
BRANCH  20  21
ATOM     21  N   LIG    1       -2.253   0.926  -1.235  0.00  0.00    -0.360 N 
ATOM     22  C   LIG    1       -3.509   1.420  -1.218  0.00  0.00    +0.220 A 
ATOM     23  C   LIG    1       -4.363   0.371  -1.167  0.00  0.00    -0.130 A 
ATOM     24  C   LIG    1       -3.603  -0.803  -1.152  0.00  0.00    +0.220 A 
ATOM     25  N   LIG    1       -2.338  -0.471  -1.198  0.00  0.00    -0.270 NA
ENDBRANCH  20  21
ENDBRANCH   7  20
TORSDOF 4
