REMARK  Name = ZINCrg000000oux5.0
REMARK                            x       y       z     vdW  Elec       q    Type
REMARK                         _______ _______ _______ _____ _____    ______ ____
ROOT
ATOM      1  C   LIG    1       -3.227   3.560  -5.251  0.00  0.00    -0.150 A 
ATOM      2  C   LIG    1       -4.133   4.589  -4.995  0.00  0.00    +0.110 A 
ATOM      3  C   LIG    1       -3.919   5.445  -3.933  0.00  0.00    +0.000 A 
ATOM      4  C   LIG    1       -2.808   5.284  -3.125  0.00  0.00    +0.160 A 
ATOM      5  C   LIG    1       -1.905   4.265  -3.374  0.00  0.00    -0.690 A 
ATOM      6  C   LIG    1       -2.105   3.406  -4.435  0.00  0.00    +0.200 A 
ENDROOT
BRANCH   1   9
ATOM      7  N   LIG    1       -4.532   2.794  -7.177  0.00  0.00    -0.710 N 
ATOM      8  H   LIG    1       -5.163   3.509  -7.000  0.00  0.00    +0.410 HD
ATOM      9  C   LIG    1       -3.450   2.640  -6.387  0.00  0.00    +0.570 C 
ATOM     10  O   LIG    1       -2.659   1.744  -6.608  0.00  0.00    -0.520 OA
BRANCH   7  11
ATOM     11  C   LIG    1       -4.753   1.883  -8.302  0.00  0.00    +0.290 C 
BRANCH  11  12
ATOM     12  C   LIG    1       -3.974   2.379  -9.521  0.00  0.00    +0.000 C 
ATOM     13  C   LIG    1       -4.205   1.427 -10.696  0.00  0.00    +0.050 C 
BRANCH  12  15
ATOM     14  C   LIG    1       -3.593   4.327 -11.038  0.00  0.00    +0.030 C 
ATOM     15  C   LIG    1       -4.455   3.781  -9.899  0.00  0.00    +0.000 C 
ENDBRANCH  12  15
ENDBRANCH  11  12
BRANCH  11  16
ATOM     16  C   LIG    1       -6.223   1.837  -8.630  0.00  0.00    +0.460 C 
ATOM     17  O   LIG    1       -7.006   2.499  -7.989  0.00  0.00    -0.500 OA
BRANCH  16  18
ATOM     18  O   LIG    1       -6.664   1.062  -9.633  0.00  0.00    -0.340 OA
ATOM     19  C   LIG    1       -8.092   1.068  -9.893  0.00  0.00    +0.280 C 
ENDBRANCH  16  18
ENDBRANCH  11  16
ENDBRANCH   7  11
ENDBRANCH   1   9
BRANCH   5  20
ATOM     20  S   LIG    1       -0.493   4.069  -2.339  0.00  0.00    +2.690 S 
ATOM     21  O   LIG    1        0.477   3.375  -3.111  0.00  0.00    -0.940 OA
ATOM     22  O   LIG    1       -0.251   5.337  -1.745  0.00  0.00    -0.950 OA
BRANCH  20  23
ATOM     23  N   LIG    1       -0.926   3.051  -1.107  0.00  0.00    -1.000 NA
ATOM     24  C   LIG    1       -0.756   1.595  -1.232  0.00  0.00    +0.270 C 
ATOM     25  C   LIG    1       -0.013   1.086   0.008  0.00  0.00    +0.220 C 
ATOM     26  O   LIG    1       -0.684   1.548   1.183  0.00  0.00    -0.380 OA
ATOM     27  C   LIG    1       -0.712   2.971   1.319  0.00  0.00    +0.220 C 
ATOM     28  C   LIG    1       -1.491   3.576   0.146  0.00  0.00    +0.270 C 
ENDBRANCH  20  23
ENDBRANCH   5  20
TORSDOF 8
