REMARK  Name = ZINCvU0000000Bhs.1
REMARK                            x       y       z     vdW  Elec       q    Type
REMARK                         _______ _______ _______ _____ _____    ______ ____
ROOT
ATOM      1  N   LIG    1       -1.815   8.978   3.048  0.00  0.00    -0.550 N 
ATOM      2  H   LIG    1       -1.443   9.573   2.379  0.00  0.00    +0.400 HD
ENDROOT
BRANCH   1   3
ATOM      3  C   LIG    1       -2.449   9.497   4.160  0.00  0.00    +0.510 A 
ATOM      4  C   LIG    1       -2.563  10.902   4.335  0.00  0.00    -0.230 A 
ATOM      5  C   LIG    1       -2.103  11.991   3.501  0.00  0.00    +0.050 A 
ATOM      6  C   LIG    1       -2.381  13.207   3.972  0.00  0.00    -0.140 A 
ATOM      7  S   LIG    1       -3.243  13.117   5.496  0.00  0.00    +0.190 S 
ATOM      8  C   LIG    1       -3.218  11.359   5.485  0.00  0.00    +0.120 A 
ATOM      9  N   LIG    1       -3.702  10.466   6.356  0.00  0.00    -0.530 NA
ATOM     10  C   LIG    1       -3.570   9.175   6.148  0.00  0.00    +0.380 A 
ATOM     11  C   LIG    1       -4.133   8.214   7.162  0.00  0.00    +0.180 C 
ATOM     12  N   LIG    1       -2.966   8.693   5.078  0.00  0.00    -0.540 NA
BRANCH   6  13
ATOM     13  C   LIG    1       -2.012  14.469   3.295  0.00  0.00    -0.020 A 
ATOM     14  C   LIG    1       -1.320  14.438   2.083  0.00  0.00    +0.020 A 
ATOM     15  C   LIG    1       -0.984  15.619   1.454  0.00  0.00    +0.020 A 
ATOM     16  C   LIG    1       -1.321  16.832   2.027  0.00  0.00    +0.020 A 
ATOM     17  C   LIG    1       -2.002  16.870   3.232  0.00  0.00    +0.020 A 
ATOM     18  C   LIG    1       -2.349  15.696   3.868  0.00  0.00    +0.010 A 
ENDBRANCH   6  13
ENDBRANCH   1   3
BRANCH   1  20
ATOM     19  C   LIG    1       -1.113   7.102   1.841  0.00  0.00    +0.220 C 
ATOM     20  N   LIG    1       -1.709   7.590   2.886  0.00  0.00    -0.190 NA
BRANCH  19  24
ATOM     21  C   LIG    1       -0.787   2.892   1.346  0.00  0.00    +0.140 A 
ATOM     22  C   LIG    1       -0.257   3.748   0.391  0.00  0.00    -0.070 A 
ATOM     23  C   LIG    1       -0.360   5.114   0.548  0.00  0.00    +0.100 A 
ATOM     24  C   LIG    1       -1.001   5.642   1.671  0.00  0.00    -0.100 A 
ATOM     25  C   LIG    1       -1.537   4.779   2.637  0.00  0.00    +0.160 A 
ATOM     26  C   LIG    1       -1.432   3.406   2.466  0.00  0.00    +0.040 A 
BRANCH  21  28
ATOM     27  C   LIG    1       -0.013   1.086   0.008  0.00  0.00    +0.240 C 
ATOM     28  O   LIG    1       -0.682   1.547   1.184  0.00  0.00    -0.300 OA
ENDBRANCH  21  28
BRANCH  25  29
ATOM     29  O   LIG    1       -2.162   5.285   3.733  0.00  0.00    -0.300 OA
ATOM     30  C   LIG    1       -3.569   5.513   3.629  0.00  0.00    +0.240 C 
ENDBRANCH  25  29
BRANCH  26  31
ATOM     31  O   LIG    1       -1.956   2.563   3.397  0.00  0.00    -0.320 OA
ATOM     32  C   LIG    1       -1.100   2.171   4.473  0.00  0.00    +0.220 C 
ENDBRANCH  26  31
ENDBRANCH  19  24
ENDBRANCH   1  20
TORSDOF 7
