REMARK  Name = ZINCvU0000000Bhs.0
REMARK                            x       y       z     vdW  Elec       q    Type
REMARK                         _______ _______ _______ _____ _____    ______ ____
ROOT
ATOM      1  C   LIG    1       -3.649  -0.717  -2.652  0.00  0.00    +0.360 A 
ATOM      2  C   LIG    1       -3.821  -2.054  -3.109  0.00  0.00    -0.130 A 
ATOM      3  C   LIG    1       -3.541  -3.268  -2.471  0.00  0.00    +0.070 A 
ATOM      4  C   LIG    1       -3.827  -4.368  -3.172  0.00  0.00    -0.120 A 
ATOM      5  S   LIG    1       -4.500  -3.949  -4.739  0.00  0.00    +0.210 S 
ATOM      6  C   LIG    1       -4.371  -2.231  -4.390  0.00  0.00    +0.090 A 
ATOM      7  N   LIG    1       -4.693  -1.158  -5.114  0.00  0.00    -0.480 NA
ATOM      8  C   LIG    1       -4.509   0.058  -4.646  0.00  0.00    +0.340 A 
ATOM      9  C   LIG    1       -4.890   1.234  -5.508  0.00  0.00    +0.180 C 
ATOM     10  N   LIG    1       -4.002   0.283  -3.451  0.00  0.00    -0.500 NA
ENDROOT
BRANCH   4  11
ATOM     11  C   LIG    1       -3.608  -5.749  -2.695  0.00  0.00    -0.030 A 
ATOM     12  C   LIG    1       -3.061  -5.976  -1.431  0.00  0.00    +0.030 A 
ATOM     13  C   LIG    1       -2.864  -7.268  -0.989  0.00  0.00    +0.020 A 
ATOM     14  C   LIG    1       -3.197  -8.338  -1.800  0.00  0.00    +0.020 A 
ATOM     15  C   LIG    1       -3.735  -8.120  -3.057  0.00  0.00    +0.020 A 
ATOM     16  C   LIG    1       -3.942  -6.833  -3.508  0.00  0.00    +0.010 A 
ENDBRANCH   4  11
BRANCH   1  18
ATOM     17  N   LIG    1       -2.973   0.703  -1.029  0.00  0.00    -0.140 NA
ATOM     18  N   LIG    1       -3.123  -0.467  -1.413  0.00  0.00    -0.200 NA
BRANCH  17  19
ATOM     19  C   LIG    1       -2.410   0.971   0.297  0.00  0.00    +0.280 C 
BRANCH  19  23
ATOM     20  C   LIG    1        1.189   3.248  -0.119  0.00  0.00    +0.130 A 
ATOM     21  C   LIG    1        1.249   1.879   0.091  0.00  0.00    -0.070 A 
ATOM     22  C   LIG    1        0.085   1.147   0.229  0.00  0.00    +0.090 A 
ATOM     23  C   LIG    1       -1.144   1.775   0.152  0.00  0.00    -0.130 A 
ATOM     24  C   LIG    1       -1.213   3.145  -0.052  0.00  0.00    +0.150 A 
ATOM     25  C   LIG    1       -0.045   3.884  -0.191  0.00  0.00    +0.040 A 
BRANCH  20  27
ATOM     26  C   LIG    1        3.567   3.248  -0.169  0.00  0.00    +0.240 C 
ATOM     27  O   LIG    1        2.335   3.967  -0.255  0.00  0.00    -0.300 OA
ENDBRANCH  20  27
BRANCH  24  28
ATOM     28  O   LIG    1       -2.423   3.763  -0.122  0.00  0.00    -0.330 OA
ATOM     29  C   LIG    1       -2.968   3.975  -1.425  0.00  0.00    +0.250 C 
ENDBRANCH  24  28
BRANCH  25  30
ATOM     30  O   LIG    1       -0.108   5.228  -0.398  0.00  0.00    -0.320 OA
ATOM     31  C   LIG    1       -0.128   6.062   0.762  0.00  0.00    +0.230 C 
ENDBRANCH  25  30
ENDBRANCH  19  23
ENDBRANCH  17  19
ENDBRANCH   1  18
TORSDOF 7
