REMARK  Name = ZINCpk000000oyK5.0
REMARK                            x       y       z     vdW  Elec       q    Type
REMARK                         _______ _______ _______ _____ _____    ______ ____
ROOT
ATOM      1  C   LIG    1        2.424   0.737  -0.017  0.00  0.00    +0.050 C 
ENDROOT
BRANCH   1   3
ATOM      2  N   LIG    1        4.895   0.851  -0.040  0.00  0.00    -0.600 N 
ATOM      3  C   LIG    1        3.719   1.508  -0.025  0.00  0.00    +0.530 C 
ATOM      4  O   LIG    1        3.702   2.721  -0.019  0.00  0.00    -0.530 OA
BRANCH   2   6
ATOM      5  C   LIG    1        4.908  -1.117  -1.493  0.00  0.00    +0.020 C 
ATOM      6  C   LIG    1        4.915  -0.614  -0.048  0.00  0.00    +0.270 C 
ENDBRANCH   2   6
BRANCH   2   7
ATOM      7  C   LIG    1        6.153   1.600  -0.048  0.00  0.00    +0.330 C 
BRANCH   7   8
ATOM      8  C   LIG    1        6.598   1.850   1.370  0.00  0.00    +0.500 C 
ATOM      9  N   LIG    1        7.739   2.526   1.609  0.00  0.00    -0.730 N 
ATOM     10  H   LIG    1        8.274   2.853   0.868  0.00  0.00    +0.400 HD
ATOM     11  O   LIG    1        5.930   1.441   2.296  0.00  0.00    -0.530 OA
BRANCH   9  12
ATOM     12  C   LIG    1        8.172   2.769   2.987  0.00  0.00    +0.230 C 
ATOM     13  C   LIG    1        7.486   4.027   3.523  0.00  0.00    +0.030 C 
ATOM     14  C   LIG    1        9.689   2.963   3.019  0.00  0.00    +0.030 C 
ENDBRANCH   9  12
ENDBRANCH   7   8
ENDBRANCH   2   7
ENDBRANCH   1   3
BRANCH   1  15
ATOM     15  C   LIG    1        1.248   1.716  -0.001  0.00  0.00    +0.290 C 
BRANCH  15  16
ATOM     16  N   LIG    1       -0.011   0.966   0.007  0.00  0.00    -0.730 N 
ATOM     17  H   LIG    1        0.002  -0.004   0.002  0.00  0.00    +0.400 HD
ATOM     18  C   LIG    1       -1.187   1.624   0.017  0.00  0.00    +0.560 C 
ATOM     19  O   LIG    1       -1.204   2.840   0.023  0.00  0.00    -0.510 OA
BRANCH  18  20
ATOM     20  C   LIG    1       -2.455   0.869   0.018  0.00  0.00    -0.190 A 
ATOM     21  C   LIG    1       -2.440  -0.528   0.005  0.00  0.00    +0.120 A 
ATOM     22  C   LIG    1       -3.626  -1.228   0.013  0.00  0.00    -0.020 A 
ATOM     23  C   LIG    1       -4.836  -0.550   0.022  0.00  0.00    +0.160 A 
ATOM     24  C   LIG    1       -4.861   0.835   0.030  0.00  0.00    -0.040 A 
ATOM     25  F   LIG    1       -5.996  -1.244   0.024  0.00  0.00    -0.120 F 
ATOM     26  C   LIG    1       -3.678   1.549   0.028  0.00  0.00    +0.190 A 
ATOM     27  F   LIG    1       -3.702   2.900   0.035  0.00  0.00    -0.100 F 
ENDBRANCH  18  20
ENDBRANCH  15  16
ENDBRANCH   1  15
TORSDOF 8
