REMARK  Name = ZINCrH000004qq5i.0
REMARK                            x       y       z     vdW  Elec       q    Type
REMARK                         _______ _______ _______ _____ _____    ______ ____
ROOT
ATOM      1  C   LIG    1       -1.793   5.574  -5.449  0.00  0.00    +0.590 C 
ATOM      2  N   LIG    1       -2.818   5.691  -6.316  0.00  0.00    -0.730 N 
ATOM      3  H   LIG    1       -3.639   5.196  -6.166  0.00  0.00    +0.400 HD
ATOM      4  O   LIG    1       -0.764   6.195  -5.637  0.00  0.00    -0.550 OA
ENDROOT
BRANCH   1   8
ATOM      5  C   LIG    1       -3.635   2.295  -2.001  0.00  0.00    +0.130 C 
ATOM      6  C   LIG    1       -2.750   3.247  -2.763  0.00  0.00    +0.020 A 
ATOM      7  C   LIG    1       -3.082   3.883  -3.901  0.00  0.00    -0.030 A 
ATOM      8  C   LIG    1       -1.918   4.695  -4.274  0.00  0.00    -0.240 A 
ATOM      9  C   LIG    1       -0.977   4.476  -3.307  0.00  0.00    +0.110 A 
ATOM     10  C   LIG    1        0.394   5.100  -3.253  0.00  0.00    +0.140 C 
ATOM     11  N   LIG    1       -1.481   3.605  -2.412  0.00  0.00    -0.430 N 
BRANCH  11  12
ATOM     12  C   LIG    1       -0.771   3.116  -1.227  0.00  0.00    +0.230 C 
ATOM     13  C   LIG    1       -0.503   1.617  -1.375  0.00  0.00    +0.020 C 
ATOM     14  C   LIG    1        0.238   1.107  -0.138  0.00  0.00    +0.020 C 
ATOM     15  C   LIG    1       -0.617   1.352   1.107  0.00  0.00    +0.010 C 
ATOM     16  C   LIG    1       -0.884   2.852   1.254  0.00  0.00    +0.020 C 
ATOM     17  C   LIG    1       -1.626   3.362   0.017  0.00  0.00    +0.010 C 
ENDBRANCH  11  12
ENDBRANCH   1   8
BRANCH   2  18
ATOM     18  C   LIG    1       -2.693   6.565  -7.484  0.00  0.00    +0.330 C 
BRANCH  18  19
ATOM     19  C   LIG    1       -3.968   6.518  -8.286  0.00  0.00    -0.100 A 
ATOM     20  C   LIG    1       -4.987   7.413  -8.013  0.00  0.00    +0.050 A 
ATOM     21  C   LIG    1       -6.160   7.378  -8.743  0.00  0.00    +0.040 A 
ATOM     22  C   LIG    1       -6.316   6.441  -9.752  0.00  0.00    +0.100 A 
ATOM     23  N   LIG    1       -7.350   6.157 -10.642  0.00  0.00    -0.640 N 
ATOM     24  H   LIG    1       -8.200   6.622 -10.691  0.00  0.00    +0.440 HD
ATOM     25  C   LIG    1       -6.968   5.128 -11.422  0.00  0.00    +0.680 A 
ATOM     26  N   LIG    1       -5.729   4.732 -11.075  0.00  0.00    -0.640 N 
ATOM     27  H   LIG    1       -5.228   4.010 -11.486  0.00  0.00    +0.440 HD
ATOM     28  O   LIG    1       -7.641   4.632 -12.306  0.00  0.00    -0.550 OA
ATOM     29  C   LIG    1       -5.288   5.537 -10.027  0.00  0.00    +0.090 A 
ATOM     30  C   LIG    1       -4.112   5.584  -9.294  0.00  0.00    +0.050 A 
ENDBRANCH  18  19
ENDBRANCH   2  18
TORSDOF 4
