REMARK  Name = ZINCtV000002Hos2.0
REMARK                            x       y       z     vdW  Elec       q    Type
REMARK                         _______ _______ _______ _____ _____    ______ ____
ROOT
ATOM      1  S   LIG    1       -0.900   5.985  -1.658  0.00  0.00    -0.140 S 
ENDROOT
BRANCH   1   2
ATOM      2  C   LIG    1       -1.160   7.780  -1.623  0.00  0.00    +0.010 C 
ATOM      3  C   LIG    1        0.180   8.493  -1.817  0.00  0.00    +0.080 C 
BRANCH   2   6
ATOM      4  N   LIG    1       -2.758   9.349  -2.673  0.00  0.00    -0.660 N 
ATOM      5  H   LIG    1       -2.574   9.972  -1.953  0.00  0.00    +0.410 HD
ATOM      6  C   LIG    1       -2.103   8.173  -2.732  0.00  0.00    +0.540 C 
ATOM      7  O   LIG    1       -2.271   7.430  -3.676  0.00  0.00    -0.490 OA
BRANCH   4  13
ATOM      8  C   LIG    1       -4.381   8.922  -7.295  0.00  0.00    +0.090 C 
ATOM      9  C   LIG    1       -4.516   9.479  -5.901  0.00  0.00    -0.070 A 
ATOM     10  C   LIG    1       -5.576  10.309  -5.588  0.00  0.00    -0.010 A 
ATOM     11  C   LIG    1       -5.703  10.822  -4.310  0.00  0.00    +0.030 A 
ATOM     12  C   LIG    1       -4.771  10.506  -3.342  0.00  0.00    -0.120 A 
ATOM     13  C   LIG    1       -3.705   9.671  -3.652  0.00  0.00    +0.150 A 
ATOM     14  C   LIG    1       -4.910  11.066  -1.950  0.00  0.00    +0.080 C 
ATOM     15  C   LIG    1       -3.577   9.162  -4.938  0.00  0.00    +0.020 A 
ENDBRANCH   4  13
ENDBRANCH   2   6
ENDBRANCH   1   2
BRANCH   1  16
ATOM     16  C   LIG    1        0.118   5.692  -0.185  0.00  0.00    +0.120 C 
BRANCH  16  17
ATOM     17  C   LIG    1       -0.676   6.030   1.050  0.00  0.00    -0.100 A 
ATOM     18  C   LIG    1       -1.938   5.494   1.228  0.00  0.00    +0.070 A 
ATOM     19  C   LIG    1       -2.665   5.799   2.363  0.00  0.00    -0.010 A 
ATOM     20  C   LIG    1       -2.134   6.652   3.317  0.00  0.00    +0.100 A 
ATOM     21  C   LIG    1       -0.872   7.192   3.134  0.00  0.00    -0.010 A 
ATOM     22  F   LIG    1       -2.846   6.956   4.423  0.00  0.00    -0.140 F 
ATOM     23  C   LIG    1       -0.145   6.881   2.001  0.00  0.00    +0.050 A 
ENDBRANCH  16  17
BRANCH  16  24
ATOM     24  C   LIG    1        0.527   4.242  -0.138  0.00  0.00    -0.080 A 
ATOM     25  C   LIG    1       -0.430   3.250  -0.254  0.00  0.00    +0.070 A 
ATOM     26  C   LIG    1       -0.056   1.921  -0.211  0.00  0.00    -0.010 A 
ATOM     27  C   LIG    1        1.277   1.582  -0.053  0.00  0.00    +0.110 A 
ATOM     28  C   LIG    1        2.233   2.575   0.069  0.00  0.00    -0.010 A 
ATOM     29  F   LIG    1        1.644   0.282  -0.011  0.00  0.00    -0.140 F 
ATOM     30  C   LIG    1        1.858   3.905   0.020  0.00  0.00    +0.070 A 
ENDBRANCH  16  24
ENDBRANCH   1  16
TORSDOF 6
