REMARK  Name = ZINCkj000005iGEI.1
REMARK                            x       y       z     vdW  Elec       q    Type
REMARK                         _______ _______ _______ _____ _____    ______ ____
ROOT
ATOM      1  C   LIG    1       -0.034  -2.301   1.053  0.00  0.00    +0.160 A 
ATOM      2  C   LIG    1       -0.352  -0.953   1.122  0.00  0.00    -0.050 A 
ATOM      3  C   LIG    1       -0.291  -0.168  -0.014  0.00  0.00    +0.110 A 
ATOM      4  C   LIG    1        0.093  -0.720  -1.221  0.00  0.00    -0.220 A 
ATOM      5  C   LIG    1        0.407  -2.069  -1.300  0.00  0.00    +0.150 A 
ATOM      6  C   LIG    1        0.347  -2.862  -0.160  0.00  0.00    +0.040 A 
ENDROOT
BRANCH   1   8
ATOM      7  C   LIG    1       -0.494  -2.429   3.383  0.00  0.00    +0.260 C 
ATOM      8  O   LIG    1       -0.095  -3.073   2.171  0.00  0.00    -0.290 OA
ENDBRANCH   1   8
BRANCH   5   9
ATOM      9  O   LIG    1        0.779  -2.613  -2.489  0.00  0.00    -0.500 OA
ATOM     10  H   LIG    1        0.054  -3.029  -2.975  0.00  0.00    +0.410 HD
ENDBRANCH   5   9
BRANCH   6  11
ATOM     11  O   LIG    1        0.660  -4.184  -0.232  0.00  0.00    -0.320 OA
ATOM     12  C   LIG    1        2.026  -4.540  -0.011  0.00  0.00    +0.240 C 
ENDBRANCH   6  11
BRANCH   4  13
ATOM     13  C   LIG    1        0.165   0.142  -2.455  0.00  0.00    +0.340 C 
BRANCH  13  14
ATOM     14  N   LIG    1        1.571   0.422  -2.775  0.00  0.00    -0.390 N 
ATOM     15  C   LIG    1        2.184   1.252  -1.707  0.00  0.00    +0.270 C 
ATOM     16  C   LIG    1        3.393   1.911  -2.418  0.00  0.00    +0.090 C 
ATOM     17  C   LIG    1        2.845   2.197  -3.836  0.00  0.00    +0.110 C 
ATOM     18  F   LIG    1        2.408   3.522  -3.929  0.00  0.00    -0.170 F 
ATOM     19  C   LIG    1        1.661   1.226  -4.013  0.00  0.00    +0.270 C 
ATOM     20  H   LIG    1        2.083  -0.441  -2.883  0.00  0.00    +0.430 HD
BRANCH  17  21
ATOM     21  C   LIG    1        3.921   1.918  -4.887  0.00  0.00    +0.200 C 
BRANCH  21  22
ATOM     22  O   LIG    1        5.038   2.781  -4.666  0.00  0.00    -0.560 OA
ATOM     23  H   LIG    1        5.760   2.659  -5.297  0.00  0.00    +0.400 HD
ENDBRANCH  21  22
ENDBRANCH  17  21
ENDBRANCH  13  14
ENDBRANCH   4  13
TORSDOF 7
