REMARK  Name = ZINCkj000005iGEI.2
REMARK                            x       y       z     vdW  Elec       q    Type
REMARK                         _______ _______ _______ _____ _____    ______ ____
ROOT
ATOM      1  C   LIG    1        3.106   2.413  -1.212  0.00  0.00    +0.160 A 
ATOM      2  C   LIG    1        3.741   2.695  -0.012  0.00  0.00    -0.050 A 
ATOM      3  C   LIG    1        3.120   2.397   1.187  0.00  0.00    +0.100 A 
ATOM      4  C   LIG    1        1.863   1.823   1.195  0.00  0.00    -0.220 A 
ATOM      5  C   LIG    1        1.224   1.533  -0.001  0.00  0.00    +0.150 A 
ATOM      6  C   LIG    1        1.844   1.831  -1.209  0.00  0.00    +0.040 A 
ENDROOT
BRANCH   1   8
ATOM      7  C   LIG    1        5.013   3.304  -2.319  0.00  0.00    +0.250 C 
ATOM      8  O   LIG    1        3.717   2.707  -2.391  0.00  0.00    -0.290 OA
ENDBRANCH   1   8
BRANCH   5   9
ATOM      9  O   LIG    1       -0.011   0.963   0.007  0.00  0.00    -0.480 OA
ATOM     10  H   LIG    1        0.002  -0.004   0.002  0.00  0.00    +0.400 HD
ENDBRANCH   5   9
BRANCH   6  11
ATOM     11  O   LIG    1        1.217   1.554  -2.384  0.00  0.00    -0.320 OA
ATOM     12  C   LIG    1        0.385   2.578  -2.933  0.00  0.00    +0.240 C 
ENDBRANCH   6  11
BRANCH   4  13
ATOM     13  C   LIG    1        1.189   1.506   2.505  0.00  0.00    +0.340 C 
BRANCH  13  14
ATOM     14  N   LIG    1        1.351   0.077   2.806  0.00  0.00    -0.400 N 
ATOM     15  C   LIG    1        2.779  -0.241   3.060  0.00  0.00    +0.280 C 
ATOM     16  C   LIG    1        2.746  -1.547   3.882  0.00  0.00    +0.090 C 
ATOM     17  C   LIG    1        1.357  -1.563   4.554  0.00  0.00    +0.110 C 
ATOM     18  F   LIG    1        0.628  -2.681   4.135  0.00  0.00    -0.170 F 
ATOM     19  C   LIG    1        0.668  -0.266   4.080  0.00  0.00    +0.280 C 
ATOM     20  H   LIG    1        0.993  -0.486   2.049  0.00  0.00    +0.430 HD
BRANCH  17  21
ATOM     21  C   LIG    1        1.503  -1.565   6.077  0.00  0.00    +0.210 C 
BRANCH  21  22
ATOM     22  O   LIG    1        2.202  -2.742   6.487  0.00  0.00    -0.560 OA
ATOM     23  H   LIG    1        2.331  -2.809   7.443  0.00  0.00    +0.400 HD
ENDBRANCH  21  22
ENDBRANCH  17  21
ENDBRANCH  13  14
ENDBRANCH   4  13
TORSDOF 7
