REMARK  Name = ZINCpe00000Hy9d7.0
REMARK                            x       y       z     vdW  Elec       q    Type
REMARK                         _______ _______ _______ _____ _____    ______ ____
ROOT
ATOM      1  C   LIG    1        1.926   0.893   0.563  0.00  0.00    +0.310 C 
ATOM      2  N   LIG    1        3.200   1.469   0.151  0.00  0.00    -0.720 N 
ATOM      3  H   LIG    1        4.008   1.134   0.571  0.00  0.00    +0.410 HD
ATOM      4  C   LIG    1        3.325   2.429  -0.766  0.00  0.00    +0.520 C 
ATOM      5  C   LIG    1        2.157   3.072  -1.457  0.00  0.00    +0.080 C 
ATOM      6  C   LIG    1        0.911   2.197  -1.297  0.00  0.00    +0.030 C 
ATOM      7  O   LIG    1        4.441   2.804  -1.056  0.00  0.00    -0.540 OA
ATOM      8  C   LIG    1        0.771   1.820   0.183  0.00  0.00    +0.230 C 
ENDROOT
BRANCH   1  14
ATOM      9  C   LIG    1        2.200   3.090   2.733  0.00  0.00    +0.350 C 
ATOM     10  N   LIG    1        2.051   1.656   2.991  0.00  0.00    -0.350 N 
ATOM     11  N   LIG    1        2.006   1.045   4.251  0.00  0.00    -0.280 NA
ATOM     12  C   LIG    1        1.871  -0.244   4.076  0.00  0.00    +0.240 A 
ATOM     13  C   LIG    1        1.821  -0.495   2.700  0.00  0.00    -0.100 A 
ATOM     14  C   LIG    1        1.931   0.690   2.057  0.00  0.00    +0.050 A 
ENDBRANCH   1  14
BRANCH   8  15
ATOM     15  N   LIG    1       -0.503   1.131   0.397  0.00  0.00    -0.710 N 
ATOM     16  H   LIG    1       -0.540   0.162   0.375  0.00  0.00    +0.410 HD
ATOM     17  C   LIG    1       -1.626   1.843   0.618  0.00  0.00    +0.580 C 
ATOM     18  O   LIG    1       -1.580   3.058   0.645  0.00  0.00    -0.530 OA
BRANCH  17  19
ATOM     19  C   LIG    1       -2.911   1.149   0.827  0.00  0.00    -0.170 A 
ATOM     20  C   LIG    1       -4.048   1.870   1.051  0.00  0.00    +0.320 A 
ATOM     21  N   LIG    1       -5.237   1.240   1.245  0.00  0.00    -0.370 N 
ATOM     22  C   LIG    1       -6.503   1.708   1.484  0.00  0.00    +0.100 A 
ATOM     23  C   LIG    1       -7.310   0.632   1.597  0.00  0.00    +0.230 A 
ATOM     24  N   LIG    1       -6.576  -0.472   1.433  0.00  0.00    -0.490 NA
ATOM     25  C   LIG    1       -5.315  -0.130   1.218  0.00  0.00    +0.230 A 
ATOM     26  C   LIG    1       -4.152  -0.896   0.989  0.00  0.00    +0.090 A 
ATOM     27  C   LIG    1       -2.966  -0.267   0.789  0.00  0.00    +0.070 A 
ENDBRANCH  17  19
ENDBRANCH   8  15
TORSDOF 3
