REMARK  Name = ZINCpe000027pH6e.0
REMARK                            x       y       z     vdW  Elec       q    Type
REMARK                         _______ _______ _______ _____ _____    ______ ____
ROOT
ATOM      1  N   LIG    1        4.429   1.703  -1.425  0.00  0.00    -0.550 NA
ATOM      2  C   LIG    1        5.635   1.679  -0.568  0.00  0.00    +0.190 C 
ATOM      3  C   LIG    1        6.520   2.837  -0.956  0.00  0.00    +0.020 C 
ATOM      4  C   LIG    1        6.241   4.088  -0.108  0.00  0.00    +0.190 C 
ATOM      5  N   LIG    1        4.794   4.309   0.116  0.00  0.00    -0.540 NA
ATOM      6  C   LIG    1        3.979   4.074  -1.055  0.00  0.00    +0.200 C 
ATOM      7  C   LIG    1        3.457   2.624  -1.016  0.00  0.00    +0.200 C 
ENDROOT
BRANCH   1   8
ATOM      8  C   LIG    1        3.855   0.358  -1.563  0.00  0.00    +0.320 C 
BRANCH   8  12
ATOM      9  C   LIG    1        6.504  -2.168  -4.981  0.00  0.00    +0.240 C 
ATOM     10  C   LIG    1        5.966  -1.610  -3.688  0.00  0.00    +0.180 A 
ATOM     11  N   LIG    1        4.977  -0.759  -3.556  0.00  0.00    -0.470 NA
ATOM     12  C   LIG    1        4.855  -0.548  -2.234  0.00  0.00    +0.180 A 
ATOM     13  N   LIG    1        5.755  -1.274  -1.639  0.00  0.00    -0.380 NA
ATOM     14  O   LIG    1        6.404  -1.891  -2.457  0.00  0.00    +0.080 OA
ENDBRANCH   8  12
ENDBRANCH   1   8
BRANCH   5  15
ATOM     15  C   LIG    1        4.545   5.645   0.672  0.00  0.00    +0.210 C 
BRANCH  15  16
ATOM     16  C   LIG    1        5.217   5.764   2.015  0.00  0.00    +0.510 C 
ATOM     17  N   LIG    1        5.124   6.911   2.717  0.00  0.00    -0.650 N 
ATOM     18  H   LIG    1        4.686   7.684   2.327  0.00  0.00    +0.400 HD
ATOM     19  O   LIG    1        5.842   4.827   2.466  0.00  0.00    -0.500 OA
BRANCH  17  20
ATOM     20  C   LIG    1        5.663   6.989   4.014  0.00  0.00    -0.010 A 
ATOM     21  C   LIG    1        6.631   7.846   4.428  0.00  0.00    +0.080 A 
ATOM     22  N   LIG    1        6.863   7.598   5.744  0.00  0.00    -0.470 N 
ATOM     23  H   LIG    1        7.503   8.060   6.307  0.00  0.00    +0.440 HD
ATOM     24  N   LIG    1        6.017   6.554   6.140  0.00  0.00    -0.280 NA
ATOM     25  C   LIG    1        7.321   8.886   3.583  0.00  0.00    +0.150 C 
ATOM     26  C   LIG    1        5.301   6.189   5.109  0.00  0.00    +0.100 A 
ATOM     27  C   LIG    1        4.263   5.097   5.097  0.00  0.00    +0.150 C 
ENDBRANCH  17  20
ENDBRANCH  15  16
ENDBRANCH   5  15
TORSDOF 5
