REMARK  Name = ZINCrH000004n7fG.0
REMARK                            x       y       z     vdW  Elec       q    Type
REMARK                         _______ _______ _______ _____ _____    ______ ____
ROOT
ATOM      1  C   LIG    1        5.026   4.131  -3.692  0.00  0.00    +0.600 C 
ATOM      2  N   LIG    1        4.742   3.872  -2.401  0.00  0.00    -0.620 N 
ATOM      3  C   LIG    1        5.727   3.761  -1.309  0.00  0.00    +0.280 C 
ATOM      4  C   LIG    1        4.929   4.078  -0.018  0.00  0.00    +0.090 C 
ATOM      5  C   LIG    1        3.562   3.434  -0.334  0.00  0.00    +0.110 C 
ATOM      6  C   LIG    1        2.454   4.145   0.437  0.00  0.00    +0.040 C 
ATOM      7  C   LIG    1        1.107   3.564  -0.005  0.00  0.00    +0.080 C 
ATOM      8  C   LIG    1        1.177   2.058  -0.009  0.00  0.00    -0.160 A 
ATOM      9  C   LIG    1       -0.006   1.339  -0.005  0.00  0.00    +0.050 A 
ATOM     10  C   LIG    1        0.016  -0.042  -0.022  0.00  0.00    -0.020 A 
ATOM     11  C   LIG    1        1.224  -0.714  -0.042  0.00  0.00    +0.040 A 
ATOM     12  C   LIG    1        2.407  -0.003  -0.042  0.00  0.00    -0.010 A 
ATOM     13  C   LIG    1        2.388   1.387  -0.024  0.00  0.00    +0.130 A 
ATOM     14  O   LIG    1        3.575   2.052  -0.017  0.00  0.00    -0.290 OA
ATOM     15  C   LIG    1        3.396   3.653  -1.845  0.00  0.00    +0.230 C 
ATOM     16  O   LIG    1        6.168   4.389  -4.024  0.00  0.00    -0.510 OA
ENDROOT
BRANCH   1  23
ATOM     17  C   LIG    1        1.087   4.105  -8.277  0.00  0.00    +0.100 A 
ATOM     18  C   LIG    1        0.160   3.911  -7.255  0.00  0.00    -0.020 A 
ATOM     19  C   LIG    1        0.569   3.839  -5.943  0.00  0.00    +0.040 A 
ATOM     20  C   LIG    1        1.919   3.960  -5.626  0.00  0.00    +0.080 A 
ATOM     21  N   LIG    1        2.611   3.930  -4.437  0.00  0.00    -0.580 N 
ATOM     22  H   LIG    1        2.220   3.808  -3.558  0.00  0.00    +0.420 HD
ATOM     23  C   LIG    1        3.956   4.102  -4.701  0.00  0.00    +0.020 A 
ATOM     24  C   LIG    1        4.132   4.247  -6.040  0.00  0.00    +0.060 A 
ATOM     25  C   LIG    1        2.860   4.156  -6.655  0.00  0.00    -0.080 A 
ATOM     26  C   LIG    1        2.429   4.228  -7.987  0.00  0.00    +0.040 A 
BRANCH  17  28
ATOM     27  C   LIG    1       -0.738   4.039  -9.801  0.00  0.00    +0.230 C 
ATOM     28  O   LIG    1        0.666   4.174  -9.568  0.00  0.00    -0.320 OA
ENDBRANCH  17  28
ENDBRANCH   1  23
TORSDOF 2
