REMARK  Name = ZINCpk00001AZiUw.0
REMARK                            x       y       z     vdW  Elec       q    Type
REMARK                         _______ _______ _______ _____ _____    ______ ____
ROOT
ATOM      1  C   LIG    1        2.902   4.409  -2.512  0.00  0.00    +0.350 C 
ENDROOT
BRANCH   1   2
ATOM      2  C   LIG    1        4.124   5.269  -2.317  0.00  0.00    -0.210 A 
ATOM      3  C   LIG    1        5.333   4.833  -2.751  0.00  0.00    +0.160 A 
ATOM      4  C   LIG    1        6.500   5.691  -2.547  0.00  0.00    -0.150 A 
ATOM      5  C   LIG    1        7.772   5.295  -2.973  0.00  0.00    +0.130 A 
ATOM      6  C   LIG    1        8.842   6.119  -2.769  0.00  0.00    -0.030 A 
ATOM      7  C   LIG    1        8.679   7.348  -2.139  0.00  0.00    +0.160 A 
ATOM      8  C   LIG    1        7.432   7.758  -1.710  0.00  0.00    -0.060 A 
ATOM      9  F   LIG    1        9.749   8.148  -1.945  0.00  0.00    -0.130 F 
ATOM     10  C   LIG    1        6.329   6.935  -1.909  0.00  0.00    +0.220 A 
ATOM     11  N   LIG    1        5.073   7.320  -1.491  0.00  0.00    -0.630 N 
ATOM     12  H   LIG    1        4.956   8.177  -1.052  0.00  0.00    +0.420 HD
ATOM     13  C   LIG    1        4.005   6.526  -1.688  0.00  0.00    +0.540 A 
ATOM     14  O   LIG    1        2.909   6.901  -1.310  0.00  0.00    -0.520 OA
ENDBRANCH   1   2
BRANCH   1  16
ATOM     15  C   LIG    1        1.615   2.773  -1.246  0.00  0.00    +0.510 C 
ATOM     16  N   LIG    1        2.662   3.620  -1.301  0.00  0.00    -0.720 N 
ATOM     17  H   LIG    1        3.256   3.706  -0.540  0.00  0.00    +0.400 HD
ATOM     18  O   LIG    1        0.871   2.664  -2.198  0.00  0.00    -0.520 OA
BRANCH  15  24
ATOM     19  C   LIG    1       -1.124   2.240   0.020  0.00  0.00    +0.560 C 
ATOM     20  N   LIG    1       -0.018   1.470   0.010  0.00  0.00    -0.600 N 
ATOM     21  C   LIG    1        0.002  -0.004   0.002  0.00  0.00    +0.250 C 
ATOM     22  C   LIG    1        1.380  -0.385   0.599  0.00  0.00    +0.040 C 
ATOM     23  C   LIG    1        2.292   0.724   0.011  0.00  0.00    +0.050 C 
ATOM     24  C   LIG    1        1.368   1.960  -0.001  0.00  0.00    +0.220 C 
ATOM     25  O   LIG    1       -1.020   3.452   0.025  0.00  0.00    -0.530 OA
BRANCH  19  27
ATOM     26  C   LIG    1       -3.547   2.376   0.033  0.00  0.00    +0.140 C 
ATOM     27  C   LIG    1       -2.455   1.616   0.023  0.00  0.00    -0.080 C 
ENDBRANCH  19  27
ENDBRANCH  15  24
ENDBRANCH   1  16
TORSDOF 4
