REMARK  Name = ZINCqH00000605Xx.0
REMARK                            x       y       z     vdW  Elec       q    Type
REMARK                         _______ _______ _______ _____ _____    ______ ____
ROOT
ATOM      1  N   LIG    1       -1.973   4.778   5.764  0.00  0.00    -0.460 N 
ATOM      2  C   LIG    1       -1.092   3.872   6.511  0.00  0.00    +0.210 C 
ATOM      3  C   LIG    1       -0.454   4.632   7.680  0.00  0.00    +0.090 C 
ATOM      4  C   LIG    1       -1.562   5.268   8.493  0.00  0.00    -0.100 C 
ATOM      5  C   LIG    1       -2.617   6.060   7.750  0.00  0.00    +0.090 C 
ATOM      6  C   LIG    1       -1.606   5.136   9.812  0.00  0.00    +0.000 C 
ATOM      7  C   LIG    1       -3.117   5.209   6.577  0.00  0.00    +0.210 C 
ENDROOT
BRANCH   6   8
ATOM      8  C   LIG    1       -0.474   4.516  10.531  0.00  0.00    -0.020 A 
ATOM      9  C   LIG    1        0.833   4.711  10.082  0.00  0.00    +0.010 A 
ATOM     10  C   LIG    1        1.887   4.130  10.757  0.00  0.00    +0.040 A 
ATOM     11  C   LIG    1        1.651   3.356  11.878  0.00  0.00    -0.020 A 
ATOM     12  C   LIG    1        0.356   3.158  12.331  0.00  0.00    +0.100 A 
ATOM     13  F   LIG    1        0.134   2.400  13.427  0.00  0.00    -0.140 F 
ATOM     14  C   LIG    1       -0.707   3.738  11.665  0.00  0.00    -0.010 A 
ENDBRANCH   6   8
BRANCH   1  18
ATOM     15  C   LIG    1       -2.707   3.724   2.477  0.00  0.00    +0.150 A 
ATOM     16  N   LIG    1       -3.377   2.889   3.220  0.00  0.00    -0.280 NA
ATOM     17  N   LIG    1       -3.197   3.162   4.463  0.00  0.00    -0.300 NA
ATOM     18  C   LIG    1       -2.396   4.195   4.580  0.00  0.00    +0.350 A 
ATOM     19  N   LIG    1       -2.054   4.582   3.318  0.00  0.00    -0.460 N 
ATOM     20  C   LIG    1       -1.173   5.690   2.941  0.00  0.00    +0.340 C 
BRANCH  15  21
ATOM     21  C   LIG    1       -2.656   3.738   0.971  0.00  0.00    +0.320 C 
BRANCH  21  22
ATOM     22  C   LIG    1       -1.770   2.591   0.480  0.00  0.00    -0.030 C 
ATOM     23  C   LIG    1       -0.356   2.765   1.040  0.00  0.00    +0.030 C 
BRANCH  22  25
ATOM     24  C   LIG    1       -0.935   1.387  -1.544  0.00  0.00    +0.030 C 
ATOM     25  C   LIG    1       -1.718   2.605  -1.049  0.00  0.00    +0.010 C 
ENDBRANCH  22  25
ENDBRANCH  21  22
BRANCH  21  26
ATOM     26  O   LIG    1       -3.977   3.576   0.448  0.00  0.00    -0.540 OA
ATOM     27  H   LIG    1       -4.405   2.750   0.712  0.00  0.00    +0.390 HD
ENDBRANCH  21  26
ENDBRANCH  15  21
ENDBRANCH   1  18
TORSDOF 6
