REMARK  Name = ZINCpk000000pGXe.0
REMARK                            x       y       z     vdW  Elec       q    Type
REMARK                         _______ _______ _______ _____ _____    ______ ____
ROOT
ATOM      1  C   LIG    1       -0.700   1.610   1.272  0.00  0.00    -0.010 C 
ATOM      2  C   LIG    1       -0.418   3.106   1.528  0.00  0.00    +0.270 C 
ATOM      3  N   LIG    1       -0.324   3.221   3.002  0.00  0.00    -0.630 N 
ATOM      4  C   LIG    1        0.408   2.002   3.419  0.00  0.00    +0.270 C 
ATOM      5  C   LIG    1       -0.797   4.210   3.786  0.00  0.00    +0.540 C 
ATOM      6  O   LIG    1       -0.639   4.159   4.988  0.00  0.00    -0.510 OA
ATOM      7  C   LIG    1       -0.155   0.882   2.518  0.00  0.00    +0.130 C 
ENDROOT
BRANCH   7   8
ATOM      8  N   LIG    1        0.912  -0.053   2.138  0.00  0.00    -0.520 NA
ATOM      9  C   LIG    1        0.352  -1.330   1.671  0.00  0.00    +0.150 C 
ATOM     10  C   LIG    1        1.493  -2.250   1.230  0.00  0.00    +0.220 C 
ATOM     11  O   LIG    1        2.405  -2.425   2.317  0.00  0.00    -0.380 OA
ATOM     12  C   LIG    1        2.970  -1.202   2.796  0.00  0.00    +0.220 C 
ATOM     13  C   LIG    1        1.844  -0.270   3.253  0.00  0.00    +0.150 C 
ENDBRANCH   7   8
BRANCH   1  15
ATOM     14  C   LIG    1       -0.567   1.818  -1.215  0.00  0.00    -0.010 C 
ATOM     15  C   LIG    1        0.036   1.138   0.016  0.00  0.00    +0.040 C 
ENDBRANCH   1  15
BRANCH   5  16
ATOM     16  C   LIG    1       -1.522   5.378   3.170  0.00  0.00    +0.170 C 
BRANCH  16  17
ATOM     17  C   LIG    1       -1.944   6.336   4.255  0.00  0.00    +0.070 A 
ATOM     18  C   LIG    1       -1.640   7.651   4.308  0.00  0.00    +0.090 A 
ATOM     19  N   LIG    1       -2.214   8.153   5.444  0.00  0.00    -0.360 N 
ATOM     20  C   LIG    1       -2.236   9.403   5.993  0.00  0.00    +0.210 A 
ATOM     21  C   LIG    1       -2.885   9.633   7.153  0.00  0.00    +0.010 A 
ATOM     22  C   LIG    1       -3.551   8.586   7.812  0.00  0.00    +0.040 A 
ATOM     23  C   LIG    1       -3.538   7.336   7.275  0.00  0.00    +0.070 A 
ATOM     24  C   LIG    1       -2.854   7.112   6.063  0.00  0.00    +0.220 A 
ATOM     25  N   LIG    1       -2.677   6.024   5.326  0.00  0.00    -0.460 NA
ENDBRANCH  16  17
ENDBRANCH   5  16
TORSDOF 4
