REMARK  Name = ZINCrg000000nIAS.0
REMARK                            x       y       z     vdW  Elec       q    Type
REMARK                         _______ _______ _______ _____ _____    ______ ____
ROOT
ATOM      1  O   LIG    1       -0.018   1.448   0.010  0.00  0.00    -0.350 OA
ENDROOT
BRANCH   1   2
ATOM      2  C   LIG    1        1.170   2.073   0.002  0.00  0.00    +0.440 C 
ATOM      3  O   LIG    1        2.192   1.429  -0.011  0.00  0.00    -0.470 OA
BRANCH   2   8
ATOM      4  N   LIG    1        2.629   4.025   0.016  0.00  0.00    -1.000 NA
ATOM      5  C   LIG    1        2.874   4.795   1.250  0.00  0.00    +0.280 C 
ATOM      6  C   LIG    1        1.480   5.320   1.673  0.00  0.00    +0.040 C 
ATOM      7  C   LIG    1        0.568   4.124   1.294  0.00  0.00    +0.070 C 
ATOM      8  C   LIG    1        1.228   3.579   0.010  0.00  0.00    +0.270 C 
BRANCH   4   9
ATOM      9  S   LIG    1        3.747   3.714  -1.165  0.00  0.00    +2.620 S 
ATOM     10  O   LIG    1        3.292   2.511  -1.770  0.00  0.00    -0.930 OA
ATOM     11  O   LIG    1        4.996   3.768  -0.490  0.00  0.00    -0.940 OA
BRANCH   9  12
ATOM     12  C   LIG    1        3.586   5.106  -2.318  0.00  0.00    -0.370 C 
BRANCH  12  14
ATOM     13  C   LIG    1        4.444   6.106  -4.441  0.00  0.00    +0.040 C 
ATOM     14  C   LIG    1        4.579   4.933  -3.469  0.00  0.00    +0.040 C 
ENDBRANCH  12  14
ENDBRANCH   9  12
ENDBRANCH   4   9
ENDBRANCH   2   8
ENDBRANCH   1   2
BRANCH   1  15
ATOM     15  C   LIG    1        0.002  -0.004   0.002  0.00  0.00    +0.220 C 
BRANCH  15  16
ATOM     16  C   LIG    1       -1.433  -0.534   0.013  0.00  0.00    +0.350 C 
BRANCH  16  17
ATOM     17  N   LIG    1       -2.105  -0.148  -1.230  0.00  0.00    -0.580 N 
ATOM     18  C   LIG    1       -2.803   0.990  -1.398  0.00  0.00    +0.580 C 
ATOM     19  C   LIG    1       -3.326   1.023  -2.780  0.00  0.00    -0.140 A 
ATOM     20  C   LIG    1       -4.091   1.923  -3.503  0.00  0.00    +0.090 A 
ATOM     21  C   LIG    1       -4.422   1.641  -4.820  0.00  0.00    +0.050 A 
ATOM     22  C   LIG    1       -3.994   0.470  -5.414  0.00  0.00    +0.040 A 
ATOM     23  C   LIG    1       -3.228  -0.441  -4.702  0.00  0.00    +0.100 A 
ATOM     24  C   LIG    1       -2.889  -0.172  -3.386  0.00  0.00    -0.140 A 
ATOM     25  O   LIG    1       -2.972   1.848  -0.555  0.00  0.00    -0.450 OA
ATOM     26  C   LIG    1       -2.111  -0.889  -2.354  0.00  0.00    +0.570 C 
ATOM     27  O   LIG    1       -1.568  -1.966  -2.495  0.00  0.00    -0.460 OA
ENDBRANCH  16  17
ENDBRANCH  15  16
ENDBRANCH   1  15
TORSDOF 8
