REMARK  Name = ZINCvU0000000Dsf.0
REMARK                            x       y       z     vdW  Elec       q    Type
REMARK                         _______ _______ _______ _____ _____    ______ ____
ROOT
ATOM      1  C   LIG    1       -0.323  -1.152  -4.700  0.00  0.00    +0.290 A 
ATOM      2  N   LIG    1       -1.588  -0.860  -4.853  0.00  0.00    -0.490 NA
ATOM      3  C   LIG    1       -1.902  -0.870  -6.155  0.00  0.00    +0.270 A 
ATOM      4  N   LIG    1       -0.824  -1.173  -6.846  0.00  0.00    -0.270 NA
ATOM      5  N   LIG    1        0.213  -1.355  -5.917  0.00  0.00    -0.380 N 
ENDROOT
BRANCH   1  13
ATOM      6  C   LIG    1       -0.018   1.503   0.010  0.00  0.00    +0.100 C 
ATOM      7  C   LIG    1        0.002  -0.004   0.002  0.00  0.00    -0.090 A 
ATOM      8  C   LIG    1        0.023  -0.698   1.194  0.00  0.00    +0.040 A 
ATOM      9  C   LIG    1        0.042  -2.080   1.198  0.00  0.00    -0.010 A 
ATOM     10  C   LIG    1        0.045  -2.770  -0.001  0.00  0.00    +0.060 A 
ATOM     11  C   LIG    1        0.028  -2.080  -1.193  0.00  0.00    -0.170 A 
ATOM     12  C   LIG    1        0.037  -2.541  -2.637  0.00  0.00    +0.100 C 
ATOM     13  C   LIG    1        0.410  -1.240  -3.387  0.00  0.00    +0.270 C 
ATOM     14  O   LIG    1       -0.037  -0.214  -2.484  0.00  0.00    -0.270 OA
ATOM     15  C   LIG    1       -0.006  -0.692  -1.209  0.00  0.00    +0.100 A 
ENDBRANCH   1  13
BRANCH   3  16
ATOM     16  C   LIG    1       -3.242  -0.587  -6.724  0.00  0.00    +0.010 A 
ATOM     17  C   LIG    1       -4.307  -0.276  -5.881  0.00  0.00    +0.070 A 
ATOM     18  C   LIG    1       -5.553  -0.013  -6.411  0.00  0.00    +0.020 A 
ATOM     19  C   LIG    1       -5.748  -0.057  -7.785  0.00  0.00    +0.070 A 
ATOM     20  C   LIG    1       -4.686  -0.367  -8.631  0.00  0.00    +0.120 A 
ATOM     21  F   LIG    1       -4.878  -0.410  -9.968  0.00  0.00    -0.120 F 
ATOM     22  C   LIG    1       -3.437  -0.625  -8.105  0.00  0.00    +0.040 A 
BRANCH  19  23
ATOM     23  N   LIG    1       -7.011   0.210  -8.320  0.00  0.00    -0.510 N 
ATOM     24  C   LIG    1       -7.417   1.595  -8.045  0.00  0.00    +0.210 C 
ATOM     25  C   LIG    1       -8.009  -0.741  -7.813  0.00  0.00    +0.220 C 
ENDBRANCH  19  23
ENDBRANCH   3  16
BRANCH   5  26
ATOM     26  C   LIG    1        1.605  -1.700  -6.214  0.00  0.00    +0.270 C 
ATOM     27  C   LIG    1        2.222  -0.615  -7.099  0.00  0.00    +0.110 C 
BRANCH  26  28
ATOM     28  C   LIG    1        1.652  -3.043  -6.946  0.00  0.00    +0.450 C 
ATOM     29  F   LIG    1        1.088  -4.035  -6.137  0.00  0.00    -0.180 F 
ATOM     30  F   LIG    1        2.982  -3.373  -7.230  0.00  0.00    -0.170 F 
ATOM     31  F   LIG    1        0.930  -2.949  -8.140  0.00  0.00    -0.160 F 
ENDBRANCH  26  28
ENDBRANCH   5  26
TORSDOF 5
