REMARK  Name = ZINCwl000000052F.0
REMARK                            x       y       z     vdW  Elec       q    Type
REMARK                         _______ _______ _______ _____ _____    ______ ____
ROOT
ATOM      1  C   LIG    1        3.757   2.039   0.589  0.00  0.00    +0.570 C 
ATOM      2  N   LIG    1        4.840   1.510  -0.014  0.00  0.00    -0.660 N 
ATOM      3  H   LIG    1        4.803   0.610  -0.374  0.00  0.00    +0.400 HD
ATOM      4  O   LIG    1        3.833   3.125   1.132  0.00  0.00    -0.500 OA
ENDROOT
BRANCH   1   7
ATOM      5  C   LIG    1        0.161   1.155   1.214  0.00  0.00    +0.110 A 
ATOM      6  C   LIG    1        1.355   1.850   1.215  0.00  0.00    +0.050 A 
ATOM      7  C   LIG    1        2.479   1.302   0.590  0.00  0.00    -0.140 A 
ATOM      8  C   LIG    1        2.390   0.055  -0.033  0.00  0.00    +0.040 A 
ATOM      9  C   LIG    1        1.195  -0.633  -0.030  0.00  0.00    -0.050 A 
ATOM     10  C   LIG    1        0.079  -0.089   0.590  0.00  0.00    +0.140 A 
BRANCH   5  12
ATOM     11  C   LIG    1       -0.780   2.966   2.436  0.00  0.00    +0.250 C 
ATOM     12  O   LIG    1       -0.936   1.688   1.816  0.00  0.00    -0.300 OA
ENDBRANCH   5  12
BRANCH  10  13
ATOM     13  O   LIG    1       -1.096  -0.770   0.589  0.00  0.00    -0.270 OA
BRANCH  13  14
ATOM     14  C   LIG    1       -1.109  -2.039  -0.068  0.00  0.00    +0.240 C 
BRANCH  14  15
ATOM     15  C   LIG    1       -2.487  -2.643   0.033  0.00  0.00    +0.520 C 
ATOM     16  O   LIG    1       -3.370  -2.045   0.611  0.00  0.00    -0.510 OA
ATOM     17  N   LIG    1       -2.737  -3.846  -0.519  0.00  0.00    -0.850 N 
ATOM     18  H   LIG    1       -3.624  -4.235  -0.454  0.00  0.00    +0.410 HD
ATOM     19  H   LIG    1       -2.031  -4.324  -0.981  0.00  0.00    +0.400 HD
ENDBRANCH  14  15
ENDBRANCH  13  14
ENDBRANCH  10  13
ENDBRANCH   1   7
BRANCH   2  20
ATOM     20  C   LIG    1        6.011   2.254  -0.119  0.00  0.00    +0.200 A 
ATOM     21  C   LIG    1        5.961   3.641  -0.100  0.00  0.00    +0.030 A 
ATOM     22  C   LIG    1        7.124   4.378  -0.205  0.00  0.00    +0.080 A 
ATOM     23  C   LIG    1        8.348   3.741  -0.331  0.00  0.00    +0.000 A 
ATOM     24  C   LIG    1        8.418   2.365  -0.352  0.00  0.00    +0.060 A 
ATOM     25  C   LIG    1        7.250   1.606  -0.240  0.00  0.00    -0.190 A 
BRANCH  25  26
ATOM     26  C   LIG    1        7.319   0.133  -0.255  0.00  0.00    +0.560 C 
ATOM     27  N   LIG    1        7.931  -0.503  -1.273  0.00  0.00    -0.620 N 
ATOM     28  C   LIG    1        8.419   0.291  -2.418  0.00  0.00    +0.290 C 
ATOM     29  C   LIG    1        8.127  -0.421  -3.751  0.00  0.00    +0.060 C 
ATOM     30  C   LIG    1        6.755  -1.056  -3.692  0.00  0.00    +0.260 C 
ATOM     31  N   LIG    1        6.886  -2.445  -3.255  0.00  0.00    -0.370 N 
ATOM     32  C   LIG    1        6.866  -2.633  -1.855  0.00  0.00    +0.230 C 
ATOM     33  C   LIG    1        5.786  -3.221  -3.843  0.00  0.00    +0.330 C 
ATOM     34  H   LIG    1        7.757  -2.810  -3.611  0.00  0.00    +0.420 HD
ATOM     35  C   LIG    1        8.092  -1.941  -1.202  0.00  0.00    +0.330 C 
ATOM     36  O   LIG    1        6.822  -0.508   0.652  0.00  0.00    -0.510 OA
ENDBRANCH  25  26
ENDBRANCH   2  20
TORSDOF 7
