REMARK  Name = ZINCwl000000052F.1
REMARK                            x       y       z     vdW  Elec       q    Type
REMARK                         _______ _______ _______ _____ _____    ______ ____
ROOT
ATOM      1  C   LIG    1        1.454  -2.360   1.281  0.00  0.00    +0.570 C 
ATOM      2  N   LIG    1        2.423  -2.876   0.499  0.00  0.00    -0.670 N 
ATOM      3  H   LIG    1        3.052  -2.287   0.054  0.00  0.00    +0.400 HD
ATOM      4  O   LIG    1        0.623  -3.092   1.782  0.00  0.00    -0.500 OA
ENDROOT
BRANCH   1   7
ATOM      5  C   LIG    1        0.354   0.991   2.570  0.00  0.00    +0.110 A 
ATOM      6  C   LIG    1        0.398  -0.370   2.341  0.00  0.00    +0.040 A 
ATOM      7  C   LIG    1        1.402  -0.906   1.530  0.00  0.00    -0.140 A 
ATOM      8  C   LIG    1        2.357  -0.064   0.955  0.00  0.00    +0.040 A 
ATOM      9  C   LIG    1        2.307   1.294   1.189  0.00  0.00    -0.050 A 
ATOM     10  C   LIG    1        1.311   1.827   1.994  0.00  0.00    +0.140 A 
BRANCH   5  12
ATOM     11  C   LIG    1       -1.574   0.604   3.907  0.00  0.00    +0.250 C 
ATOM     12  O   LIG    1       -0.625   1.517   3.354  0.00  0.00    -0.300 OA
ENDBRANCH   5  12
BRANCH  10  13
ATOM     13  O   LIG    1        1.266   3.165   2.221  0.00  0.00    -0.270 OA
BRANCH  13  14
ATOM     14  C   LIG    1        2.276   3.962   1.600  0.00  0.00    +0.240 C 
BRANCH  14  15
ATOM     15  C   LIG    1        2.067   5.410   1.962  0.00  0.00    +0.520 C 
ATOM     16  O   LIG    1        1.144   5.728   2.682  0.00  0.00    -0.510 OA
ATOM     17  N   LIG    1        2.906   6.351   1.487  0.00  0.00    -0.850 N 
ATOM     18  H   LIG    1        2.771   7.283   1.720  0.00  0.00    +0.410 HD
ATOM     19  H   LIG    1        3.644   6.097   0.911  0.00  0.00    +0.400 HD
ENDBRANCH  14  15
ENDBRANCH  13  14
ENDBRANCH  10  13
ENDBRANCH   1   7
BRANCH   2  20
ATOM     20  C   LIG    1        2.521  -4.254   0.329  0.00  0.00    +0.200 A 
ATOM     21  C   LIG    1        1.377  -5.042   0.343  0.00  0.00    +0.020 A 
ATOM     22  C   LIG    1        1.476  -6.408   0.175  0.00  0.00    +0.080 A 
ATOM     23  C   LIG    1        2.713  -7.004  -0.009  0.00  0.00    +0.000 A 
ATOM     24  C   LIG    1        3.859  -6.238  -0.026  0.00  0.00    +0.060 A 
ATOM     25  C   LIG    1        3.775  -4.854   0.138  0.00  0.00    -0.180 A 
BRANCH  25  26
ATOM     26  C   LIG    1        4.997  -4.028   0.115  0.00  0.00    +0.560 C 
ATOM     27  N   LIG    1        5.866  -4.138  -0.909  0.00  0.00    -0.620 N 
ATOM     28  C   LIG    1        5.613  -5.154  -1.951  0.00  0.00    +0.290 C 
ATOM     29  C   LIG    1        5.908  -4.587  -3.355  0.00  0.00    +0.060 C 
ATOM     30  C   LIG    1        5.426  -3.155  -3.435  0.00  0.00    +0.260 C 
ATOM     31  N   LIG    1        6.528  -2.256  -3.101  0.00  0.00    -0.370 N 
ATOM     32  C   LIG    1        6.669  -1.971  -1.725  0.00  0.00    +0.240 C 
ATOM     33  C   LIG    1        6.322  -0.990  -3.817  0.00  0.00    +0.320 C 
ATOM     34  H   LIG    1        7.388  -2.669  -3.430  0.00  0.00    +0.420 HD
ATOM     35  C   LIG    1        7.017  -3.261  -0.945  0.00  0.00    +0.320 C 
ATOM     36  O   LIG    1        5.220  -3.248   1.021  0.00  0.00    -0.500 OA
ENDBRANCH  25  26
ENDBRANCH   2  20
TORSDOF 7
