REMARK  Name = ZINCqH0000003Tw5.0
REMARK                            x       y       z     vdW  Elec       q    Type
REMARK                         _______ _______ _______ _____ _____    ______ ____
ROOT
ATOM      1  C   LIG    1       -2.240   4.355  -0.322  0.00  0.00    +0.560 C 
ATOM      2  N   LIG    1       -2.022   5.680  -0.444  0.00  0.00    -0.580 N 
ATOM      3  C   LIG    1       -0.660   6.210  -0.344  0.00  0.00    +0.280 C 
ATOM      4  O   LIG    1       -3.376   3.925  -0.310  0.00  0.00    -0.530 OA
ENDROOT
BRANCH   1  10
ATOM      5  C   LIG    1       -0.874   2.459  -1.185  0.00  0.00    -0.620 A 
ATOM      6  C   LIG    1        0.192   1.591  -1.065  0.00  0.00    +0.130 A 
ATOM      7  C   LIG    1        1.045   1.684   0.020  0.00  0.00    +0.020 A 
ATOM      8  C   LIG    1        0.834   2.643   0.994  0.00  0.00    +0.070 A 
ATOM      9  C   LIG    1       -0.232   3.514   0.888  0.00  0.00    +0.030 A 
ATOM     10  C   LIG    1       -1.096   3.426  -0.203  0.00  0.00    -0.030 A 
BRANCH   5  11
ATOM     11  S   LIG    1       -1.955   2.343  -2.572  0.00  0.00    +2.480 S 
ATOM     12  O   LIG    1       -1.308   1.429  -3.446  0.00  0.00    -0.940 OA
ATOM     13  O   LIG    1       -2.178   3.693  -2.957  0.00  0.00    -0.930 OA
BRANCH  11  15
ATOM     14  C   LIG    1       -4.461   1.350  -3.041  0.00  0.00    +0.080 C 
ATOM     15  C   LIG    1       -3.475   1.614  -1.901  0.00  0.00    -0.310 C 
ENDBRANCH  11  15
ENDBRANCH   5  11
ENDBRANCH   1  10
BRANCH   2  16
ATOM     16  C   LIG    1       -3.147   6.589  -0.675  0.00  0.00    +0.290 C 
BRANCH  16  17
ATOM     17  C   LIG    1       -3.704   7.063   0.669  0.00  0.00    -0.070 C 
ATOM     18  C   LIG    1       -2.608   7.796   1.445  0.00  0.00    +0.020 C 
ATOM     19  C   LIG    1       -3.165   8.270   2.789  0.00  0.00    -0.020 C 
ATOM     20  C   LIG    1       -3.643   7.062   3.598  0.00  0.00    +0.010 C 
ATOM     21  C   LIG    1       -4.739   6.330   2.821  0.00  0.00    -0.020 C 
ATOM     22  C   LIG    1       -5.914   7.280   2.580  0.00  0.00    +0.010 C 
ATOM     23  C   LIG    1       -5.436   8.487   1.771  0.00  0.00    -0.010 C 
ATOM     24  C   LIG    1       -4.340   9.220   2.547  0.00  0.00    +0.010 C 
ATOM     25  C   LIG    1       -4.182   5.856   1.478  0.00  0.00    +0.040 C 
ATOM     26  C   LIG    1       -4.879   8.013   0.427  0.00  0.00    +0.030 C 
ENDBRANCH  16  17
ENDBRANCH   2  16
TORSDOF 5
