REMARK  Name = ZINCpe00000VVGUp.0
REMARK                            x       y       z     vdW  Elec       q    Type
REMARK                         _______ _______ _______ _____ _____    ______ ____
ROOT
ATOM      1  N   LIG    1       -7.005   1.874   6.394  0.00  0.00    -0.540 NA
ATOM      2  C   LIG    1       -6.829   3.006   5.456  0.00  0.00    +0.190 C 
ATOM      3  C   LIG    1       -5.966   2.633   4.240  0.00  0.00    +0.020 C 
ATOM      4  C   LIG    1       -4.779   1.786   4.626  0.00  0.00    +0.200 C 
ATOM      5  N   LIG    1       -5.158   0.362   4.497  0.00  0.00    -0.550 NA
ATOM      6  C   LIG    1       -5.900  -0.131   5.577  0.00  0.00    +0.200 C 
ATOM      7  C   LIG    1       -7.244   0.606   5.742  0.00  0.00    +0.210 C 
ENDROOT
BRANCH   1   8
ATOM      8  C   LIG    1       -8.055   2.165   7.380  0.00  0.00    +0.210 C 
BRANCH   8  11
ATOM      9  C   LIG    1       -9.743   3.142   9.436  0.00  0.00    +0.280 C 
ATOM     10  N   LIG    1       -8.464   3.810   9.181  0.00  0.00    -0.620 N 
ATOM     11  C   LIG    1       -7.650   3.358   8.207  0.00  0.00    +0.510 C 
ATOM     12  O   LIG    1       -6.591   3.911   7.996  0.00  0.00    -0.510 OA
BRANCH  10  13
ATOM     13  C   LIG    1       -8.071   4.970   9.985  0.00  0.00    +0.300 C 
BRANCH  13  14
ATOM     14  C   LIG    1       -8.580   6.250   9.318  0.00  0.00    +0.180 C 
BRANCH  14  15
ATOM     15  C   LIG    1       -8.184   7.415  10.126  0.00  0.00    +0.210 C 
ATOM     16  N   LIG    1       -7.879   8.314  10.749  0.00  0.00    -0.430 NA
ENDBRANCH  14  15
ENDBRANCH  13  14
ENDBRANCH  10  13
ENDBRANCH   8  11
ENDBRANCH   1   8
BRANCH   5  17
ATOM     17  C   LIG    1       -3.978  -0.476   4.243  0.00  0.00    +0.320 C 
BRANCH  17  18
ATOM     18  C   LIG    1       -3.344  -0.068   2.939  0.00  0.00    +0.180 A 
ATOM     19  N   LIG    1       -3.621  -0.550   1.764  0.00  0.00    -0.370 NA
ATOM     20  O   LIG    1       -2.942  -0.009   0.917  0.00  0.00    +0.080 OA
ATOM     21  C   LIG    1       -2.136   0.891   1.489  0.00  0.00    +0.210 A 
ATOM     22  N   LIG    1       -2.387   0.864   2.776  0.00  0.00    -0.480 NA
BRANCH  21  23
ATOM     23  C   LIG    1       -1.136   1.773   0.788  0.00  0.00    +0.070 C 
ATOM     24  C   LIG    1       -0.013   1.086   0.008  0.00  0.00    +0.070 C 
ATOM     25  C   LIG    1       -1.150   1.781  -0.743  0.00  0.00    +0.060 C 
ENDBRANCH  21  23
ENDBRANCH  17  18
ENDBRANCH   5  17
TORSDOF 8
