REMARK  Name = ZINCvU0000000EcL.0
REMARK                            x       y       z     vdW  Elec       q    Type
REMARK                         _______ _______ _______ _____ _____    ______ ____
ROOT
ATOM      1  C   LIG    1       -4.279  -4.372   0.017  0.00  0.00    +0.130 C 
ATOM      2  C   LIG    1       -4.429  -5.711   0.011  0.00  0.00    -0.080 C 
ENDROOT
BRANCH   1   7
ATOM      3  C   LIG    1       -1.498  -1.848   0.006  0.00  0.00    +0.130 A 
ATOM      4  C   LIG    1       -0.385  -2.679  -0.015  0.00  0.00    -0.070 A 
ATOM      5  C   LIG    1       -0.540  -4.053  -0.015  0.00  0.00    +0.050 A 
ATOM      6  C   LIG    1       -1.802  -4.610  -0.006  0.00  0.00    -0.010 A 
ATOM      7  C   LIG    1       -2.930  -3.782   0.008  0.00  0.00    -0.040 A 
ATOM      8  C   LIG    1       -2.770  -2.394   0.014  0.00  0.00    +0.020 A 
BRANCH   3   9
ATOM      9  O   LIG    1       -1.339  -0.499   0.012  0.00  0.00    -0.310 OA
BRANCH   9  10
ATOM     10  C   LIG    1        0.002  -0.004   0.002  0.00  0.00    +0.320 C 
BRANCH  10  14
ATOM     11  C   LIG    1        2.068   4.508   0.006  0.00  0.00    +0.180 C 
ATOM     12  C   LIG    1        0.936   3.513   0.011  0.00  0.00    +0.050 A 
ATOM     13  N   LIG    1        1.080   2.231   0.004  0.00  0.00    -0.470 NA
ATOM     14  C   LIG    1       -0.018   1.503   0.010  0.00  0.00    +0.060 A 
ATOM     15  C   LIG    1       -1.152   2.210   0.019  0.00  0.00    -0.050 A 
ATOM     16  S   LIG    1       -0.724   3.920   0.029  0.00  0.00    +0.130 S 
ENDBRANCH  10  14
ENDBRANCH   9  10
ENDBRANCH   3   9
ENDBRANCH   1   7
BRANCH   2  17
ATOM     17  C   LIG    1       -5.771  -6.298   0.020  0.00  0.00    +0.550 C 
ATOM     18  N   LIG    1       -5.921  -7.637   0.014  0.00  0.00    -0.720 N 
ATOM     19  H   LIG    1       -5.141  -8.213   0.004  0.00  0.00    +0.400 HD
ATOM     20  O   LIG    1       -6.750  -5.575   0.032  0.00  0.00    -0.540 OA
BRANCH  18  21
ATOM     21  C   LIG    1       -7.264  -8.223   0.023  0.00  0.00    +0.280 C 
ATOM     22  C   LIG    1       -7.769  -8.320   1.464  0.00  0.00    +0.040 C 
BRANCH  21  23
ATOM     23  C   LIG    1       -7.214  -9.601  -0.586  0.00  0.00    -0.090 A 
ATOM     24  C   LIG    1       -6.150 -10.440  -0.311  0.00  0.00    +0.050 A 
ATOM     25  C   LIG    1       -6.107 -11.706  -0.865  0.00  0.00    +0.030 A 
ATOM     26  C   LIG    1       -7.122 -12.129  -1.702  0.00  0.00    +0.070 A 
ATOM     27  C   LIG    1       -8.184 -11.288  -1.981  0.00  0.00    -0.180 A 
ATOM     28  C   LIG    1       -8.230 -10.024  -1.423  0.00  0.00    +0.080 A 
BRANCH  27  29
ATOM     29  C   LIG    1       -9.291 -11.749  -2.894  0.00  0.00    +0.510 C 
ATOM     30  F   LIG    1      -10.489 -11.129  -2.524  0.00  0.00    -0.180 F 
ATOM     31  F   LIG    1       -9.433 -13.137  -2.791  0.00  0.00    -0.180 F 
ATOM     32  F   LIG    1       -8.978 -11.409  -4.215  0.00  0.00    -0.170 F 
ENDBRANCH  27  29
ENDBRANCH  21  23
ENDBRANCH  18  21
ENDBRANCH   2  17
TORSDOF 8
