REMARK  Name = ZINCrD00000zCpZ2.0
REMARK                            x       y       z     vdW  Elec       q    Type
REMARK                         _______ _______ _______ _____ _____    ______ ____
ROOT
ATOM      1  C   LIG    1       -0.366   3.226  -1.334  0.00  0.00    +0.330 C 
ENDROOT
BRANCH   1   2
ATOM      2  C   LIG    1       -1.806   3.358  -0.910  0.00  0.00    -0.080 A 
ATOM      3  C   LIG    1       -2.271   4.559  -0.408  0.00  0.00    +0.090 A 
ATOM      4  C   LIG    1       -3.593   4.683  -0.023  0.00  0.00    +0.040 A 
ATOM      5  C   LIG    1       -4.449   3.603  -0.129  0.00  0.00    +0.060 A 
ATOM      6  C   LIG    1       -3.983   2.398  -0.626  0.00  0.00    -0.040 A 
ATOM      7 CL   LIG    1       -5.058   1.041  -0.760  0.00  0.00    -0.040 Cl
ATOM      8  C   LIG    1       -2.661   2.276  -1.016  0.00  0.00    -0.030 A 
ATOM      9 CL   LIG    1       -2.076   0.765  -1.640  0.00  0.00    -0.030 Cl
ENDBRANCH   1   2
BRANCH   1  10
ATOM     10  C   LIG    1        0.347   2.280  -0.403  0.00  0.00    +0.160 A 
ATOM     11  N   LIG    1        0.947   1.162  -0.732  0.00  0.00    -0.280 NA
ATOM     12  N   LIG    1        1.429   0.638   0.341  0.00  0.00    -0.080 NA
ATOM     13  N   LIG    1        1.153   1.393   1.347  0.00  0.00    -0.080 NA
ATOM     14  N   LIG    1        0.487   2.415   0.929  0.00  0.00    -0.280 N 
BRANCH  14  15
ATOM     15  C   LIG    1       -0.022   3.517   1.749  0.00  0.00    +0.170 C 
ATOM     16  C   LIG    1        0.450   4.849   1.164  0.00  0.00    +0.080 C 
ATOM     17  C   LIG    1        0.504   3.373   3.179  0.00  0.00    +0.080 C 
ATOM     18  C   LIG    1       -1.552   3.479   1.762  0.00  0.00    +0.060 C 
ENDBRANCH  14  15
ENDBRANCH   1  10
BRANCH   1  19
ATOM     19  N   LIG    1        0.282   4.543  -1.284  0.00  0.00    -0.680 NA
ATOM     20  H   LIG    1        1.100   4.522  -0.693  0.00  0.00    +0.360 HD
BRANCH  19  21
ATOM     21  C   LIG    1        0.620   5.016  -2.633  0.00  0.00    +0.200 C 
BRANCH  21  22
ATOM     22  C   LIG    1        1.292   6.387  -2.541  0.00  0.00    +0.060 C 
BRANCH  22  25
ATOM     23  N   LIG    1        2.242   8.065  -4.090  0.00  0.00    -0.730 N 
ATOM     24  H   LIG    1        2.454   8.612  -3.317  0.00  0.00    +0.400 HD
ATOM     25  C   LIG    1        1.639   6.871  -3.925  0.00  0.00    +0.510 C 
ATOM     26  O   LIG    1        1.375   6.187  -4.891  0.00  0.00    -0.540 OA
BRANCH  23  28
ATOM     27  C   LIG    1        1.364   9.230  -6.052  0.00  0.00    +0.030 C 
ATOM     28  C   LIG    1        2.579   8.536  -5.435  0.00  0.00    +0.220 C 
ATOM     29  C   LIG    1        3.744   9.524  -5.353  0.00  0.00    +0.030 C 
ENDBRANCH  23  28
ENDBRANCH  22  25
ENDBRANCH  21  22
ENDBRANCH  19  21
ENDBRANCH   1  19
TORSDOF 8
