REMARK  Name = ZINCrg00000bipju.1
REMARK                            x       y       z     vdW  Elec       q    Type
REMARK                         _______ _______ _______ _____ _____    ______ ____
ROOT
ATOM      1  N   LIG    1        0.175   3.333   4.328  0.00  0.00    -0.280 N 
ATOM      2  C   LIG    1        0.065   4.590   4.817  0.00  0.00    +0.170 A 
ATOM      3  C   LIG    1        1.145   4.781   5.611  0.00  0.00    -0.050 A 
ATOM      4  N   LIG    1        1.857   3.650   5.563  0.00  0.00    -0.250 NA
ATOM      5  N   LIG    1        1.256   2.812   4.794  0.00  0.00    -0.050 NA
ENDROOT
BRANCH   1   6
ATOM      6  C   LIG    1       -0.770   2.680   3.419  0.00  0.00    +0.370 C 
BRANCH   6  13
ATOM      7  C   LIG    1       -0.144   0.987  -2.487  0.00  0.00    +0.050 C 
ATOM      8  C   LIG    1       -0.762   1.597  -1.227  0.00  0.00    +0.160 C 
ATOM      9  C   LIG    1       -0.013   1.086   0.008  0.00  0.00    +0.250 C 
ATOM     10  N   LIG    1       -0.709   1.564   1.212  0.00  0.00    -0.610 N 
ATOM     11  C   LIG    1       -2.162   1.331   1.310  0.00  0.00    +0.230 C 
ATOM     12  C   LIG    1       -2.826   1.832   0.024  0.00  0.00    +0.220 C 
ATOM     13  C   LIG    1       -0.037   2.199   2.193  0.00  0.00    +0.510 C 
ATOM     14  O   LIG    1        1.157   2.383   2.090  0.00  0.00    -0.500 OA
ATOM     15  N   LIG    1       -2.175   1.208  -1.135  0.00  0.00    -0.680 NA
ATOM     16  H   LIG    1       -2.272   0.204  -1.107  0.00  0.00    +0.350 HD
ENDBRANCH   6  13
ENDBRANCH   1   6
BRANCH   3  17
ATOM     17  C   LIG    1        1.481   6.026   6.392  0.00  0.00    +0.430 C 
BRANCH  17  18
ATOM     18  N   LIG    1        1.672   5.681   7.803  0.00  0.00    -0.450 N 
ATOM     19  C   LIG    1        2.836   5.322   8.388  0.00  0.00    +0.420 A 
ATOM     20  N   LIG    1        2.621   5.090   9.652  0.00  0.00    -0.480 NA
ATOM     21  C   LIG    1        1.315   5.290   9.924  0.00  0.00    +0.040 A 
ATOM     22  C   LIG    1        0.706   5.668   8.770  0.00  0.00    +0.130 A 
BRANCH  21  23
ATOM     23  C   LIG    1        0.662   5.132  11.247  0.00  0.00    +0.000 A 
ATOM     24  C   LIG    1       -0.703   5.378  11.387  0.00  0.00    +0.010 A 
ATOM     25  C   LIG    1       -1.306   5.222  12.618  0.00  0.00    +0.000 A 
ATOM     26  C   LIG    1       -0.557   4.836  13.715  0.00  0.00    +0.000 A 
ATOM     27  C   LIG    1        0.799   4.597  13.583  0.00  0.00    +0.000 A 
ATOM     28  C   LIG    1        1.412   4.742  12.355  0.00  0.00    +0.030 A 
ENDBRANCH  21  23
ENDBRANCH  17  18
ENDBRANCH   3  17
TORSDOF 5
