REMARK  Name = ZINCpe000027pHje.0
REMARK                            x       y       z     vdW  Elec       q    Type
REMARK                         _______ _______ _______ _____ _____    ______ ____
ROOT
ATOM      1  C   LIG    1       -0.033   1.053  -5.897  0.00  0.00    -0.060 A 
ATOM      2  C   LIG    1        0.721   0.843  -7.033  0.00  0.00    +0.030 A 
ATOM      3  C   LIG    1        1.823   0.007  -6.992  0.00  0.00    +0.030 A 
ATOM      4  C   LIG    1        2.176  -0.624  -5.812  0.00  0.00    +0.020 A 
ATOM      5  C   LIG    1        1.434  -0.418  -4.668  0.00  0.00    +0.040 A 
ATOM      6  C   LIG    1        0.318   0.419  -4.704  0.00  0.00    -0.110 A 
ENDROOT
BRANCH   6   7
ATOM      7  C   LIG    1       -0.485   0.640  -3.482  0.00  0.00    +0.560 C 
ATOM      8  N   LIG    1        0.114   1.054  -2.348  0.00  0.00    -0.610 N 
ATOM      9  C   LIG    1       -0.675   1.367  -1.146  0.00  0.00    +0.260 C 
ATOM     10  C   LIG    1       -0.252   2.749  -0.636  0.00  0.00    +0.220 C 
ATOM     11  O   LIG    1        1.170   2.781  -0.488  0.00  0.00    -0.360 OA
ATOM     12  C   LIG    1        1.890   2.596  -1.710  0.00  0.00    +0.160 C 
ATOM     13  C   LIG    1        1.575   1.206  -2.275  0.00  0.00    +0.260 C 
ATOM     14  O   LIG    1       -1.685   0.448  -3.501  0.00  0.00    -0.520 OA
BRANCH  12  15
ATOM     15  C   LIG    1        3.391   2.712  -1.441  0.00  0.00    +0.130 C 
BRANCH  15  16
ATOM     16  C   LIG    1        3.716   4.115  -0.999  0.00  0.00    +0.460 C 
ATOM     17  O   LIG    1        2.836   4.939  -0.909  0.00  0.00    -0.490 OA
BRANCH  16  18
ATOM     18  O   LIG    1        4.982   4.451  -0.706  0.00  0.00    -0.360 OA
ATOM     19  C   LIG    1        5.221   5.821  -0.288  0.00  0.00    +0.260 C 
ENDBRANCH  16  18
ENDBRANCH  15  16
ENDBRANCH  12  15
ENDBRANCH   6   7
BRANCH   1  20
ATOM     20  C   LIG    1       -1.232   1.964  -5.945  0.00  0.00    +0.320 C 
BRANCH  20  22
ATOM     21  C   LIG    1       -1.792   4.257  -5.340  0.00  0.00    +0.540 C 
ATOM     22  N   LIG    1       -0.871   3.275  -5.399  0.00  0.00    -0.720 N 
ATOM     23  H   LIG    1        0.031   3.436  -5.079  0.00  0.00    +0.400 HD
ATOM     24  O   LIG    1       -2.922   4.056  -5.740  0.00  0.00    -0.540 OA
BRANCH  21  26
ATOM     25  C   LIG    1       -2.338   6.543  -4.734  0.00  0.00    +0.150 C 
ATOM     26  C   LIG    1       -1.429   5.573  -4.792  0.00  0.00    -0.090 C 
ENDBRANCH  21  26
ENDBRANCH  20  22
ENDBRANCH   1  20
TORSDOF 7
