REMARK  Name = ZINCkj00000yPdWq.1
REMARK                            x       y       z     vdW  Elec       q    Type
REMARK                         _______ _______ _______ _____ _____    ______ ____
ROOT
ATOM      1  C   LIG    1       -0.124  -0.189   0.184  0.00  0.00    +0.170 C 
ATOM      2  C   LIG    1        0.759  -0.546  -1.013  0.00  0.00    +0.230 C 
ATOM      3  N   LIG    1        0.797  -2.007  -1.171  0.00  0.00    -0.530 NA
ATOM      4  C   LIG    1       -0.556  -2.546  -1.366  0.00  0.00    +0.200 C 
ATOM      5  C   LIG    1       -1.429  -2.172  -0.166  0.00  0.00    +0.280 C 
ATOM      6  N   LIG    1       -1.480  -0.710  -0.035  0.00  0.00    -0.380 N 
ATOM      7  H   LIG    1       -1.862  -0.310  -0.878  0.00  0.00    +0.420 HD
ENDROOT
BRANCH   1   9
ATOM      8  C   LIG    1        1.215   1.865   0.665  0.00  0.00    +0.070 C 
ATOM      9  C   LIG    1       -0.181   1.333   0.339  0.00  0.00    +0.030 C 
ENDBRANCH   1   9
BRANCH   3  10
ATOM     10  C   LIG    1        1.682  -2.394  -2.278  0.00  0.00    +0.270 C 
BRANCH  10  11
ATOM     11  C   LIG    1        0.978  -2.131  -3.610  0.00  0.00    +0.160 C 
BRANCH  11  12
ATOM     12  O   LIG    1        0.784  -0.725  -3.777  0.00  0.00    -0.380 OA
BRANCH  12  13
ATOM     13  C   LIG    1        0.130  -0.369  -4.997  0.00  0.00    +0.220 C 
BRANCH  13  14
ATOM     14  C   LIG    1       -0.024   1.152  -5.067  0.00  0.00    +0.460 C 
ATOM     15  F   LIG    1       -0.788   1.594  -3.982  0.00  0.00    -0.180 F 
ATOM     16  F   LIG    1       -0.664   1.501  -6.262  0.00  0.00    -0.170 F 
ATOM     17  F   LIG    1        1.240   1.751  -5.023  0.00  0.00    -0.170 F 
ENDBRANCH  13  14
ENDBRANCH  12  13
ENDBRANCH  11  12
ENDBRANCH  10  11
ENDBRANCH   3  10
BRANCH   6  18
ATOM     18  C   LIG    1       -2.332  -0.351   1.107  0.00  0.00    +0.230 C 
BRANCH  18  19
ATOM     19  C   LIG    1       -3.776  -0.765   0.815  0.00  0.00    +0.200 C 
ATOM     20  C   LIG    1       -4.664  -0.390   2.004  0.00  0.00    +0.050 C 
BRANCH  19  21
ATOM     21  O   LIG    1       -4.238  -0.089  -0.356  0.00  0.00    -0.560 OA
ATOM     22  H   LIG    1       -4.227   0.875  -0.284  0.00  0.00    +0.390 HD
ENDBRANCH  19  21
ENDBRANCH  18  19
ENDBRANCH   6  18
TORSDOF 9
