REMARK  Name = ZINCkj00000yPdWq.0
REMARK                            x       y       z     vdW  Elec       q    Type
REMARK                         _______ _______ _______ _____ _____    ______ ____
ROOT
ATOM      1  C   LIG    1       -0.744   1.729  -1.090  0.00  0.00    +0.170 C 
ATOM      2  C   LIG    1       -0.180   1.063  -2.347  0.00  0.00    +0.200 C 
ATOM      3  N   LIG    1        1.206   1.507  -2.553  0.00  0.00    -0.530 NA
ATOM      4  C   LIG    1        1.272   2.969  -2.686  0.00  0.00    +0.220 C 
ATOM      5  C   LIG    1        0.696   3.619  -1.426  0.00  0.00    +0.260 C 
ATOM      6  N   LIG    1       -0.697   3.189  -1.245  0.00  0.00    -0.380 N 
ATOM      7  H   LIG    1       -1.239   3.458  -2.052  0.00  0.00    +0.420 HD
ENDROOT
BRANCH   1   9
ATOM      8  C   LIG    1       -0.026  -0.192   0.338  0.00  0.00    +0.060 C 
ATOM      9  C   LIG    1        0.093   1.318   0.124  0.00  0.00    +0.040 C 
ENDBRANCH   1   9
BRANCH   3  10
ATOM     10  C   LIG    1        1.802   0.845  -3.721  0.00  0.00    +0.270 C 
BRANCH  10  11
ATOM     11  C   LIG    1        0.830   0.918  -4.900  0.00  0.00    +0.150 C 
BRANCH  11  12
ATOM     12  O   LIG    1        0.682   2.278  -5.312  0.00  0.00    -0.380 OA
BRANCH  12  13
ATOM     13  C   LIG    1       -0.210   2.458  -6.414  0.00  0.00    +0.220 C 
BRANCH  13  14
ATOM     14  C   LIG    1       -0.291   3.945  -6.767  0.00  0.00    +0.460 C 
ATOM     15  F   LIG    1       -0.763   4.661  -5.663  0.00  0.00    -0.180 F 
ATOM     16  F   LIG    1       -1.164   4.121  -7.846  0.00  0.00    -0.170 F 
ATOM     17  F   LIG    1        0.981   4.411  -7.116  0.00  0.00    -0.170 F 
ENDBRANCH  13  14
ENDBRANCH  12  13
ENDBRANCH  11  12
ENDBRANCH  10  11
ENDBRANCH   3  10
BRANCH   6  18
ATOM     18  C   LIG    1       -1.254   3.827  -0.046  0.00  0.00    +0.220 C 
BRANCH  18  19
ATOM     19  C   LIG    1       -2.741   3.483   0.071  0.00  0.00    +0.200 C 
ATOM     20  C   LIG    1       -3.326   4.164   1.310  0.00  0.00    +0.050 C 
BRANCH  19  21
ATOM     21  O   LIG    1       -3.429   3.942  -1.095  0.00  0.00    -0.560 OA
ATOM     22  H   LIG    1       -3.367   4.896  -1.238  0.00  0.00    +0.390 HD
ENDBRANCH  19  21
ENDBRANCH  18  19
ENDBRANCH   6  18
TORSDOF 9
