REMARK  Name = ZINCvU00000006VZ.0
REMARK                            x       y       z     vdW  Elec       q    Type
REMARK                         _______ _______ _______ _____ _____    ______ ____
ROOT
ATOM      1  C   LIG    1       -1.656  -0.700   2.512  0.00  0.00    +0.290 C 
ENDROOT
BRANCH   1   2
ATOM      2  C   LIG    1       -1.900   0.190   1.291  0.00  0.00    -0.010 C 
ATOM      3  C   LIG    1       -1.080  -0.319   0.083  0.00  0.00    +0.060 C 
ATOM      4  C   LIG    1       -2.050  -0.119  -1.108  0.00  0.00    +0.200 C 
ATOM      5  N   LIG    1       -3.374  -0.464  -0.529  0.00  0.00    -0.390 N 
ATOM      6  C   LIG    1       -3.374   0.095   0.840  0.00  0.00    +0.100 C 
ATOM      7  C   LIG    1       -4.148  -0.830   1.781  0.00  0.00    +0.080 C 
ATOM      8  C   LIG    1       -4.007   1.488   0.834  0.00  0.00    +0.030 C 
BRANCH   5   9
ATOM      9  C   LIG    1       -4.400   0.075  -1.284  0.00  0.00    +0.330 A 
ATOM     10  N   LIG    1       -5.633  -0.364  -1.345  0.00  0.00    -0.270 NA
ATOM     11  N   LIG    1       -6.312   0.382  -2.143  0.00  0.00    -0.280 NA
ATOM     12  C   LIG    1       -5.544   1.313  -2.627  0.00  0.00    +0.170 A 
ATOM     13  O   LIG    1       -4.316   1.144  -2.097  0.00  0.00    -0.250 OA
BRANCH  12  14
ATOM     14  C   LIG    1       -5.952   2.387  -3.603  0.00  0.00    +0.030 C 
ATOM     15  C   LIG    1       -6.454   1.738  -4.894  0.00  0.00    +0.070 C 
ATOM     16  C   LIG    1       -4.747   3.277  -3.914  0.00  0.00    +0.050 C 
ATOM     17  C   LIG    1       -7.068   3.235  -2.991  0.00  0.00    +0.070 C 
ENDBRANCH  12  14
ENDBRANCH   5   9
ENDBRANCH   1   2
BRANCH   1  19
ATOM     18  C   LIG    1        0.180  -1.252   4.015  0.00  0.00    +0.520 C 
ATOM     19  N   LIG    1       -0.265  -0.557   2.950  0.00  0.00    -0.730 N 
ATOM     20  H   LIG    1        0.335   0.037   2.473  0.00  0.00    +0.400 HD
ATOM     21  O   LIG    1       -0.551  -2.043   4.572  0.00  0.00    -0.530 OA
BRANCH  18  22
ATOM     22  C   LIG    1        1.587  -1.047   4.514  0.00  0.00    -0.010 C 
BRANCH  22  24
ATOM     23  C   LIG    1        1.431   1.429   4.212  0.00  0.00    +0.010 C 
ATOM     24  C   LIG    1        1.685   0.307   5.221  0.00  0.00    +0.000 C 
ATOM     25  C   LIG    1        0.639   0.377   6.335  0.00  0.00    +0.020 C 
ENDBRANCH  22  24
BRANCH  22  26
ATOM     26  C   LIG    1        1.948  -2.162   5.497  0.00  0.00    +0.050 C 
BRANCH  26  27
ATOM     27  C   LIG    1        3.397  -1.990   5.955  0.00  0.00    -0.020 C 
ATOM     28  C   LIG    1        4.336  -2.200   4.766  0.00  0.00    +0.000 C 
ATOM     29  C   LIG    1        5.786  -2.028   5.223  0.00  0.00    +0.000 C 
ATOM     30  C   LIG    1        6.103  -3.056   6.311  0.00  0.00    +0.000 C 
ATOM     31  C   LIG    1        5.164  -2.845   7.501  0.00  0.00    +0.000 C 
ATOM     32  C   LIG    1        3.714  -3.018   7.043  0.00  0.00    +0.010 C 
ENDBRANCH  26  27
ENDBRANCH  22  26
ENDBRANCH  18  22
ENDBRANCH   1  19
TORSDOF 8
