REMARK  Name = ZINCpk00000jCL3c.1
REMARK                            x       y       z     vdW  Elec       q    Type
REMARK                         _______ _______ _______ _____ _____    ______ ____
ROOT
ATOM      1  N   LIG    1        3.600  -2.243  -0.147  0.00  0.00    -0.610 N 
ATOM      2  C   LIG    1        3.661  -0.901  -0.039  0.00  0.00    +0.570 C 
ATOM      3  O   LIG    1        2.638  -0.253   0.076  0.00  0.00    -0.510 OA
ENDROOT
BRANCH   2   4
ATOM      4  C   LIG    1        4.965  -0.219  -0.059  0.00  0.00    -0.110 A 
ATOM      5  C   LIG    1        5.850  -0.414  -1.108  0.00  0.00    +0.100 A 
ATOM      6  C   LIG    1        7.084   0.223  -1.140  0.00  0.00    -0.140 A 
ATOM      7  C   LIG    1        7.499   1.065  -0.158  0.00  0.00    +0.120 A 
ATOM      8  C   LIG    1        6.676   1.330   0.953  0.00  0.00    -0.210 A 
ATOM      9  C   LIG    1        6.790   2.112   2.090  0.00  0.00    +0.290 A 
ATOM     10  N   LIG    1        5.666   1.966   2.803  0.00  0.00    -0.420 N 
ATOM     11  H   LIG    1        5.483   2.405   3.649  0.00  0.00    +0.450 HD
ATOM     12  N   LIG    1        4.795   1.088   2.148  0.00  0.00    -0.290 NA
ATOM     13  C   LIG    1        7.999  -0.031  -2.310  0.00  0.00    +0.100 C 
ATOM     14  C   LIG    1        5.358   0.680   1.032  0.00  0.00    +0.130 A 
ENDBRANCH   2   4
BRANCH   1  16
ATOM     15  C   LIG    1        1.960  -3.141  -1.723  0.00  0.00    +0.020 C 
ATOM     16  C   LIG    1        2.301  -2.911  -0.249  0.00  0.00    +0.280 C 
ENDBRANCH   1  16
BRANCH   1  17
ATOM     17  C   LIG    1        4.834  -3.033  -0.164  0.00  0.00    +0.280 C 
BRANCH  17  18
ATOM     18  C   LIG    1        5.209  -3.422   1.268  0.00  0.00    +0.260 C 
BRANCH  18  19
ATOM     19  N   LIG    1        6.442  -4.212   1.252  0.00  0.00    -0.730 N 
ATOM     20  H   LIG    1        6.882  -4.408   0.409  0.00  0.00    +0.400 HD
ATOM     21  C   LIG    1        6.966  -4.668   2.407  0.00  0.00    +0.590 C 
ATOM     22  O   LIG    1        6.414  -4.423   3.463  0.00  0.00    -0.510 OA
BRANCH  21  23
ATOM     23  C   LIG    1        8.205  -5.462   2.391  0.00  0.00    -0.040 A 
ATOM     24  C   LIG    1        8.863  -5.997   3.485  0.00  0.00    +0.020 A 
ATOM     25  C   LIG    1        9.976  -6.658   2.960  0.00  0.00    +0.190 A 
ATOM     26  N   LIG    1        9.955  -6.510   1.660  0.00  0.00    -0.270 NA
ATOM     27  N   LIG    1        8.933  -5.823   1.293  0.00  0.00    -0.380 N 
ATOM     28  H   LIG    1        8.714  -5.593   0.376  0.00  0.00    +0.440 HD
ENDBRANCH  21  23
ENDBRANCH  18  19
ENDBRANCH  17  18
ENDBRANCH   1  17
TORSDOF 6
