REMARK  Name = ZINCpk00000jCL3c.0
REMARK                            x       y       z     vdW  Elec       q    Type
REMARK                         _______ _______ _______ _____ _____    ______ ____
ROOT
ATOM      1  N   LIG    1        1.326   2.099  -0.000  0.00  0.00    -0.600 N 
ATOM      2  C   LIG    1        1.964   2.355   1.159  0.00  0.00    +0.570 C 
ATOM      3  O   LIG    1        1.434   2.081   2.218  0.00  0.00    -0.520 OA
ENDROOT
BRANCH   2   4
ATOM      4  C   LIG    1        3.305   2.969   1.142  0.00  0.00    -0.150 A 
ATOM      5  C   LIG    1        3.531   4.195   1.791  0.00  0.00    +0.170 A 
ATOM      6  N   LIG    1        2.736   5.046   2.504  0.00  0.00    -0.500 N 
ATOM      7  H   LIG    1        1.793   4.913   2.689  0.00  0.00    +0.440 HD
ATOM      8  N   LIG    1        3.498   6.140   2.927  0.00  0.00    -0.240 NA
ATOM      9  C   LIG    1        4.730   6.009   2.524  0.00  0.00    +0.280 A 
ATOM     10  C   LIG    1        4.819   4.762   1.769  0.00  0.00    -0.180 A 
ATOM     11  C   LIG    1        5.856   4.108   1.096  0.00  0.00    +0.130 A 
ATOM     12  C   LIG    1        5.617   2.910   0.460  0.00  0.00    -0.130 A 
ATOM     13  C   LIG    1        6.739   2.213  -0.264  0.00  0.00    +0.100 C 
ATOM     14  C   LIG    1        4.355   2.340   0.479  0.00  0.00    +0.100 A 
ENDBRANCH   2   4
BRANCH   1  16
ATOM     15  C   LIG    1       -0.017   0.056  -0.080  0.00  0.00    +0.020 C 
ATOM     16  C   LIG    1       -0.045   1.583   0.017  0.00  0.00    +0.280 C 
ENDBRANCH   1  16
BRANCH   1  17
ATOM     17  C   LIG    1        2.003   2.336  -1.278  0.00  0.00    +0.280 C 
BRANCH  17  18
ATOM     18  C   LIG    1        1.730   3.768  -1.741  0.00  0.00    +0.250 C 
BRANCH  18  19
ATOM     19  N   LIG    1        2.407   4.006  -3.018  0.00  0.00    -0.730 N 
ATOM     20  H   LIG    1        2.928   3.298  -3.430  0.00  0.00    +0.400 HD
ATOM     21  C   LIG    1        2.307   5.207  -3.621  0.00  0.00    +0.590 C 
ATOM     22  O   LIG    1        1.655   6.094  -3.104  0.00  0.00    -0.510 OA
BRANCH  21  23
ATOM     23  C   LIG    1        2.987   5.446  -4.904  0.00  0.00    -0.050 A 
ATOM     24  C   LIG    1        2.981   6.616  -5.643  0.00  0.00    +0.020 A 
ATOM     25  C   LIG    1        3.763   6.347  -6.769  0.00  0.00    +0.190 A 
ATOM     26  N   LIG    1        4.184   5.111  -6.679  0.00  0.00    -0.270 NA
ATOM     27  N   LIG    1        3.756   4.558  -5.601  0.00  0.00    -0.380 N 
ATOM     28  H   LIG    1        3.948   3.647  -5.327  0.00  0.00    +0.440 HD
ENDBRANCH  21  23
ENDBRANCH  18  19
ENDBRANCH  17  18
ENDBRANCH   1  17
TORSDOF 6
