REMARK  Name = ZINCvU0000000DoZ.0
REMARK                            x       y       z     vdW  Elec       q    Type
REMARK                         _______ _______ _______ _____ _____    ______ ____
ROOT
ATOM      1  O   LIG    1       -5.240   5.470  -4.805  0.00  0.00    -0.500 OA
ATOM      2  C   LIG    1       -5.686   5.580  -3.682  0.00  0.00    +0.520 C 
ATOM      3  N   LIG    1       -4.856   5.819  -2.647  0.00  0.00    -0.670 N 
ATOM      4  H   LIG    1       -5.201   5.830  -1.741  0.00  0.00    +0.410 HD
ENDROOT
BRANCH   3   5
ATOM      5  C   LIG    1       -3.495   6.051  -2.881  0.00  0.00    +0.170 A 
ATOM      6  C   LIG    1       -3.095   6.711  -4.042  0.00  0.00    -0.010 A 
ATOM      7  C   LIG    1       -1.772   6.945  -4.284  0.00  0.00    +0.080 A 
ATOM      8  C   LIG    1       -0.811   6.520  -3.364  0.00  0.00    -0.120 A 
ATOM      9  C   LIG    1        0.651   6.603  -3.310  0.00  0.00    -0.050 A 
ATOM     10  C   LIG    1        1.036   6.019  -2.165  0.00  0.00    +0.220 A 
ATOM     11  N   LIG    1       -0.060   5.559  -1.485  0.00  0.00    -0.480 N 
ATOM     12  C   LIG    1       -1.206   5.853  -2.190  0.00  0.00    +0.120 A 
ATOM     13  C   LIG    1       -2.557   5.623  -1.958  0.00  0.00    -0.040 A 
BRANCH  11  14
ATOM     14  C   LIG    1       -0.021   4.863  -0.196  0.00  0.00    +0.340 C 
BRANCH  14  15
ATOM     15  C   LIG    1       -0.035   3.374  -0.428  0.00  0.00    -0.120 A 
ATOM     16  C   LIG    1        1.155   2.686  -0.575  0.00  0.00    +0.020 A 
ATOM     17  C   LIG    1        1.142   1.320  -0.787  0.00  0.00    +0.000 A 
ATOM     18  C   LIG    1       -0.061   0.642  -0.852  0.00  0.00    +0.010 A 
ATOM     19  C   LIG    1       -1.251   1.331  -0.711  0.00  0.00    +0.000 A 
ATOM     20  C   LIG    1       -1.238   2.697  -0.494  0.00  0.00    +0.020 A 
ENDBRANCH  14  15
ENDBRANCH  11  14
ENDBRANCH   3   5
BRANCH   2  21
ATOM     21  C   LIG    1       -7.168   5.448  -3.444  0.00  0.00    +0.120 C 
BRANCH  21  22
ATOM     22  C   LIG    1       -7.866   5.184  -4.753  0.00  0.00    -0.080 A 
ATOM     23  C   LIG    1       -8.408   6.233  -5.471  0.00  0.00    +0.070 A 
ATOM     24  C   LIG    1       -9.049   5.992  -6.672  0.00  0.00    +0.000 A 
ATOM     25  C   LIG    1       -9.148   4.702  -7.159  0.00  0.00    +0.050 A 
ATOM     26  C   LIG    1       -8.607   3.650  -6.445  0.00  0.00    -0.060 A 
ATOM     27  C   LIG    1       -7.959   3.889  -5.242  0.00  0.00    +0.120 A 
BRANCH  27  28
ATOM     28  O   LIG    1       -7.421   2.857  -4.542  0.00  0.00    -0.310 OA
BRANCH  28  29
ATOM     29  C   LIG    1       -7.554   1.551  -5.105  0.00  0.00    +0.600 C 
ATOM     30  F   LIG    1       -8.911   1.241  -5.249  0.00  0.00    -0.160 F 
ATOM     31  F   LIG    1       -6.949   0.614  -4.261  0.00  0.00    -0.130 F 
ATOM     32  F   LIG    1       -6.934   1.518  -6.359  0.00  0.00    -0.160 F 
ENDBRANCH  28  29
ENDBRANCH  27  28
ENDBRANCH  21  22
ENDBRANCH   2  21
TORSDOF 7
