REMARK  Name = ZINCrH00000tj1k2.1
REMARK                            x       y       z     vdW  Elec       q    Type
REMARK                         _______ _______ _______ _____ _____    ______ ____
ROOT
ATOM      1  N   LIG    1       -3.514   1.672  -0.800  0.00  0.00    -0.600 N 
ATOM      2  C   LIG    1       -4.562   2.001  -0.025  0.00  0.00    +0.610 C 
ATOM      3  C   LIG    1       -4.338   1.553   1.361  0.00  0.00    -0.030 A 
ATOM      4  N   LIG    1       -4.842   1.506   2.578  0.00  0.00    -0.200 NA
ATOM      5  N   LIG    1       -4.030   0.911   3.379  0.00  0.00    -0.380 N 
ATOM      6  H   LIG    1       -4.191   0.760   4.323  0.00  0.00    +0.450 HD
ATOM      7  C   LIG    1       -2.910   0.522   2.702  0.00  0.00    +0.110 A 
ATOM      8  C   LIG    1       -3.076   0.918   1.413  0.00  0.00    -0.180 A 
ATOM      9  O   LIG    1       -5.555   2.585  -0.413  0.00  0.00    -0.490 OA
ATOM     10  C   LIG    1       -2.514   0.979   0.019  0.00  0.00    +0.360 C 
ENDROOT
BRANCH  10  11
ATOM     11  C   LIG    1       -1.219   1.751   0.017  0.00  0.00    -0.060 A 
ATOM     12  C   LIG    1       -0.013   1.076   0.008  0.00  0.00    +0.040 A 
ATOM     13  C   LIG    1        1.175   1.783   0.000  0.00  0.00    +0.050 A 
ATOM     14  C   LIG    1        1.156   3.166   0.008  0.00  0.00    -0.080 A 
ATOM     15  C   LIG    1       -0.051   3.841   0.022  0.00  0.00    +0.040 A 
ATOM     16 BR   LIG    1        2.780   4.134  -0.003  0.00  0.00    -0.060 Br
ATOM     17  C   LIG    1       -1.238   3.133   0.030  0.00  0.00    +0.030 A 
ENDBRANCH  10  11
BRANCH   7  18
ATOM     18  C   LIG    1       -1.742  -0.192   3.263  0.00  0.00    -0.070 A 
ATOM     19  C   LIG    1       -1.883  -1.488   3.755  0.00  0.00    +0.050 A 
ATOM     20  C   LIG    1       -0.790  -2.149   4.277  0.00  0.00    +0.000 A 
ATOM     21  C   LIG    1        0.447  -1.530   4.314  0.00  0.00    +0.040 A 
ATOM     22  C   LIG    1        0.599  -0.245   3.829  0.00  0.00    -0.010 A 
ATOM     23  C   LIG    1       -0.488   0.430   3.297  0.00  0.00    +0.150 A 
BRANCH  23  24
ATOM     24  O   LIG    1       -0.338   1.691   2.815  0.00  0.00    -0.480 OA
ATOM     25  H   LIG    1       -0.479   2.384   3.475  0.00  0.00    +0.390 HD
ENDBRANCH  23  24
ENDBRANCH   7  18
BRANCH   1  26
ATOM     26  C   LIG    1       -3.392   1.960  -2.231  0.00  0.00    +0.340 C 
BRANCH  26  27
ATOM     27  C   LIG    1       -3.972   0.796  -3.037  0.00  0.00    +0.150 C 
BRANCH  27  29
ATOM     28  C   LIG    1       -6.020  -0.362  -3.498  0.00  0.00    +0.200 C 
ATOM     29  O   LIG    1       -5.377   0.700  -2.790  0.00  0.00    -0.380 OA
ENDBRANCH  27  29
ENDBRANCH  26  27
ENDBRANCH   1  26
TORSDOF 6
