REMARK  Name = ZINCrH00000tj1k2.0
REMARK                            x       y       z     vdW  Elec       q    Type
REMARK                         _______ _______ _______ _____ _____    ______ ____
ROOT
ATOM      1  N   LIG    1        1.771   5.213   0.590  0.00  0.00    -0.590 N 
ATOM      2  C   LIG    1        2.207   6.237  -0.166  0.00  0.00    +0.600 C 
ATOM      3  C   LIG    1        2.720   5.742  -1.448  0.00  0.00    -0.060 A 
ATOM      4  C   LIG    1        2.591   4.367  -1.473  0.00  0.00    -0.180 A 
ATOM      5  C   LIG    1        3.094   3.959  -2.713  0.00  0.00    +0.120 A 
ATOM      6  N   LIG    1        3.486   5.042  -3.355  0.00  0.00    -0.230 NA
ATOM      7  N   LIG    1        3.280   6.093  -2.644  0.00  0.00    -0.330 N 
ATOM      8  H   LIG    1        3.491   6.999  -2.916  0.00  0.00    +0.450 HD
ATOM      9  O   LIG    1        2.180   7.406   0.167  0.00  0.00    -0.500 OA
ATOM     10  C   LIG    1        1.974   3.967  -0.161  0.00  0.00    +0.360 C 
ENDROOT
BRANCH  10  11
ATOM     11  C   LIG    1        0.653   3.282  -0.396  0.00  0.00    -0.080 A 
ATOM     12  C   LIG    1       -0.426   4.005  -0.870  0.00  0.00    +0.040 A 
ATOM     13  C   LIG    1       -1.638   3.378  -1.086  0.00  0.00    +0.040 A 
ATOM     14  C   LIG    1       -1.774   2.027  -0.822  0.00  0.00    -0.080 A 
ATOM     15  C   LIG    1       -0.693   1.302  -0.353  0.00  0.00    +0.050 A 
ATOM     16 BR   LIG    1       -3.435   1.169  -1.110  0.00  0.00    -0.050 Br
ATOM     17  C   LIG    1        0.519   1.931  -0.137  0.00  0.00    +0.040 A 
ENDBRANCH  10  11
BRANCH   5  18
ATOM     18  C   LIG    1        3.172   2.564  -3.213  0.00  0.00    -0.040 A 
ATOM     19  C   LIG    1        2.842   1.502  -2.376  0.00  0.00    +0.050 A 
ATOM     20  C   LIG    1        2.911   0.206  -2.848  0.00  0.00    +0.000 A 
ATOM     21  C   LIG    1        3.319  -0.042  -4.146  0.00  0.00    +0.040 A 
ATOM     22  C   LIG    1        3.655   1.005  -4.984  0.00  0.00    -0.020 A 
ATOM     23  C   LIG    1        3.584   2.311  -4.525  0.00  0.00    +0.130 A 
BRANCH  23  24
ATOM     24  O   LIG    1        3.913   3.341  -5.347  0.00  0.00    -0.480 OA
ATOM     25  H   LIG    1        4.848   3.589  -5.312  0.00  0.00    +0.390 HD
ENDBRANCH  23  24
ENDBRANCH   5  18
BRANCH   1  26
ATOM     26  C   LIG    1        1.194   5.322   1.932  0.00  0.00    +0.340 C 
BRANCH  26  27
ATOM     27  C   LIG    1        2.308   5.226   2.976  0.00  0.00    +0.160 C 
BRANCH  27  29
ATOM     28  C   LIG    1        4.261   6.359   3.781  0.00  0.00    +0.200 C 
ATOM     29  O   LIG    1        3.180   6.351   2.847  0.00  0.00    -0.380 OA
ENDBRANCH  27  29
ENDBRANCH  26  27
ENDBRANCH   1  26
TORSDOF 6
