REMARK  Name = ZINCrH000004joUW.0
REMARK                            x       y       z     vdW  Elec       q    Type
REMARK                         _______ _______ _______ _____ _____    ______ ____
ROOT
ATOM      1  N   LIG    1       -7.036  -3.314  -0.323  0.00  0.00    -0.500 N 
ATOM      2  C   LIG    1       -8.011  -2.335  -0.383  0.00  0.00    +0.150 A 
ATOM      3  C   LIG    1       -7.384  -1.082  -0.329  0.00  0.00    -0.110 A 
ATOM      4  C   LIG    1       -5.936  -1.342  -0.230  0.00  0.00    -0.090 A 
ATOM      5  C   LIG    1       -4.819  -0.515  -0.145  0.00  0.00    +0.040 A 
ATOM      6  C   LIG    1       -3.555  -1.074  -0.061  0.00  0.00    +0.110 A 
ATOM      7  C   LIG    1       -3.403  -2.458  -0.067  0.00  0.00    +0.060 A 
ATOM      8  C   LIG    1       -4.504  -3.282  -0.145  0.00  0.00    +0.010 A 
ATOM      9  C   LIG    1       -8.148   0.082  -0.373  0.00  0.00    +0.060 A 
ATOM     10  C   LIG    1       -9.520  -0.002  -0.470  0.00  0.00    -0.020 A 
ATOM     11  C   LIG    1      -10.142  -1.240  -0.524  0.00  0.00    +0.050 A 
ATOM     12  C   LIG    1       -9.398  -2.400  -0.481  0.00  0.00    -0.020 A 
ATOM     13  C   LIG    1       -5.781  -2.736  -0.230  0.00  0.00    +0.140 A 
ENDROOT
BRANCH   6  14
ATOM     14  N   LIG    1       -2.428  -0.246   0.025  0.00  0.00    -0.660 N 
ATOM     15  H   LIG    1       -2.420   0.610  -0.430  0.00  0.00    +0.410 HD
ATOM     16  C   LIG    1       -1.355  -0.641   0.739  0.00  0.00    +0.580 C 
ATOM     17  O   LIG    1       -1.401  -1.669   1.387  0.00  0.00    -0.510 OA
BRANCH  16  18
ATOM     18  C   LIG    1       -0.129   0.173   0.735  0.00  0.00    -0.180 A 
ATOM     19  C   LIG    1       -0.002   1.333   0.037  0.00  0.00    +0.000 A 
ATOM     20  S   LIG    1        1.547   2.008   0.262  0.00  0.00    +0.340 S 
ATOM     21  C   LIG    1        2.045   0.701   1.322  0.00  0.00    -0.820 A 
ATOM     22  C   LIG    1        1.062  -0.178   1.472  0.00  0.00    +0.230 A 
BRANCH  21  23
ATOM     23  S   LIG    1        3.630   0.574   2.082  0.00  0.00    +2.730 S 
ATOM     24  O   LIG    1        3.460  -0.245   3.230  0.00  0.00    -0.950 OA
ATOM     25  O   LIG    1        4.154   1.894   2.140  0.00  0.00    -0.950 OA
BRANCH  23  26
ATOM     26  N   LIG    1        4.605  -0.271   1.044  0.00  0.00    -1.250 NA
ATOM     27  H   LIG    1        4.222  -0.938   0.454  0.00  0.00    +0.420 HD
ATOM     28  H   LIG    1        5.559  -0.099   1.027  0.00  0.00    +0.420 HD
ENDBRANCH  23  26
ENDBRANCH  21  23
ENDBRANCH  16  18
ENDBRANCH   6  14
BRANCH   1  30
ATOM     29  C   LIG    1       -7.282  -5.247  -1.802  0.00  0.00    +0.020 C 
ATOM     30  C   LIG    1       -7.294  -4.756  -0.352  0.00  0.00    +0.290 C 
ENDBRANCH   1  30
TORSDOF 5
