REMARK  Name = ZINCpk000012a1C6.0
REMARK                            x       y       z     vdW  Elec       q    Type
REMARK                         _______ _______ _______ _____ _____    ______ ____
ROOT
ATOM      1  C   LIG    1       -2.548  -1.234  -2.783  0.00  0.00    +0.200 C 
ATOM      2  C   LIG    1       -1.702  -2.063  -1.814  0.00  0.00    +0.080 C 
ENDROOT
BRANCH   1   7
ATOM      3  N   LIG    1       -4.340  -3.010  -3.158  0.00  0.00    -0.290 N 
ATOM      4  N   LIG    1       -5.623  -3.060  -3.036  0.00  0.00    -0.080 NA
ATOM      5  N   LIG    1       -6.048  -1.913  -2.634  0.00  0.00    -0.070 NA
ATOM      6  N   LIG    1       -5.047  -1.114  -2.488  0.00  0.00    -0.300 NA
ATOM      7  C   LIG    1       -3.957  -1.769  -2.805  0.00  0.00    +0.140 A 
BRANCH   3   9
ATOM      8  C   LIG    1       -3.608  -5.285  -2.640  0.00  0.00    +0.070 C 
ATOM      9  C   LIG    1       -3.464  -4.099  -3.596  0.00  0.00    +0.250 C 
ATOM     10  C   LIG    1       -3.857  -4.533  -5.010  0.00  0.00    +0.070 C 
ENDBRANCH   3   9
ENDBRANCH   1   7
BRANCH   1  11
ATOM     11  N   LIG    1       -2.563   0.168  -2.344  0.00  0.00    -0.620 NA
ATOM     12  H   LIG    1       -3.137   0.732  -2.953  0.00  0.00    +0.360 HD
BRANCH  11  13
ATOM     13  C   LIG    1       -3.011   0.278  -0.949  0.00  0.00    +0.160 C 
ATOM     14  C   LIG    1       -1.793   0.272   0.029  0.00  0.00    -0.260 C 
ATOM     15  S   LIG    1       -2.811   1.504   0.925  0.00  0.00    +2.360 S 
ATOM     16  O   LIG    1       -3.649   0.881   1.889  0.00  0.00    -0.920 OA
ATOM     17  O   LIG    1       -2.061   2.671   1.234  0.00  0.00    -0.930 OA
ATOM     18  C   LIG    1       -3.649   1.658  -0.683  0.00  0.00    -0.500 C 
ATOM     19  C   LIG    1       -5.172   1.695  -0.640  0.00  0.00    +0.080 C 
ATOM     20  C   LIG    1       -5.594   2.880  -1.541  0.00  0.00    +0.020 C 
ATOM     21  C   LIG    1       -4.348   3.805  -1.561  0.00  0.00    +0.020 C 
ATOM     22  C   LIG    1       -3.165   2.799  -1.576  0.00  0.00    +0.100 C 
ENDBRANCH  11  13
ENDBRANCH   1  11
BRANCH   1  23
ATOM     23  C   LIG    1       -1.948  -1.321  -4.188  0.00  0.00    +0.080 C 
BRANCH  23  24
ATOM     24  C   LIG    1       -2.748  -0.431  -5.141  0.00  0.00    +0.190 C 
BRANCH  24  25
ATOM     25  C   LIG    1       -2.249  -0.610  -6.514  0.00  0.00    +0.200 C 
ATOM     26  N   LIG    1       -1.864  -0.748  -7.574  0.00  0.00    -0.420 NA
ENDBRANCH  24  25
ENDBRANCH  23  24
ENDBRANCH   1  23
TORSDOF 7
