REMARK  Name = ZINCkj000005iMsn.0
REMARK                            x       y       z     vdW  Elec       q    Type
REMARK                         _______ _______ _______ _____ _____    ______ ____
ROOT
ATOM      1  C   LIG    1       -2.082  -2.717   1.001  0.00  0.00    +0.460 A 
ATOM      2  N   LIG    1       -3.128  -2.061   1.501  0.00  0.00    -0.550 NA
ATOM      3  C   LIG    1       -3.140  -0.739   1.505  0.00  0.00    +0.600 A 
ATOM      4  N   LIG    1       -2.116  -0.064   1.014  0.00  0.00    -0.620 NA
ATOM      5  C   LIG    1       -1.067  -0.712   0.514  0.00  0.00    +0.590 A 
ATOM      6  N   LIG    1       -1.052  -2.040   0.502  0.00  0.00    -0.600 NA
ENDROOT
BRANCH   1  12
ATOM      7  C   LIG    1       -3.151  -4.912   1.521  0.00  0.00    +0.190 A 
ATOM      8  C   LIG    1       -3.132  -6.298   1.507  0.00  0.00    -0.080 A 
ATOM      9  C   LIG    1       -2.042  -6.970   0.988  0.00  0.00    +0.090 A 
ATOM     10  C   LIG    1       -0.967  -6.266   0.473  0.00  0.00    -0.040 A 
ATOM     11  C   LIG    1       -0.975  -4.887   0.474  0.00  0.00    +0.120 A 
ATOM     12  C   LIG    1       -2.068  -4.198   0.996  0.00  0.00    -0.110 A 
BRANCH   7  14
ATOM     13  C   LIG    1       -5.287  -5.047   2.555  0.00  0.00    +0.250 C 
ATOM     14  O   LIG    1       -4.219  -4.251   2.037  0.00  0.00    -0.280 OA
ENDBRANCH   7  14
ENDBRANCH   1  12
BRANCH   5  15
ATOM     15  N   LIG    1        0.002  -0.004   0.002  0.00  0.00    -0.690 N 
ATOM     16  H   LIG    1        0.766  -0.477  -0.363  0.00  0.00    +0.420 HD
BRANCH  15  17
ATOM     17  C   LIG    1       -0.018   1.461   0.010  0.00  0.00    +0.280 C 
ATOM     18  C   LIG    1        1.421   2.016  -0.001  0.00  0.00    +0.080 C 
ATOM     19  C   LIG    1        1.524   2.840  -1.302  0.00  0.00    +0.280 C 
ATOM     20  N   LIG    1        0.121   3.211  -1.622  0.00  0.00    -0.520 N 
ATOM     21  H   LIG    1        0.029   3.433  -2.602  0.00  0.00    +0.440 HD
ATOM     22  H   LIG    1       -0.175   3.991  -1.054  0.00  0.00    +0.440 HD
ATOM     23  C   LIG    1       -0.664   1.995  -1.286  0.00  0.00    +0.260 C 
ENDBRANCH  15  17
ENDBRANCH   5  15
TORSDOF 4
