REMARK  Name = ZINCqH0000006yvf.0
REMARK                            x       y       z     vdW  Elec       q    Type
REMARK                         _______ _______ _______ _____ _____    ______ ____
ROOT
ATOM      1  C   LIG    1        1.185   1.785   0.000  0.00  0.00    +0.200 A 
ATOM      2  C   LIG    1       -0.013   1.076   0.008  0.00  0.00    -0.110 A 
ATOM      3  C   LIG    1       -1.206   1.740   0.017  0.00  0.00    +0.160 A 
ATOM      4  C   LIG    1       -1.224   3.137   0.029  0.00  0.00    -0.290 A 
ATOM      5  C   LIG    1       -2.498   3.872   0.034  0.00  0.00    +0.410 C 
ATOM      6  C   LIG    1       -2.420   5.363   0.313  0.00  0.00    +0.020 C 
ATOM      7  C   LIG    1       -1.186   5.899  -0.426  0.00  0.00    +0.130 C 
ATOM      8  O   LIG    1       -0.022   5.215   0.037  0.00  0.00    -0.290 OA
ATOM      9  C   LIG    1       -1.356   5.662  -1.928  0.00  0.00    +0.000 C 
ATOM     10  C   LIG    1       -0.132   6.202  -2.671  0.00  0.00    +0.020 C 
ATOM     11  C   LIG    1        0.006   7.702  -2.402  0.00  0.00    +0.010 C 
ATOM     12  C   LIG    1        0.177   7.938  -0.900  0.00  0.00    +0.020 C 
ATOM     13  C   LIG    1       -1.046   7.398  -0.156  0.00  0.00    +0.070 C 
ATOM     14  O   LIG    1       -3.556   3.316  -0.174  0.00  0.00    -0.450 OA
ATOM     15  C   LIG    1       -0.018   3.862   0.025  0.00  0.00    +0.230 A 
ATOM     16  C   LIG    1        1.184   3.173   0.009  0.00  0.00    -0.050 A 
ENDROOT
BRANCH   1  17
ATOM     17  O   LIG    1        2.364   1.114  -0.016  0.00  0.00    -0.300 OA
BRANCH  17  18
ATOM     18  C   LIG    1        2.298  -0.313  -0.025  0.00  0.00    +0.190 C 
BRANCH  18  19
ATOM     19  C   LIG    1        3.716  -0.889  -0.043  0.00  0.00    +0.180 C 
BRANCH  19  20
ATOM     20  C   LIG    1        3.646  -2.411  -0.178  0.00  0.00    -0.020 C 
ATOM     21  C   LIG    1        5.069  -3.011  -0.295  0.00  0.00    +0.030 C 
ATOM     22  C   LIG    1        4.872  -4.106  -1.374  0.00  0.00    +0.200 C 
ATOM     23  O   LIG    1        3.933  -3.509  -2.293  0.00  0.00    -0.370 OA
ATOM     24  C   LIG    1        2.961  -2.805  -1.502  0.00  0.00    +0.210 C 
ENDBRANCH  19  20
BRANCH  19  26
ATOM     25  C   LIG    1        5.096   0.689   1.119  0.00  0.00    +0.220 C 
ATOM     26  O   LIG    1        4.384  -0.549   1.173  0.00  0.00    -0.380 OA
ENDBRANCH  19  26
ENDBRANCH  18  19
ENDBRANCH  17  18
ENDBRANCH   1  17
TORSDOF 5
