REMARK  Name = ZINCkj00000ha7bI.1
REMARK                            x       y       z     vdW  Elec       q    Type
REMARK                         _______ _______ _______ _____ _____    ______ ____
ROOT
ATOM      1  N   LIG    1       -0.722   1.593  -1.174  0.00  0.00    -0.370 N 
ATOM      2  C   LIG    1       -2.059   0.971  -1.229  0.00  0.00    +0.270 C 
ATOM      3  C   LIG    1       -2.972   1.879  -2.015  0.00  0.00    +0.050 C 
ATOM      4  C   LIG    1       -3.062   1.448  -3.490  0.00  0.00    +0.050 C 
ATOM      5  C   LIG    1       -1.689   1.019  -4.046  0.00  0.00    +0.000 C 
ATOM      6  C   LIG    1       -0.575   1.924  -3.585  0.00  0.00    +0.080 C 
ATOM      7  C   LIG    1        0.055   1.335  -2.305  0.00  0.00    +0.240 C 
ATOM      8  H   LIG    1       -0.834   2.591  -1.079  0.00  0.00    +0.410 HD
ENDROOT
BRANCH   1   9
ATOM      9  C   LIG    1       -0.014   1.085   0.009  0.00  0.00    +0.400 C 
BRANCH   9  14
ATOM     10  N   LIG    1       -0.654   2.665   1.893  0.00  0.00    -0.350 N 
ATOM     11  N   LIG    1       -1.528   2.600   2.990  0.00  0.00    -0.270 NA
ATOM     12  C   LIG    1       -2.096   1.424   2.952  0.00  0.00    +0.440 A 
ATOM     13  N   LIG    1       -1.635   0.755   1.896  0.00  0.00    -0.500 NA
ATOM     14  C   LIG    1       -0.762   1.488   1.253  0.00  0.00    +0.200 A 
BRANCH  10  16
ATOM     15  C   LIG    1       -0.647   5.054   1.372  0.00  0.00    +0.060 C 
ATOM     16  C   LIG    1        0.204   3.792   1.519  0.00  0.00    +0.240 C 
ATOM     17  C   LIG    1        1.260   4.011   2.604  0.00  0.00    +0.070 C 
ENDBRANCH  10  16
ENDBRANCH   9  14
ENDBRANCH   1   9
BRANCH   5  18
ATOM     18  C   LIG    1       -1.744   1.040  -5.575  0.00  0.00    +0.060 C 
BRANCH  18  19
ATOM     19  C   LIG    1       -2.771   0.047  -6.054  0.00  0.00    +0.510 C 
ATOM     20  O   LIG    1       -3.398  -0.613  -5.252  0.00  0.00    -0.540 OA
ATOM     21  N   LIG    1       -2.994  -0.108  -7.374  0.00  0.00    -0.850 N 
ATOM     22  H   LIG    1       -3.656  -0.747  -7.683  0.00  0.00    +0.410 HD
ATOM     23  H   LIG    1       -2.494   0.419  -8.016  0.00  0.00    +0.400 HD
ENDBRANCH  18  19
ENDBRANCH   5  18
TORSDOF 5
