REMARK  Name = ZINCkj00000ha7bI.2
REMARK                            x       y       z     vdW  Elec       q    Type
REMARK                         _______ _______ _______ _____ _____    ______ ____
ROOT
ATOM      1  N   LIG    1        0.905   6.477   0.514  0.00  0.00    -0.380 N 
ATOM      2  C   LIG    1        0.665   6.449  -0.909  0.00  0.00    +0.220 C 
ATOM      3  C   LIG    1       -0.346   5.327  -1.195  0.00  0.00    +0.060 C 
ATOM      4  C   LIG    1        0.274   4.013  -1.309  0.00  0.00    +0.040 C 
ATOM      5  C   LIG    1        0.979   3.615   0.012  0.00  0.00    -0.010 C 
ATOM      6  C   LIG    1        2.266   4.386   0.128  0.00  0.00    +0.060 C 
ATOM      7  C   LIG    1        2.119   5.718   0.884  0.00  0.00    +0.250 C 
ATOM      8  H   LIG    1        0.110   6.076   0.989  0.00  0.00    +0.430 HD
ENDROOT
BRANCH   1   9
ATOM      9  C   LIG    1        1.063   7.873   0.944  0.00  0.00    +0.400 C 
BRANCH   9  14
ATOM     10  N   LIG    1       -0.523   9.291  -0.445  0.00  0.00    -0.350 N 
ATOM     11  N   LIG    1       -1.803   9.835  -0.246  0.00  0.00    -0.270 NA
ATOM     12  C   LIG    1       -2.179   9.485   0.956  0.00  0.00    +0.440 A 
ATOM     13  N   LIG    1       -1.215   8.755   1.516  0.00  0.00    -0.500 NA
ATOM     14  C   LIG    1       -0.215   8.627   0.682  0.00  0.00    +0.200 A 
BRANCH  10  16
ATOM     15  C   LIG    1       -0.431   8.827  -2.844  0.00  0.00    +0.060 C 
ATOM     16  C   LIG    1        0.309   9.420  -1.644  0.00  0.00    +0.240 C 
ATOM     17  C   LIG    1        0.601  10.899  -1.905  0.00  0.00    +0.070 C 
ENDBRANCH  10  16
ENDBRANCH   9  14
ENDBRANCH   1   9
BRANCH   5  18
ATOM     18  C   LIG    1        1.278   2.115   0.001  0.00  0.00    +0.060 C 
BRANCH  18  19
ATOM     19  C   LIG    1       -0.016   1.344   0.009  0.00  0.00    +0.510 C 
ATOM     20  O   LIG    1       -1.075   1.936   0.018  0.00  0.00    -0.540 OA
ATOM     21  N   LIG    1        0.002  -0.004   0.002  0.00  0.00    -0.850 N 
ATOM     22  H   LIG    1       -0.831  -0.500   0.007  0.00  0.00    +0.410 HD
ATOM     23  H   LIG    1        0.849  -0.478  -0.009  0.00  0.00    +0.410 HD
ENDBRANCH  18  19
ENDBRANCH   5  18
TORSDOF 5
