REMARK  Name = ZINCpe000000YwdS.0
REMARK                            x       y       z     vdW  Elec       q    Type
REMARK                         _______ _______ _______ _____ _____    ______ ____
ROOT
ATOM      1  C   LIG    1       -6.364   6.168  -0.951  0.00  0.00    +0.220 C 
ENDROOT
BRANCH   1   2
ATOM      2  O   LIG    1       -6.917   4.854  -1.049  0.00  0.00    -0.530 OA
ATOM      3  H   LIG    1       -7.440   4.707  -1.849  0.00  0.00    +0.370 HD
ENDBRANCH   1   2
BRANCH   1   4
ATOM      4  C   LIG    1       -7.494   7.199  -0.948  0.00  0.00    +0.170 C 
BRANCH   4   5
ATOM      5  O   LIG    1       -8.287   7.033   0.230  0.00  0.00    -0.300 OA
BRANCH   5   9
ATOM      6  C   LIG    1      -11.488   9.596   0.710  0.00  0.00    -0.070 A 
ATOM      7  C   LIG    1      -11.220   8.621   1.675  0.00  0.00    +0.110 A 
ATOM      8  C   LIG    1      -10.151   7.768   1.511  0.00  0.00    -0.010 A 
ATOM      9  C   LIG    1       -9.340   7.876   0.388  0.00  0.00    +0.160 A 
ATOM     10  C   LIG    1       -9.600   8.847  -0.572  0.00  0.00    -0.070 A 
ATOM     11  C   LIG    1      -10.670   9.700  -0.418  0.00  0.00    +0.110 A 
BRANCH   6  13
ATOM     12  N   LIG    1      -13.480  11.189   1.009  0.00  0.00    -0.420 NA
ATOM     13  C   LIG    1      -12.599  10.484   0.876  0.00  0.00    +0.250 C 
ENDBRANCH   6  13
ENDBRANCH   5   9
ENDBRANCH   4   5
ENDBRANCH   1   4
BRANCH   1  14
ATOM     14  C   LIG    1       -5.443   6.425  -2.145  0.00  0.00    +0.170 C 
BRANCH  14  15
ATOM     15  N   LIG    1       -4.351   5.442  -2.141  0.00  0.00    -0.520 NA
ATOM     16  C   LIG    1       -3.576   5.510  -3.389  0.00  0.00    +0.150 C 
ATOM     17  C   LIG    1       -2.489   4.433  -3.368  0.00  0.00    +0.230 C 
ATOM     18  O   LIG    1       -1.668   4.613  -2.211  0.00  0.00    -0.380 OA
ATOM     19  C   LIG    1       -2.390   4.553  -0.978  0.00  0.00    +0.170 C 
ATOM     20  C   LIG    1       -3.476   5.631  -0.975  0.00  0.00    +0.160 C 
BRANCH  19  21
ATOM     21  C   LIG    1       -1.429   4.792   0.189  0.00  0.00    +0.340 C 
BRANCH  21  22
ATOM     22  N   LIG    1       -0.461   3.694   0.257  0.00  0.00    -0.370 N 
ATOM     23  C   LIG    1        0.883   3.818   0.246  0.00  0.00    +0.230 A 
ATOM     24  C   LIG    1        1.413   2.576   0.325  0.00  0.00    -0.130 A 
ATOM     25  C   LIG    1        0.356   1.661   0.386  0.00  0.00    +0.230 A 
ATOM     26  N   LIG    1       -0.767   2.330   0.340  0.00  0.00    -0.290 NA
ENDBRANCH  21  22
ENDBRANCH  19  21
ENDBRANCH  14  15
ENDBRANCH   1  14
TORSDOF 9
