REMARK  Name = ZINCpe00000MAzJR.0
REMARK                            x       y       z     vdW  Elec       q    Type
REMARK                         _______ _______ _______ _____ _____    ______ ____
ROOT
ATOM      1  C   LIG    1        3.269  -4.647  -1.505  0.00  0.00    +0.140 C 
ATOM      2  C   LIG    1        4.649  -3.988  -1.430  0.00  0.00    +0.050 C 
ATOM      3  C   LIG    1        4.488  -2.467  -1.396  0.00  0.00    +0.030 C 
ATOM      4  C   LIG    1        3.694  -2.069  -0.148  0.00  0.00    +0.260 C 
ATOM      5  N   LIG    1        2.425  -2.810  -0.139  0.00  0.00    -0.600 N 
ATOM      6  C   LIG    1        1.251  -2.159  -0.022  0.00  0.00    +0.560 C 
ATOM      7  O   LIG    1        0.213  -2.787   0.054  0.00  0.00    -0.520 OA
ATOM      8  C   LIG    1        2.461  -4.274  -0.252  0.00  0.00    +0.270 C 
ENDROOT
BRANCH   6   9
ATOM      9  C   LIG    1        1.225  -0.681   0.013  0.00  0.00    -0.080 A 
ATOM     10  C   LIG    1        2.054   0.013   0.895  0.00  0.00    +0.000 A 
ATOM     11  C   LIG    1        2.027   1.393   0.925  0.00  0.00    +0.050 A 
ATOM     12  C   LIG    1        1.181   2.090   0.083  0.00  0.00    -0.060 A 
ATOM     13  C   LIG    1        0.352   1.408  -0.798  0.00  0.00    +0.130 A 
ATOM     14  C   LIG    1        0.371   0.024  -0.836  0.00  0.00    +0.040 A 
BRANCH  13  15
ATOM     15  O   LIG    1       -0.473   2.100  -1.627  0.00  0.00    -0.300 OA
BRANCH  15  16
ATOM     16  C   LIG    1       -0.441   3.525  -1.534  0.00  0.00    +0.210 C 
BRANCH  16  17
ATOM     17  C   LIG    1       -1.429   4.124  -2.536  0.00  0.00    +0.190 C 
BRANCH  17  18
ATOM     18  O   LIG    1       -2.760   3.752  -2.173  0.00  0.00    -0.380 OA
ATOM     19  C   LIG    1       -3.767   4.263  -3.049  0.00  0.00    +0.200 C 
ENDBRANCH  17  18
ENDBRANCH  16  17
ENDBRANCH  15  16
ENDBRANCH  13  15
ENDBRANCH   6   9
BRANCH   1  20
ATOM     20  O   LIG    1        2.584  -4.188  -2.672  0.00  0.00    -0.550 OA
ATOM     21  H   LIG    1        1.701  -4.565  -2.784  0.00  0.00    +0.390 HD
ENDBRANCH   1  20
BRANCH   1  22
ATOM     22  C   LIG    1        3.432  -6.167  -1.572  0.00  0.00    +0.050 C 
BRANCH  22  26
ATOM     23  C   LIG    1        0.649  -8.787  -1.785  0.00  0.00    +0.280 C 
ATOM     24  N   LIG    1        1.970  -8.157  -1.713  0.00  0.00    -0.730 N 
ATOM     25  H   LIG    1        2.769  -8.706  -1.714  0.00  0.00    +0.400 HD
ATOM     26  C   LIG    1        2.073  -6.815  -1.646  0.00  0.00    +0.510 C 
ATOM     27  O   LIG    1        1.073  -6.128  -1.645  0.00  0.00    -0.530 OA
ENDBRANCH  22  26
ENDBRANCH   1  22
TORSDOF 8
