REMARK  Name = ZINCpk000000mQtN.0
REMARK                            x       y       z     vdW  Elec       q    Type
REMARK                         _______ _______ _______ _____ _____    ______ ____
ROOT
ATOM      1  C   LIG    1        3.744   1.502  -0.695  0.00  0.00    +0.310 C 
ENDROOT
BRANCH   1   4
ATOM      2  C   LIG    1        3.961   1.873  -3.498  0.00  0.00    +0.090 C 
ATOM      3  C   LIG    1        4.665   0.729  -2.815  0.00  0.00    +0.520 C 
ATOM      4  N   LIG    1        4.592   0.597  -1.476  0.00  0.00    -0.600 N 
ATOM      5  O   LIG    1        5.297  -0.072  -3.470  0.00  0.00    -0.530 OA
BRANCH   4   6
ATOM      6  C   LIG    1        5.359  -0.453  -0.801  0.00  0.00    +0.290 C 
BRANCH   6   7
ATOM      7  C   LIG    1        4.567  -1.762  -0.828  0.00  0.00    +0.070 C 
BRANCH   7   8
ATOM      8  C   LIG    1        5.357  -2.841  -0.133  0.00  0.00    -0.080 A 
ATOM      9  C   LIG    1        6.231  -3.631  -0.856  0.00  0.00    +0.010 A 
ATOM     10  C   LIG    1        6.960  -4.618  -0.218  0.00  0.00    +0.000 A 
ATOM     11  C   LIG    1        6.805  -4.822   1.141  0.00  0.00    +0.000 A 
ATOM     12  C   LIG    1        5.926  -4.035   1.862  0.00  0.00    +0.000 A 
ATOM     13  C   LIG    1        5.202  -3.045   1.225  0.00  0.00    +0.000 A 
ENDBRANCH   7   8
ENDBRANCH   6   7
ENDBRANCH   4   6
ENDBRANCH   1   4
BRANCH   1  14
ATOM     14  C   LIG    1        2.326   0.991  -0.700  0.00  0.00    +0.490 C 
ATOM     15  N   LIG    1        1.364   1.668  -0.042  0.00  0.00    -0.720 N 
ATOM     16  H   LIG    1        1.585   2.483   0.436  0.00  0.00    +0.400 HD
ATOM     17  O   LIG    1        2.050  -0.028  -1.297  0.00  0.00    -0.520 OA
BRANCH  15  18
ATOM     18  C   LIG    1       -0.014   1.172  -0.047  0.00  0.00    +0.250 C 
ATOM     19  C   LIG    1       -0.765   1.709  -1.283  0.00  0.00    +0.030 C 
ATOM     20  C   LIG    1       -2.201   1.986  -0.766  0.00  0.00    +0.030 C 
ATOM     21  C   LIG    1       -1.951   2.522   0.659  0.00  0.00    +0.250 C 
ATOM     22  O   LIG    1       -1.617   3.912   0.614  0.00  0.00    -0.360 OA
ATOM     23  C   LIG    1       -2.860   4.597   0.912  0.00  0.00    +0.200 C 
ATOM     24  C   LIG    1       -3.511   3.638   1.941  0.00  0.00    +0.200 C 
ATOM     25  O   LIG    1       -3.108   2.333   1.473  0.00  0.00    -0.370 OA
ATOM     26  C   LIG    1       -0.768   1.697   1.189  0.00  0.00    +0.060 C 
ENDBRANCH  15  18
ENDBRANCH   1  14
TORSDOF 6
