REMARK  Name = ZINCpk00000kVLr2.0
REMARK                            x       y       z     vdW  Elec       q    Type
REMARK                         _______ _______ _______ _____ _____    ______ ____
ROOT
ATOM      1  C   LIG    1        2.933   4.095  -1.420  0.00  0.00    +0.510 C 
ATOM      2  N   LIG    1        4.080   4.755  -1.673  0.00  0.00    -0.730 N 
ATOM      3  H   LIG    1        4.595   5.130  -0.941  0.00  0.00    +0.400 HD
ATOM      4  O   LIG    1        2.288   3.627  -2.334  0.00  0.00    -0.510 OA
ENDROOT
BRANCH   2   5
ATOM      5  C   LIG    1        4.548   4.909  -3.052  0.00  0.00    +0.260 C 
ATOM      6  C   LIG    1        6.073   5.139  -3.070  0.00  0.00    +0.050 C 
ATOM      7  C   LIG    1        6.290   6.158  -4.216  0.00  0.00    +0.000 C 
ATOM      8  C   LIG    1        5.067   7.098  -4.074  0.00  0.00    -0.010 C 
ATOM      9  C   LIG    1        3.908   6.154  -3.690  0.00  0.00    +0.150 C 
BRANCH   9  10
ATOM     10  O   LIG    1        3.172   5.783  -4.858  0.00  0.00    -0.550 OA
ATOM     11  H   LIG    1        2.745   6.526  -5.306  0.00  0.00    +0.380 HD
ENDBRANCH   9  10
BRANCH   7  12
ATOM     12  C   LIG    1        7.595   6.932  -4.018  0.00  0.00    +0.330 C 
BRANCH  12  13
ATOM     13  N   LIG    1        7.767   7.888  -5.115  0.00  0.00    -0.370 N 
ATOM     14  C   LIG    1        7.956   9.218  -4.988  0.00  0.00    +0.220 A 
ATOM     15  C   LIG    1        8.073   9.739  -6.231  0.00  0.00    -0.120 A 
ATOM     16  C   LIG    1        7.943   8.693  -7.150  0.00  0.00    +0.220 A 
ATOM     17  N   LIG    1        7.759   7.582  -6.482  0.00  0.00    -0.290 NA
ENDBRANCH  12  13
ENDBRANCH   7  12
ENDBRANCH   2   5
BRANCH   1  18
ATOM     18  C   LIG    1        2.451   3.937  -0.001  0.00  0.00    +0.100 C 
BRANCH  18  24
ATOM     19  C   LIG    1        1.175   1.783   0.000  0.00  0.00    -0.080 A 
ATOM     20  C   LIG    1       -0.013   1.076   0.008  0.00  0.00    +0.030 A 
ATOM     21  C   LIG    1       -1.219   1.751   0.017  0.00  0.00    +0.010 A 
ATOM     22  C   LIG    1       -1.238   3.133   0.030  0.00  0.00    +0.020 A 
ATOM     23  C   LIG    1       -0.050   3.840   0.023  0.00  0.00    +0.020 A 
ATOM     24  C   LIG    1        1.156   3.166   0.008  0.00  0.00    -0.050 A 
BRANCH  19  25
ATOM     25  C   LIG    1        2.490   1.047  -0.016  0.00  0.00    +0.240 C 
BRANCH  25  27
ATOM     26  N   LIG    1        3.377   0.797   2.424  0.00  0.00    -0.430 NA
ATOM     27  C   LIG    1        2.990   0.906   1.361  0.00  0.00    +0.200 C 
ENDBRANCH  25  27
ENDBRANCH  19  25
ENDBRANCH  18  24
ENDBRANCH   1  18
TORSDOF 8
