REMARK  Name = ZINCqH0000000tsH.0
REMARK                            x       y       z     vdW  Elec       q    Type
REMARK                         _______ _______ _______ _____ _____    ______ ____
ROOT
ATOM      1  C   LIG    1       -0.018   1.382   0.004  0.00  0.00    +0.090 A 
ATOM      2  C   LIG    1        0.003   0.007  -0.183  0.00  0.00    +0.100 A 
ATOM      3  C   LIG    1        1.208  -0.669  -0.204  0.00  0.00    -0.040 A 
ATOM      4  C   LIG    1        2.397   0.028  -0.037  0.00  0.00    +0.260 A 
ATOM      5  C   LIG    1        2.376   1.404   0.151  0.00  0.00    -0.240 A 
ATOM      6  C   LIG    1        1.172   2.079   0.172  0.00  0.00    +0.090 A 
ENDROOT
BRANCH   1   9
ATOM      7  C   LIG    1       -3.679   2.161   0.422  0.00  0.00    +0.110 C 
ATOM      8  C   LIG    1       -2.342   1.471   0.514  0.00  0.00    +0.510 C 
ATOM      9  N   LIG    1       -1.240   2.068   0.019  0.00  0.00    -0.670 N 
ATOM     10  H   LIG    1       -1.292   2.973  -0.327  0.00  0.00    +0.410 HD
ATOM     11  O   LIG    1       -2.258   0.378   1.034  0.00  0.00    -0.530 OA
ENDBRANCH   1   9
BRANCH   5  12
ATOM     12  C   LIG    1        3.666   2.160   0.333  0.00  0.00    +0.510 C 
ATOM     13  F   LIG    1        4.472   1.986  -0.797  0.00  0.00    -0.180 F 
ATOM     14  F   LIG    1        4.336   1.675   1.462  0.00  0.00    -0.180 F 
ATOM     15  F   LIG    1        3.390   3.521   0.504  0.00  0.00    -0.180 F 
ENDBRANCH   5  12
BRANCH   4  16
ATOM     16  N   LIG    1        3.617  -0.656  -0.057  0.00  0.00    -0.730 N 
ATOM     17  H   LIG    1        4.448  -0.170   0.059  0.00  0.00    +0.410 HD
BRANCH  16  18
ATOM     18  C   LIG    1        3.640  -2.108  -0.256  0.00  0.00    +0.300 C 
BRANCH  18  19
ATOM     19  C   LIG    1        5.066  -2.595  -0.237  0.00  0.00    +0.510 C 
ATOM     20  N   LIG    1        5.332  -3.906  -0.401  0.00  0.00    -0.720 N 
ATOM     21  H   LIG    1        4.606  -4.536  -0.531  0.00  0.00    +0.400 HD
ATOM     22  O   LIG    1        5.974  -1.808  -0.074  0.00  0.00    -0.530 OA
BRANCH  20  23
ATOM     23  C   LIG    1        6.718  -4.380  -0.382  0.00  0.00    +0.240 C 
ATOM     24  C   LIG    1        7.327  -4.232  -1.779  0.00  0.00    +0.010 C 
ATOM     25  C   LIG    1        6.517  -5.061  -2.778  0.00  0.00    +0.000 C 
ATOM     26  C   LIG    1        6.548  -6.533  -2.362  0.00  0.00    +0.000 C 
ATOM     27  C   LIG    1        5.940  -6.681  -0.966  0.00  0.00    +0.010 C 
ATOM     28  C   LIG    1        6.749  -5.852   0.034  0.00  0.00    -0.010 C 
ATOM     29  C   LIG    1        6.141  -6.000   1.430  0.00  0.00    +0.020 C 
ENDBRANCH  20  23
ENDBRANCH  18  19
ENDBRANCH  16  18
ENDBRANCH   4  16
TORSDOF 6
