REMARK  Name = ZINCpk00000zEbDs.0
REMARK                            x       y       z     vdW  Elec       q    Type
REMARK                         _______ _______ _______ _____ _____    ______ ____
ROOT
ATOM      1  N   LIG    1        0.319   3.337  -5.273  0.00  0.00    -0.650 N 
ATOM      2  H   LIG    1        1.279   3.237  -5.374  0.00  0.00    +0.410 HD
ATOM      3  C   LIG    1       -0.269   3.045  -4.096  0.00  0.00    +0.510 C 
ATOM      4  O   LIG    1       -1.469   3.171  -3.969  0.00  0.00    -0.490 OA
ENDROOT
BRANCH   1   9
ATOM      5  N   LIG    1        0.017   4.232  -7.542  0.00  0.00    -0.340 N 
ATOM      6  N   LIG    1       -1.088   4.578  -8.331  0.00  0.00    -0.280 NA
ATOM      7  C   LIG    1       -2.176   4.358  -7.638  0.00  0.00    +0.250 A 
ATOM      8  C   LIG    1       -1.810   3.859  -6.385  0.00  0.00    -0.100 A 
ATOM      9  C   LIG    1       -0.452   3.785  -6.345  0.00  0.00    +0.310 A 
BRANCH   5  16
ATOM     10  C   LIG    1        0.785   3.172 -10.069  0.00  0.00    +0.110 C 
ATOM     11  C   LIG    1        1.780   3.823  -9.143  0.00  0.00    -0.070 A 
ATOM     12  C   LIG    1        3.107   3.923  -9.514  0.00  0.00    +0.030 A 
ATOM     13  C   LIG    1        4.021   4.515  -8.662  0.00  0.00    +0.020 A 
ATOM     14  C   LIG    1        3.610   5.014  -7.441  0.00  0.00    +0.030 A 
ATOM     15  C   LIG    1        2.284   4.922  -7.066  0.00  0.00    +0.000 A 
ATOM     16  C   LIG    1        1.363   4.328  -7.919  0.00  0.00    +0.140 A 
ENDBRANCH   5  16
ENDBRANCH   1   9
BRANCH   3  17
ATOM     17  C   LIG    1        0.564   2.562  -2.937  0.00  0.00    +0.340 C 
BRANCH  17  18
ATOM     18  N   LIG    1       -0.302   2.315  -1.782  0.00  0.00    -0.590 N 
ATOM     19  C   LIG    1       -0.902   0.985  -1.588  0.00  0.00    +0.280 C 
ATOM     20  C   LIG    1       -0.207   0.301  -0.409  0.00  0.00    +0.010 C 
ATOM     21  C   LIG    1       -0.864   0.688   0.903  0.00  0.00    +0.030 C 
ATOM     22  C   LIG    1       -0.683   2.149   1.271  0.00  0.00    +0.050 C 
ATOM     23  C   LIG    1       -1.433   3.052   0.289  0.00  0.00    +0.180 C 
ATOM     24  C   LIG    1       -0.543   3.298  -0.912  0.00  0.00    +0.490 C 
ATOM     25  O   LIG    1       -0.048   4.391  -1.084  0.00  0.00    -0.530 OA
BRANCH  23  26
ATOM     26  O   LIG    1       -1.742   4.296   0.920  0.00  0.00    -0.540 OA
ATOM     27  H   LIG    1       -2.205   4.923   0.347  0.00  0.00    +0.390 HD
ENDBRANCH  23  26
ENDBRANCH  17  18
ENDBRANCH   3  17
TORSDOF 5
