REMARK  Name = ZINCvU00000009Gw.0
REMARK                            x       y       z     vdW  Elec       q    Type
REMARK                         _______ _______ _______ _____ _____    ______ ____
ROOT
ATOM      1  N   LIG    1       -0.191   1.197  -4.124  0.00  0.00    -0.440 N 
ATOM      2  C   LIG    1        0.064   1.030  -2.789  0.00  0.00    +0.210 A 
ATOM      3  N   LIG    1        1.140   0.290  -2.673  0.00  0.00    -0.300 NA
ATOM      4  N   LIG    1        1.593  -0.023  -3.961  0.00  0.00    -0.330 NA
ATOM      5  C   LIG    1        0.780   0.535  -4.824  0.00  0.00    +0.420 A 
ENDROOT
BRANCH   1  11
ATOM      6  C   LIG    1       -2.464   1.288  -4.944  0.00  0.00    -0.060 A 
ATOM      7  C   LIG    1       -3.513   2.004  -5.487  0.00  0.00    +0.030 A 
ATOM      8  C   LIG    1       -3.362   3.350  -5.763  0.00  0.00    +0.040 A 
ATOM      9  C   LIG    1       -2.162   3.984  -5.498  0.00  0.00    +0.030 A 
ATOM     10  C   LIG    1       -1.111   3.274  -4.950  0.00  0.00    +0.050 A 
ATOM     11  C   LIG    1       -1.258   1.921  -4.676  0.00  0.00    +0.100 A 
BRANCH   6  13
ATOM     12  C   LIG    1       -3.029  -0.358  -3.177  0.00  0.00    +0.030 C 
ATOM     13  C   LIG    1       -2.628  -0.180  -4.643  0.00  0.00    +0.050 C 
ENDBRANCH   6  13
ENDBRANCH   1  11
BRANCH   5  14
ATOM     14  N   LIG    1        0.884   0.462  -6.208  0.00  0.00    -0.450 N 
ATOM     15  C   LIG    1       -0.348  -0.079  -6.800  0.00  0.00    +0.170 C 
ATOM     16  C   LIG    1       -0.214  -0.086  -8.325  0.00  0.00    +0.250 C 
ATOM     17  O   LIG    1        0.942  -0.843  -8.694  0.00  0.00    -0.380 OA
ATOM     18  C   LIG    1        2.159  -0.344  -8.135  0.00  0.00    +0.230 C 
ATOM     19  C   LIG    1        2.050  -0.339  -6.608  0.00  0.00    +0.200 C 
ENDBRANCH   5  14
BRANCH   2  20
ATOM     20  S   LIG    1       -0.890   1.687  -1.462  0.00  0.00    +0.030 S 
BRANCH  20  21
ATOM     21  C   LIG    1       -0.013   1.086   0.008  0.00  0.00    +0.210 C 
BRANCH  21  22
ATOM     22  C   LIG    1       -0.718   1.572   1.248  0.00  0.00    +0.080 A 
ATOM     23  C   LIG    1       -0.405   2.732   1.833  0.00  0.00    -0.040 A 
ATOM     24  S   LIG    1       -1.448   2.940   3.239  0.00  0.00    +0.140 S 
ATOM     25  C   LIG    1       -2.217   1.393   2.892  0.00  0.00    +0.150 A 
ATOM     26  N   LIG    1       -1.675   0.879   1.823  0.00  0.00    -0.450 NA
BRANCH  25  27
ATOM     27  C   LIG    1       -3.298   0.781   3.681  0.00  0.00    -0.140 A 
ATOM     28  C   LIG    1       -3.853   1.315   4.791  0.00  0.00    +0.040 A 
ATOM     29  C   LIG    1       -4.854   0.555   5.356  0.00  0.00    +0.010 A 
ATOM     30  C   LIG    1       -5.116  -0.596   4.728  0.00  0.00    -0.040 A 
ATOM     31  S   LIG    1       -4.062  -0.764   3.330  0.00  0.00    +0.190 S 
ENDBRANCH  25  27
ENDBRANCH  21  22
ENDBRANCH  20  21
ENDBRANCH   2  20
TORSDOF 7
