REMARK  Name = ZINCpe000000YlF4.0
REMARK                            x       y       z     vdW  Elec       q    Type
REMARK                         _______ _______ _______ _____ _____    ______ ____
ROOT
ATOM      1  C   LIG    1       -2.172   8.144  -3.150  0.00  0.00    -0.030 C 
ATOM      2  C   LIG    1       -2.835   9.003  -2.071  0.00  0.00    +0.020 C 
ATOM      3  C   LIG    1       -2.397   8.515  -0.688  0.00  0.00    +0.010 C 
ATOM      4  C   LIG    1       -2.849   7.064  -0.496  0.00  0.00    +0.270 C 
ATOM      5  N   LIG    1       -2.335   6.257  -1.611  0.00  0.00    -0.610 N 
ATOM      6  C   LIG    1       -1.614   5.143  -1.377  0.00  0.00    +0.520 C 
ATOM      7  O   LIG    1       -1.196   4.486  -2.306  0.00  0.00    -0.520 OA
ATOM      8  C   LIG    1       -2.617   6.692  -2.986  0.00  0.00    +0.290 C 
ENDROOT
BRANCH   1   9
ATOM      9  C   LIG    1       -2.584   8.653  -4.533  0.00  0.00    +0.150 C 
BRANCH   9  15
ATOM     10  C   LIG    1        0.157   9.409  -5.764  0.00  0.00    +0.330 C 
ATOM     11  N   LIG    1       -0.642   8.232  -6.119  0.00  0.00    -0.460 N 
ATOM     12  C   LIG    1       -0.314   7.276  -7.042  0.00  0.00    +0.110 A 
ATOM     13  C   LIG    1       -1.323   6.385  -7.055  0.00  0.00    +0.150 A 
ATOM     14  N   LIG    1       -2.240   6.783  -6.161  0.00  0.00    -0.480 NA
ATOM     15  C   LIG    1       -1.837   7.887  -5.593  0.00  0.00    +0.200 A 
ENDBRANCH   9  15
ENDBRANCH   1   9
BRANCH   6  16
ATOM     16  C   LIG    1       -1.329   4.714   0.039  0.00  0.00    +0.200 C 
BRANCH  16  17
ATOM     17  C   LIG    1       -0.511   3.448   0.025  0.00  0.00    +0.300 A 
ATOM     18  N   LIG    1        0.799   3.394   0.012  0.00  0.00    -0.320 NA
ATOM     19  N   LIG    1        1.155   2.039   0.002  0.00  0.00    -0.320 N 
ATOM     20  C   LIG    1        2.348   1.387  -0.013  0.00  0.00    +0.350 A 
ATOM     21  C   LIG    1        2.356   0.029  -0.020  0.00  0.00    -0.040 A 
ATOM     22  C   LIG    1        1.139  -0.662  -0.012  0.00  0.00    +0.400 A 
ATOM     23  N   LIG    1        0.002  -0.004   0.002  0.00  0.00    -0.450 NA
ATOM     24  C   LIG    1       -0.016   1.334   0.009  0.00  0.00    +0.440 A 
ATOM     25  N   LIG    1       -1.007   2.218   0.018  0.00  0.00    -0.510 NA
ENDBRANCH  16  17
ENDBRANCH   6  16
TORSDOF 4
