REMARK  Name = ZINCvU00000004Pq.0
REMARK                            x       y       z     vdW  Elec       q    Type
REMARK                         _______ _______ _______ _____ _____    ______ ____
ROOT
ATOM      1  C   LIG    1        0.122   0.990  -2.724  0.00  0.00    +0.370 A 
ATOM      2  N   LIG    1        1.162   0.276  -2.370  0.00  0.00    -0.530 NA
ATOM      3  C   LIG    1        1.980  -0.287  -3.290  0.00  0.00    +0.170 A 
ATOM      4  C   LIG    1        3.089  -1.050  -2.914  0.00  0.00    +0.030 A 
ATOM      5  C   LIG    1        3.895  -1.605  -3.881  0.00  0.00    +0.070 A 
ATOM      6  C   LIG    1        3.620  -1.419  -5.230  0.00  0.00    -0.010 A 
ATOM      7  C   LIG    1        2.533  -0.672  -5.627  0.00  0.00    +0.100 A 
ATOM      8  C   LIG    1        1.703  -0.100  -4.664  0.00  0.00    -0.200 A 
ATOM      9  C   LIG    1        0.530   0.706  -5.031  0.00  0.00    +0.560 A 
ATOM     10  O   LIG    1        0.240   0.903  -6.197  0.00  0.00    -0.500 OA
ATOM     11  N   LIG    1       -0.219   1.216  -4.027  0.00  0.00    -0.530 N 
ENDROOT
BRANCH   1  12
ATOM     12  S   LIG    1       -0.888   1.685  -1.458  0.00  0.00    +0.010 S 
BRANCH  12  13
ATOM     13  C   LIG    1       -0.013   1.086   0.008  0.00  0.00    +0.220 C 
BRANCH  13  16
ATOM     14  C   LIG    1        0.563   3.754   1.529  0.00  0.00    +0.200 C 
ATOM     15  C   LIG    1       -0.469   2.721   1.901  0.00  0.00    -0.010 A 
ATOM     16  C   LIG    1       -0.718   1.572   1.248  0.00  0.00    -0.010 A 
ATOM     17  N   LIG    1       -1.702   0.932   1.899  0.00  0.00    -0.450 NA
ATOM     18  C   LIG    1       -2.066   1.662   2.931  0.00  0.00    +0.270 A 
ATOM     19  O   LIG    1       -1.316   2.779   2.949  0.00  0.00    -0.180 OA
BRANCH  18  20
ATOM     20  C   LIG    1       -3.116   1.315   3.900  0.00  0.00    -0.150 A 
ATOM     21  C   LIG    1       -3.486   2.078   4.966  0.00  0.00    +0.060 A 
ATOM     22  C   LIG    1       -4.497   1.538   5.729  0.00  0.00    +0.010 A 
ATOM     23  C   LIG    1       -4.958   0.354   5.309  0.00  0.00    -0.040 A 
ATOM     24  S   LIG    1       -4.095  -0.145   3.861  0.00  0.00    +0.210 S 
ENDBRANCH  18  20
ENDBRANCH  13  16
ENDBRANCH  12  13
ENDBRANCH   1  12
BRANCH  11  25
ATOM     25  C   LIG    1       -1.402   2.022  -4.339  0.00  0.00    +0.300 C 
BRANCH  25  26
ATOM     26  C   LIG    1       -1.000   3.494  -4.454  0.00  0.00    +0.030 C 
BRANCH  26  27
ATOM     27  C   LIG    1       -2.236   4.335  -4.780  0.00  0.00    +0.170 C 
BRANCH  27  28
ATOM     28  O   LIG    1       -1.861   5.710  -4.888  0.00  0.00    -0.380 OA
BRANCH  28  29
ATOM     29  C   LIG    1       -2.948   6.586  -5.192  0.00  0.00    +0.140 C 
ATOM     30  C   LIG    1       -3.085   6.721  -6.710  0.00  0.00    +0.010 C 
ATOM     31  C   LIG    1       -2.679   7.963  -4.580  0.00  0.00    +0.040 C 
ENDBRANCH  28  29
ENDBRANCH  27  28
ENDBRANCH  26  27
ENDBRANCH  25  26
ENDBRANCH  11  25
TORSDOF 9
