REMARK  Name = ZINCpe000000X6YD.0
REMARK                            x       y       z     vdW  Elec       q    Type
REMARK                         _______ _______ _______ _____ _____    ______ ____
ROOT
ATOM      1  C   LIG    1       -2.571  -2.730   0.012  0.00  0.00    +0.320 C 
ENDROOT
BRANCH   1  11
ATOM      2  C   LIG    1       -4.019  -6.873  -1.122  0.00  0.00    +0.060 C 
ATOM      3  C   LIG    1       -2.570  -6.382  -1.152  0.00  0.00    +0.230 C 
ATOM      4  O   LIG    1       -1.882  -6.861   0.006  0.00  0.00    -0.300 OA
ATOM      5  C   LIG    1       -2.187  -6.265   1.190  0.00  0.00    +0.080 A 
ATOM      6  C   LIG    1       -2.159  -6.985   2.371  0.00  0.00    +0.030 A 
ATOM      7  C   LIG    1       -2.475  -6.362   3.565  0.00  0.00    +0.030 A 
ATOM      8  C   LIG    1       -2.816  -5.022   3.583  0.00  0.00    +0.020 A 
ATOM      9  C   LIG    1       -2.844  -4.295   2.406  0.00  0.00    +0.000 A 
ATOM     10  C   LIG    1       -2.530  -4.913   1.208  0.00  0.00    +0.090 A 
ATOM     11  N   LIG    1       -2.551  -4.195   0.004  0.00  0.00    -0.550 N 
ATOM     12  C   LIG    1       -2.558  -4.875  -1.164  0.00  0.00    +0.490 C 
ATOM     13  O   LIG    1       -2.551  -4.274  -2.218  0.00  0.00    -0.500 OA
ENDBRANCH   1  11
BRANCH   1  14
ATOM     14  C   LIG    1       -1.135  -2.201   0.001  0.00  0.00    +0.040 C 
BRANCH  14  15
ATOM     15  C   LIG    1       -1.156  -0.694   0.009  0.00  0.00    +0.530 C 
ATOM     16  N   LIG    1        0.002  -0.004   0.002  0.00  0.00    -0.720 N 
ATOM     17  H   LIG    1        0.849  -0.478  -0.009  0.00  0.00    +0.400 HD
ATOM     18  O   LIG    1       -2.214  -0.102   0.023  0.00  0.00    -0.530 OA
BRANCH  16  19
ATOM     19  C   LIG    1       -0.018   1.461   0.010  0.00  0.00    +0.190 C 
ATOM     20  C   LIG    1       -0.796   1.940   1.237  0.00  0.00    +0.080 C 
ATOM     21  C   LIG    1        0.198   2.127   2.413  0.00  0.00    -0.300 C 
ATOM     22  S   LIG    1        1.617   2.925   1.557  0.00  0.00    +2.380 S 
ATOM     23  O   LIG    1        1.327   4.296   1.321  0.00  0.00    -0.920 OA
ATOM     24  O   LIG    1        2.830   2.553   2.197  0.00  0.00    -0.930 OA
ATOM     25  C   LIG    1       -0.731   1.954  -1.250  0.00  0.00    +0.060 C 
ATOM     26  C   LIG    1        1.428   1.979  -0.001  0.00  0.00    -0.300 C 
ENDBRANCH  16  19
ENDBRANCH  14  15
ENDBRANCH   1  14
TORSDOF 4
