REMARK  Name = ZINCrD0000075pYF.0
REMARK                            x       y       z     vdW  Elec       q    Type
REMARK                         _______ _______ _______ _____ _____    ______ ____
ROOT
ATOM      1  O   LIG    1        1.171   5.111  -1.206  0.00  0.00    -0.540 OA
ATOM      2  C   LIG    1        1.037   4.904  -2.394  0.00  0.00    +0.520 C 
ATOM      3  N   LIG    1        1.593   5.743  -3.290  0.00  0.00    -0.720 N 
ATOM      4  H   LIG    1        1.486   5.578  -4.240  0.00  0.00    +0.400 HD
ENDROOT
BRANCH   3   5
ATOM      5  C   LIG    1        2.357   6.905  -2.830  0.00  0.00    +0.310 C 
BRANCH   5   6
ATOM      6  C   LIG    1        2.980   7.615  -4.034  0.00  0.00    -0.060 C 
ATOM      7  C   LIG    1        3.492   9.030  -3.718  0.00  0.00    +0.040 C 
ATOM      8  C   LIG    1        2.083   9.534  -4.083  0.00  0.00    +0.010 C 
ATOM      9  C   LIG    1        1.947   8.278  -4.961  0.00  0.00    +0.030 C 
BRANCH   6  10
ATOM     10  C   LIG    1        3.983   6.759  -4.764  0.00  0.00    -0.070 A 
ATOM     11  C   LIG    1        3.721   6.334  -6.053  0.00  0.00    +0.000 A 
ATOM     12  C   LIG    1        4.643   5.552  -6.723  0.00  0.00    +0.000 A 
ATOM     13  C   LIG    1        5.823   5.187  -6.101  0.00  0.00    +0.000 A 
ATOM     14  C   LIG    1        6.082   5.608  -4.810  0.00  0.00    +0.000 A 
ATOM     15  C   LIG    1        5.162   6.393  -4.141  0.00  0.00    +0.010 A 
ENDBRANCH   6  10
ENDBRANCH   5   6
ENDBRANCH   3   5
BRANCH   2  16
ATOM     16  C   LIG    1        0.251   3.709  -2.867  0.00  0.00    +0.070 C 
BRANCH  16  17
ATOM     17  C   LIG    1       -0.267   2.928  -1.657  0.00  0.00    +0.220 C 
BRANCH  17  18
ATOM     18  C   LIG    1       -1.053   1.732  -2.130  0.00  0.00    +0.190 A 
ATOM     19  N   LIG    1       -0.579   0.535  -2.372  0.00  0.00    -0.470 NA
ATOM     20  C   LIG    1       -1.640  -0.202  -2.771  0.00  0.00    +0.220 A 
ATOM     21  N   LIG    1       -2.686   0.583  -2.747  0.00  0.00    -0.370 NA
ATOM     22  O   LIG    1       -2.365   1.694  -2.382  0.00  0.00    +0.090 OA
BRANCH  20  23
ATOM     23  C   LIG    1       -1.622  -1.633  -3.161  0.00  0.00    -0.080 A 
ATOM     24  C   LIG    1       -2.798  -2.277  -3.554  0.00  0.00    +0.100 A 
ATOM     25  C   LIG    1       -2.728  -3.614  -3.909  0.00  0.00    -0.020 A 
ATOM     26  C   LIG    1       -1.507  -4.263  -3.863  0.00  0.00    +0.280 A 
ATOM     27  N   LIG    1       -0.414  -3.628  -3.488  0.00  0.00    -0.480 NA
ATOM     28  C   LIG    1       -0.430  -2.356  -3.147  0.00  0.00    +0.320 A 
ENDBRANCH  20  23
ENDBRANCH  17  18
ENDBRANCH  16  17
ENDBRANCH   2  16
TORSDOF 7
