REMARK  Name = ZINCrH000004rvTA.0
REMARK                            x       y       z     vdW  Elec       q    Type
REMARK                         _______ _______ _______ _____ _____    ______ ____
ROOT
ATOM      1  C   LIG    1        2.468   1.326   0.079  0.00  0.00    +0.200 A 
ATOM      2  C   LIG    1        1.232   1.884   0.371  0.00  0.00    -0.010 A 
ATOM      3  C   LIG    1        0.137   1.068   0.582  0.00  0.00    +0.070 A 
ATOM      4  C   LIG    1        0.265  -0.308   0.505  0.00  0.00    +0.000 A 
ATOM      5  C   LIG    1        1.487  -0.879   0.216  0.00  0.00    +0.060 A 
ATOM      6  C   LIG    1        2.600  -0.067   0.001  0.00  0.00    -0.040 A 
ENDROOT
BRANCH   6   7
ATOM      7  C   LIG    1        3.913  -0.673  -0.309  0.00  0.00    +0.220 A 
ATOM      8  N   LIG    1        4.734  -0.316  -1.275  0.00  0.00    -0.290 NA
ATOM      9  N   LIG    1        5.787  -1.054  -1.246  0.00  0.00    -0.290 NA
ATOM     10  C   LIG    1        5.702  -1.913  -0.269  0.00  0.00    +0.190 A 
ATOM     11  C   LIG    1        6.724  -2.947   0.127  0.00  0.00    +0.150 C 
ATOM     12  C   LIG    1        6.019  -4.290   0.344  0.00  0.00    +0.030 C 
ATOM     13  C   LIG    1        5.540  -4.390   1.789  0.00  0.00    +0.020 C 
ATOM     14  C   LIG    1        5.134  -3.015   2.317  0.00  0.00    +0.030 C 
ATOM     15  C   LIG    1        3.973  -2.464   1.483  0.00  0.00    +0.290 C 
ATOM     16  N   LIG    1        4.510  -1.706   0.353  0.00  0.00    -0.460 N 
ENDBRANCH   6   7
BRANCH   1  17
ATOM     17  N   LIG    1        3.573   2.148  -0.134  0.00  0.00    -1.050 N 
ATOM     18  H   LIG    1        4.243   1.899  -0.790  0.00  0.00    +0.440 HD
BRANCH  17  19
ATOM     19  S   LIG    1        3.744   3.548   0.734  0.00  0.00    +2.690 S 
ATOM     20  O   LIG    1        2.533   4.273   0.568  0.00  0.00    -0.940 OA
ATOM     21  O   LIG    1        5.019   4.076   0.395  0.00  0.00    -0.940 OA
BRANCH  19  26
ATOM     22  C   LIG    1        4.027   2.016   6.563  0.00  0.00    +0.090 C 
ATOM     23  C   LIG    1        3.956   2.399   5.107  0.00  0.00    -0.020 A 
ATOM     24  C   LIG    1        5.114   2.479   4.356  0.00  0.00    -0.010 A 
ATOM     25  C   LIG    1        5.050   2.830   3.021  0.00  0.00    +0.130 A 
ATOM     26  C   LIG    1        3.827   3.100   2.436  0.00  0.00    -0.680 A 
ATOM     27  C   LIG    1        2.669   3.024   3.187  0.00  0.00    +0.130 A 
ATOM     28  C   LIG    1        2.733   2.669   4.522  0.00  0.00    -0.010 A 
ENDBRANCH  19  26
ENDBRANCH  17  19
ENDBRANCH   1  17
TORSDOF 4
