REMARK  Name = ZINCrD00000hQ5VO.0
REMARK                            x       y       z     vdW  Elec       q    Type
REMARK                         _______ _______ _______ _____ _____    ______ ____
ROOT
ATOM      1  O   LIG    1        3.685   3.362  -0.338  0.00  0.00    -0.530 OA
ATOM      2  C   LIG    1        2.731   4.062  -0.604  0.00  0.00    +0.520 C 
ATOM      3  N   LIG    1        2.919   5.333  -1.012  0.00  0.00    -0.620 N 
ATOM      4  C   LIG    1        1.777   6.198  -1.345  0.00  0.00    +0.250 C 
ATOM      5  C   LIG    1        2.025   6.825  -2.718  0.00  0.00    +0.220 C 
ATOM      6  O   LIG    1        3.314   7.442  -2.729  0.00  0.00    -0.360 OA
ATOM      7  C   LIG    1        4.400   6.533  -2.530  0.00  0.00    +0.210 C 
ATOM      8  C   LIG    1        4.274   5.893  -1.143  0.00  0.00    +0.280 C 
ENDROOT
BRANCH   7   9
ATOM      9  C   LIG    1        5.705   7.280  -2.622  0.00  0.00    +0.200 A 
ATOM     10  C   LIG    1        6.604   6.998  -3.639  0.00  0.00    -0.090 A 
ATOM     11  C   LIG    1        7.792   7.712  -3.690  0.00  0.00    +0.350 A 
ATOM     12  N   LIG    1        8.034   8.628  -2.768  0.00  0.00    -0.550 NA
ATOM     13  C   LIG    1        7.156   8.870  -1.806  0.00  0.00    +0.490 A 
ATOM     14  N   LIG    1        6.010   8.210  -1.731  0.00  0.00    -0.500 NA
BRANCH  13  15
ATOM     15  N   LIG    1        7.442   9.836  -0.857  0.00  0.00    -0.450 N 
ATOM     16  C   LIG    1        7.532   9.239   0.500  0.00  0.00    +0.200 C 
ATOM     17  C   LIG    1        8.345  10.289   1.297  0.00  0.00    +0.030 C 
ATOM     18  C   LIG    1        9.377  10.787   0.259  0.00  0.00    +0.020 C 
ATOM     19  C   LIG    1        8.760  10.456  -1.112  0.00  0.00    +0.220 C 
ENDBRANCH  13  15
ENDBRANCH   7   9
BRANCH   2  20
ATOM     20  C   LIG    1        1.334   3.510  -0.477  0.00  0.00    +0.040 C 
BRANCH  20  21
ATOM     21  C   LIG    1        1.400   2.058  -0.000  0.00  0.00    +0.010 C 
ATOM     22  C   LIG    1       -0.018   1.451   0.010  0.00  0.00    +0.010 C 
ATOM     23  C   LIG    1        0.002  -0.004   0.002  0.00  0.00    +0.000 C 
ATOM     24  C   LIG    1        0.693  -0.590   1.251  0.00  0.00    +0.010 C 
ATOM     25  C   LIG    1        2.182  -0.521   1.049  0.00  0.00    +0.000 C 
ATOM     26  C   LIG    1        2.802   0.752   1.656  0.00  0.00    +0.000 C 
ATOM     27  C   LIG    1        1.951   2.011   1.399  0.00  0.00    +0.000 C 
ENDBRANCH  20  21
ENDBRANCH   2  20
TORSDOF 4
