REMARK  Name = ZINCkj000005h6An.0
REMARK                            x       y       z     vdW  Elec       q    Type
REMARK                         _______ _______ _______ _____ _____    ______ ____
ROOT
ATOM      1  C   LIG    1       -0.074   5.619   0.032  0.00  0.00    +0.420 C 
ENDROOT
BRANCH   1   2
ATOM      2  C   LIG    1       -0.054   4.112   0.024  0.00  0.00    -0.110 A 
ATOM      3  C   LIG    1        1.153   3.438   0.009  0.00  0.00    +0.090 A 
ATOM      4  C   LIG    1        1.173   2.056   0.002  0.00  0.00    +0.000 A 
ATOM      5  C   LIG    1       -0.016   1.347   0.009  0.00  0.00    +0.120 A 
ATOM      6  C   LIG    1       -1.224   2.023   0.019  0.00  0.00    -0.010 A 
ATOM      7  F   LIG    1        0.002  -0.004   0.002  0.00  0.00    -0.130 F 
ATOM      8  C   LIG    1       -1.242   3.405   0.032  0.00  0.00    +0.040 A 
ENDBRANCH   1   2
BRANCH   1   9
ATOM      9  C   LIG    1       -0.341   6.125  -1.363  0.00  0.00    +0.190 A 
ATOM     10  N   LIG    1        0.349   5.819  -2.428  0.00  0.00    -0.460 NA
ATOM     11  C   LIG    1       -0.173   6.452  -3.489  0.00  0.00    +0.170 A 
ATOM     12  C   LIG    1       -1.226   7.176  -3.066  0.00  0.00    +0.130 A 
ATOM     13  N   LIG    1       -1.337   6.965  -1.718  0.00  0.00    -0.560 N 
ATOM     14  H   LIG    1       -2.004   7.349  -1.128  0.00  0.00    +0.410 HD
ENDBRANCH   1   9
BRANCH   1  16
ATOM     15  C   LIG    1       -1.041   7.309   1.496  0.00  0.00    +0.500 C 
ATOM     16  N   LIG    1       -1.131   6.088   0.932  0.00  0.00    -0.710 N 
ATOM     17  H   LIG    1       -1.894   5.521   1.121  0.00  0.00    +0.420 HD
ATOM     18  O   LIG    1       -0.087   8.018   1.260  0.00  0.00    -0.510 OA
BRANCH  15  19
ATOM     19  C   LIG    1       -2.128   7.792   2.422  0.00  0.00    +0.300 C 
BRANCH  19  21
ATOM     20  C   LIG    1       -1.807  10.078   1.772  0.00  0.00    +0.330 C 
ATOM     21  N   LIG    1       -1.799   9.140   2.902  0.00  0.00    -0.370 N 
ATOM     22  C   LIG    1       -2.795   9.563   3.896  0.00  0.00    +0.330 C 
ATOM     23  H   LIG    1       -0.883   9.132   3.326  0.00  0.00    +0.440 HD
ENDBRANCH  19  21
ENDBRANCH  15  19
ENDBRANCH   1  16
TORSDOF 5
