REMARK  Name = ZINC550000002nnX.0
REMARK                            x       y       z     vdW  Elec       q    Type
REMARK                         _______ _______ _______ _____ _____    ______ ____
ROOT
ATOM      1  C   LIG    1       -1.940   2.414   3.396  0.00  0.00    +0.440 C 
ENDROOT
BRANCH   1   2
ATOM      2  N   LIG    1       -1.960   3.883   3.404  0.00  0.00    -0.640 N 
ATOM      3  H   LIG    1       -1.014   4.232   3.397  0.00  0.00    +0.440 HD
ATOM      4  H   LIG    1       -2.432   4.208   4.234  0.00  0.00    +0.440 HD
ATOM      5  H   LIG    1       -2.448   4.217   2.587  0.00  0.00    +0.440 HD
ENDBRANCH   1   2
BRANCH   1   8
ATOM      6  C   LIG    1       -0.013   1.086   0.008  0.00  0.00    +0.220 C 
ATOM      7  C   LIG    1       -0.702   1.560   1.219  0.00  0.00    -0.030 C 
ATOM      8  C   LIG    1       -1.251   1.939   2.185  0.00  0.00    -0.320 C 
ENDBRANCH   1   8
TORSDOF 2
