REMARK  Name = ZINCkj000005kwVj.0
REMARK                            x       y       z     vdW  Elec       q    Type
REMARK                         _______ _______ _______ _____ _____    ______ ____
ROOT
ATOM      1  N   LIG    1        0.066  -2.365   3.302  0.00  0.00    -0.500 N 
ATOM      2  H   LIG    1       -0.759  -2.002   3.756  0.00  0.00    +0.430 HD
ATOM      3  H   LIG    1        0.888  -1.980   3.741  0.00  0.00    +0.430 HD
ENDROOT
BRANCH   1   4
ATOM      4  C   LIG    1        0.087  -3.829   3.422  0.00  0.00    +0.270 C 
ATOM      5  C   LIG    1        1.396  -4.369   2.845  0.00  0.00    +0.110 C 
BRANCH   4   8
ATOM      6  C   LIG    1       -1.714  -5.999   4.485  0.00  0.00    +0.130 C 
ATOM      7  C   LIG    1       -0.809  -5.173   5.362  0.00  0.00    -0.020 A 
ATOM      8  C   LIG    1       -0.018  -4.215   4.875  0.00  0.00    -0.290 A 
ATOM      9  S   LIG    1        0.889  -3.476   6.189  0.00  0.00    +0.110 S 
ATOM     10  C   LIG    1        0.114  -4.535   7.360  0.00  0.00    +0.030 A 
ATOM     11  C   LIG    1       -0.737  -5.349   6.733  0.00  0.00    +0.020 A 
ENDBRANCH   4   8
ENDBRANCH   1   4
BRANCH   1  12
ATOM     12  C   LIG    1        0.047  -1.991   1.882  0.00  0.00    +0.300 C 
BRANCH  12  13
ATOM     13  C   LIG    1        0.025  -0.466   1.756  0.00  0.00    -0.380 C 
BRANCH  13  14
ATOM     14  S   LIG    1        0.002  -0.004   0.002  0.00  0.00    +2.620 S 
ATOM     15  O   LIG    1        1.238  -0.334  -0.617  0.00  0.00    -0.920 OA
ATOM     16  O   LIG    1       -1.236  -0.368  -0.593  0.00  0.00    -0.920 OA
BRANCH  14  17
ATOM     17  N   LIG    1       -0.020   1.652   0.011  0.00  0.00    -0.990 NA
ATOM     18  C   LIG    1       -1.292   2.392   0.021  0.00  0.00    +0.270 C 
ATOM     19  C   LIG    1       -1.234   3.429   1.155  0.00  0.00    +0.210 C 
ATOM     20  O   LIG    1       -0.046   4.211   1.014  0.00  0.00    -0.370 OA
ATOM     21  C   LIG    1        1.166   3.461   1.132  0.00  0.00    +0.210 C 
ATOM     22  C   LIG    1        1.231   2.426   0.003  0.00  0.00    +0.270 C 
ENDBRANCH  14  17
ENDBRANCH  13  14
ENDBRANCH  12  13
ENDBRANCH   1  12
TORSDOF 6
