REMARK  Name = ZINCvU00000009ma.0
REMARK                            x       y       z     vdW  Elec       q    Type
REMARK                         _______ _______ _______ _____ _____    ______ ____
ROOT
ATOM      1  C   LIG    1       -0.825   1.630  -1.196  0.00  0.00    -0.010 C 
ATOM      2  C   LIG    1       -0.013   1.086   0.008  0.00  0.00    +0.050 C 
ATOM      3  C   LIG    1       -0.798   1.615   1.227  0.00  0.00    +0.220 C 
ATOM      4  N   LIG    1       -2.171   1.894   0.768  0.00  0.00    -0.620 N 
ATOM      5  C   LIG    1       -3.167   2.389   1.530  0.00  0.00    +0.530 C 
ATOM      6  O   LIG    1       -2.967   2.644   2.699  0.00  0.00    -0.530 OA
ATOM      7  C   LIG    1       -0.819   0.556   2.331  0.00  0.00    +0.040 C 
ATOM      8  C   LIG    1       -2.275   1.541  -0.659  0.00  0.00    +0.250 C 
ENDROOT
BRANCH   1   9
ATOM      9  C   LIG    1       -0.640   0.743  -2.429  0.00  0.00    +0.290 C 
BRANCH   9  10
ATOM     10  N   LIG    1       -1.322   1.350  -3.575  0.00  0.00    -0.710 N 
ATOM     11  H   LIG    1       -1.794   2.191  -3.469  0.00  0.00    +0.410 HD
BRANCH  10  16
ATOM     12  C   LIG    1       -1.885   0.671  -7.033  0.00  0.00    +0.390 A 
ATOM     13  N   LIG    1       -1.257  -0.472  -7.223  0.00  0.00    -0.550 NA
ATOM     14  C   LIG    1       -0.620  -1.074  -6.227  0.00  0.00    +0.260 A 
ATOM     15  C   LIG    1       -0.614  -0.485  -4.976  0.00  0.00    -0.130 A 
ATOM     16  C   LIG    1       -1.294   0.723  -4.810  0.00  0.00    +0.450 A 
ATOM     17 CL   LIG    1        0.203  -2.580  -6.493  0.00  0.00    -0.010 Cl
ATOM     18  N   LIG    1       -1.909   1.264  -5.857  0.00  0.00    -0.570 NA
BRANCH  12  20
ATOM     19  C   LIG    1       -1.587   1.615  -9.307  0.00  0.00    +0.050 C 
ATOM     20  C   LIG    1       -2.595   1.318  -8.195  0.00  0.00    +0.070 C 
ATOM     21  C   LIG    1       -3.674   0.371  -8.724  0.00  0.00    +0.050 C 
ENDBRANCH  12  20
ENDBRANCH  10  16
ENDBRANCH   9  10
ENDBRANCH   1   9
BRANCH   5  22
ATOM     22  C   LIG    1       -4.528   2.627   0.929  0.00  0.00    +0.040 C 
BRANCH  22  23
ATOM     23  C   LIG    1       -5.467   3.188   1.998  0.00  0.00    +0.020 C 
ATOM     24  C   LIG    1       -5.684   2.137   3.089  0.00  0.00    +0.010 C 
ATOM     25  C   LIG    1       -6.623   2.699   4.159  0.00  0.00    +0.000 C 
ATOM     26  C   LIG    1       -7.967   3.056   3.521  0.00  0.00    +0.000 C 
ATOM     27  C   LIG    1       -7.750   4.107   2.430  0.00  0.00    -0.010 C 
ATOM     28  C   LIG    1       -7.128   5.362   3.047  0.00  0.00    +0.010 C 
ATOM     29  C   LIG    1       -6.912   6.413   1.956  0.00  0.00    +0.000 C 
ATOM     30  C   LIG    1       -5.973   5.851   0.887  0.00  0.00    +0.000 C 
ATOM     31  C   LIG    1       -6.594   4.597   0.270  0.00  0.00    +0.000 C 
ATOM     32  C   LIG    1       -6.811   3.546   1.361  0.00  0.00    -0.010 C 
ENDBRANCH  22  23
ENDBRANCH   5  22
TORSDOF 6
