REMARK  Name = ZINCrH00000tj1aL.0
REMARK                            x       y       z     vdW  Elec       q    Type
REMARK                         _______ _______ _______ _____ _____    ______ ____
ROOT
ATOM      1  C   LIG    1       -3.762   3.393  -3.702  0.00  0.00    -0.160 A 
ATOM      2  C   LIG    1       -2.888   2.893  -2.756  0.00  0.00    +0.050 A 
ATOM      3  S   LIG    1       -1.521   2.127  -3.549  0.00  0.00    +0.160 S 
ATOM      4  C   LIG    1       -2.150   2.501  -5.143  0.00  0.00    -0.030 A 
ATOM      5  C   LIG    1       -3.312   3.159  -5.061  0.00  0.00    -0.010 A 
ENDROOT
BRANCH   2   6
ATOM      6  N   LIG    1       -3.061   2.977  -1.421  0.00  0.00    -0.460 NA
ATOM      7  C   LIG    1       -3.608   1.975  -0.764  0.00  0.00    +0.440 C 
ATOM      8  N   LIG    1       -4.106   0.882  -1.420  0.00  0.00    -1.030 N 
ATOM      9  H   LIG    1       -4.114   0.728  -2.378  0.00  0.00    +0.450 HD
ATOM     10  S   LIG    1       -4.697  -0.129  -0.229  0.00  0.00    +2.660 S 
ATOM     11  C   LIG    1       -4.320   0.828   1.213  0.00  0.00    -0.620 A 
ATOM     12  C   LIG    1       -4.509   0.649   2.550  0.00  0.00    +0.160 A 
ATOM     13  C   LIG    1       -4.088   1.621   3.446  0.00  0.00    +0.060 A 
ATOM     14  C   LIG    1       -3.480   2.770   2.972  0.00  0.00    +0.070 A 
ATOM     15  C   LIG    1       -3.288   2.961   1.623  0.00  0.00    +0.110 A 
ATOM     16  O   LIG    1       -3.871  -1.285  -0.202  0.00  0.00    -0.920 OA
ATOM     17  O   LIG    1       -6.111  -0.164  -0.360  0.00  0.00    -0.920 OA
ATOM     18  C   LIG    1       -3.708   1.987   0.700  0.00  0.00    -0.040 A 
ENDBRANCH   2   6
BRANCH   5  19
ATOM     19  C   LIG    1       -4.073   3.604  -6.252  0.00  0.00    -0.040 A 
ATOM     20  C   LIG    1       -5.431   3.308  -6.365  0.00  0.00    +0.020 A 
ATOM     21  C   LIG    1       -6.137   3.730  -7.474  0.00  0.00    +0.010 A 
ATOM     22  C   LIG    1       -5.496   4.434  -8.477  0.00  0.00    +0.020 A 
ATOM     23  C   LIG    1       -4.148   4.726  -8.374  0.00  0.00    +0.010 A 
ATOM     24  C   LIG    1       -3.434   4.314  -7.267  0.00  0.00    +0.030 A 
ENDBRANCH   5  19
BRANCH   1  25
ATOM     25  C   LIG    1       -4.967   4.066  -3.380  0.00  0.00    +0.540 C 
ATOM     26  O   LIG    1       -4.970   5.274  -3.233  0.00  0.00    -0.480 OA
BRANCH  25  28
ATOM     27  C   LIG    1       -7.290   4.109  -2.911  0.00  0.00    +0.260 C 
ATOM     28  O   LIG    1       -6.113   3.367  -3.236  0.00  0.00    -0.350 OA
ENDBRANCH  25  28
ENDBRANCH   1  25
TORSDOF 4
