REMARK  Name = ZINCpk000000n0VH.0
REMARK                            x       y       z     vdW  Elec       q    Type
REMARK                         _______ _______ _______ _____ _____    ______ ____
ROOT
ATOM      1  N   LIG    1        1.143   1.898   0.001  0.00  0.00    -0.710 N 
ATOM      2  H   LIG    1        1.130   2.868   0.007  0.00  0.00    +0.400 HD
ATOM      3  C   LIG    1       -0.014   1.209   0.009  0.00  0.00    +0.520 C 
ATOM      4  O   LIG    1        0.002  -0.004   0.002  0.00  0.00    -0.510 OA
ENDROOT
BRANCH   1   5
ATOM      5  C   LIG    1        2.422   1.183  -0.015  0.00  0.00    +0.230 C 
BRANCH   5   7
ATOM      6  C   LIG    1        3.896  -0.198   1.639  0.00  0.00    +0.080 C 
ATOM      7  C   LIG    1        2.813   0.822   1.395  0.00  0.00    +0.350 C 
ATOM      8  O   LIG    1        2.260   1.350   2.329  0.00  0.00    -0.440 OA
ENDBRANCH   5   7
BRANCH   5   9
ATOM      9  C   LIG    1        3.499   2.078  -0.630  0.00  0.00    +0.110 C 
BRANCH   9  10
ATOM     10  C   LIG    1        3.170   2.339  -2.077  0.00  0.00    -0.090 A 
ATOM     11  C   LIG    1        3.649   1.491  -3.058  0.00  0.00    +0.010 A 
ATOM     12  C   LIG    1        3.343   1.727  -4.386  0.00  0.00    +0.000 A 
ATOM     13  C   LIG    1        2.567   2.817  -4.732  0.00  0.00    +0.000 A 
ATOM     14  C   LIG    1        2.092   3.668  -3.752  0.00  0.00    +0.000 A 
ATOM     15  C   LIG    1        2.394   3.429  -2.424  0.00  0.00    +0.010 A 
ENDBRANCH   9  10
ENDBRANCH   5   9
ENDBRANCH   1   5
BRANCH   3  16
ATOM     16  C   LIG    1       -1.330   1.944   0.019  0.00  0.00    +0.240 C 
BRANCH  16  17
ATOM     17  O   LIG    1       -2.403   1.001   0.019  0.00  0.00    -0.280 OA
BRANCH  17  18
ATOM     18  C   LIG    1       -3.664   1.503   0.028  0.00  0.00    +0.160 A 
ATOM     19  C   LIG    1       -3.863   2.878   0.042  0.00  0.00    -0.080 A 
ATOM     20  C   LIG    1       -5.141   3.391   0.045  0.00  0.00    +0.090 A 
ATOM     21  C   LIG    1       -6.238   2.527   0.046  0.00  0.00    -0.180 A 
ATOM     22  C   LIG    1       -6.034   1.144   0.037  0.00  0.00    +0.130 A 
ATOM     23  C   LIG    1       -4.753   0.639   0.028  0.00  0.00    -0.010 A 
BRANCH  21  24
ATOM     24  C   LIG    1       -7.610   3.072   0.056  0.00  0.00    +0.570 C 
ATOM     25  O   LIG    1       -8.564   2.319   0.058  0.00  0.00    -0.540 OA
ATOM     26  N   LIG    1       -7.804   4.406   0.064  0.00  0.00    -0.850 N 
ATOM     27  H   LIG    1       -8.706   4.764   0.071  0.00  0.00    +0.410 HD
ATOM     28  H   LIG    1       -7.043   5.007   0.064  0.00  0.00    +0.400 HD
ENDBRANCH  21  24
ENDBRANCH  17  18
ENDBRANCH  16  17
ENDBRANCH   3  16
TORSDOF 8
