REMARK  Name = ZINCqH0000001Whl.0
REMARK                            x       y       z     vdW  Elec       q    Type
REMARK                         _______ _______ _______ _____ _____    ______ ____
ROOT
ATOM      1  N   LIG    1        5.322   2.126  -4.785  0.00  0.00    -0.740 N 
ATOM      2  H   LIG    1        5.924   2.882  -4.703  0.00  0.00    +0.400 HD
ATOM      3  C   LIG    1        4.025   2.257  -4.441  0.00  0.00    +0.710 C 
ATOM      4  N   LIG    1        3.564   3.439  -3.985  0.00  0.00    -0.610 N 
ATOM      5  C   LIG    1        4.490   4.546  -3.877  0.00  0.00    +0.260 C 
ATOM      6  C   LIG    1        5.125   4.553  -2.463  0.00  0.00    +0.020 C 
ATOM      7  C   LIG    1        4.107   4.923  -1.462  0.00  0.00    +0.170 C 
ATOM      8  N   LIG    1        2.984   3.991  -1.369  0.00  0.00    -0.520 NA
ATOM      9  C   LIG    1        1.947   4.346  -2.315  0.00  0.00    +0.170 C 
ATOM     10  C   LIG    1        2.137   3.546  -3.618  0.00  0.00    +0.290 C 
ATOM     11  O   LIG    1        3.271   1.309  -4.543  0.00  0.00    -0.590 OA
ENDROOT
BRANCH   1  18
ATOM     12  C   LIG    1        6.742   1.051  -7.614  0.00  0.00    +0.030 C 
ATOM     13  C   LIG    1        7.096   1.049  -6.126  0.00  0.00    -0.080 C 
ATOM     14  C   LIG    1        8.031  -0.133  -5.804  0.00  0.00    +0.030 C 
ATOM     15  C   LIG    1        7.290  -1.016  -4.779  0.00  0.00    +0.020 C 
ATOM     16  C   LIG    1        6.286  -0.051  -4.102  0.00  0.00    +0.010 C 
ATOM     17  C   LIG    1        7.770   2.368  -5.745  0.00  0.00    +0.020 C 
ATOM     18  C   LIG    1        5.822   0.842  -5.280  0.00  0.00    +0.260 C 
ENDBRANCH   1  18
BRANCH   8  19
ATOM     19  C   LIG    1        2.453   3.940  -0.001  0.00  0.00    +0.240 C 
BRANCH  19  20
ATOM     20  C   LIG    1        1.158   3.169   0.007  0.00  0.00    -0.100 A 
ATOM     21  C   LIG    1       -0.048   3.843   0.022  0.00  0.00    +0.020 A 
ATOM     22  C   LIG    1       -1.238   3.135   0.029  0.00  0.00    +0.090 A 
ATOM     23  C   LIG    1       -1.219   1.750   0.017  0.00  0.00    +0.030 A 
ATOM     24  C   LIG    1       -0.013   1.076   0.008  0.00  0.00    +0.030 A 
ATOM     25  F   LIG    1       -2.417   3.794   0.043  0.00  0.00    -0.130 F 
ATOM     26  C   LIG    1        1.177   1.784   0.000  0.00  0.00    +0.120 A 
ATOM     27  F   LIG    1        2.356   1.125  -0.013  0.00  0.00    -0.120 F 
ENDBRANCH  19  20
ENDBRANCH   8  19
TORSDOF 3
