REMARK  Name = ZINCpe00001BeLn9.0
REMARK                            x       y       z     vdW  Elec       q    Type
REMARK                         _______ _______ _______ _____ _____    ______ ____
ROOT
ATOM      1  C   LIG    1       -0.941   2.980   0.914  0.00  0.00    +0.230 C 
ENDROOT
BRANCH   1   2
ATOM      2  C   LIG    1        0.540   3.238   0.812  0.00  0.00    -0.230 A 
ATOM      3  C   LIG    1        1.190   4.337   1.261  0.00  0.00    +0.250 A 
ATOM      4  N   LIG    1        2.501   4.183   0.979  0.00  0.00    -0.370 N 
ATOM      5  N   LIG    1        2.662   2.949   0.336  0.00  0.00    -0.290 NA
ATOM      6  C   LIG    1        1.487   2.381   0.242  0.00  0.00    +0.280 A 
BRANCH   4   7
ATOM      7  C   LIG    1        3.567   5.138   1.292  0.00  0.00    +0.330 C 
BRANCH   7   8
ATOM      8  C   LIG    1        4.657   4.437   2.105  0.00  0.00    +0.180 C 
BRANCH   8   9
ATOM      9  O   LIG    1        5.697   5.368   2.409  0.00  0.00    -0.570 OA
ATOM     10  H   LIG    1        6.424   4.992   2.925  0.00  0.00    +0.390 HD
ENDBRANCH   8   9
ENDBRANCH   7   8
ENDBRANCH   4   7
ENDBRANCH   1   2
BRANCH   1  13
ATOM     11  N   LIG    1       -1.972   4.410  -0.822  0.00  0.00    -0.730 N 
ATOM     12  H   LIG    1       -1.844   5.167  -0.230  0.00  0.00    +0.400 HD
ATOM     13  C   LIG    1       -1.579   3.179  -0.437  0.00  0.00    +0.520 C 
ATOM     14  O   LIG    1       -1.740   2.232  -1.177  0.00  0.00    -0.500 OA
BRANCH  11  15
ATOM     15  C   LIG    1       -2.593   4.603  -2.134  0.00  0.00    +0.300 C 
BRANCH  15  16
ATOM     16  C   LIG    1       -2.942   6.081  -2.321  0.00  0.00    +0.070 C 
BRANCH  16  18
ATOM     17  C   LIG    1       -4.046   8.103  -3.981  0.00  0.00    +0.150 C 
ATOM     18  S   LIG    1       -3.711   6.321  -3.946  0.00  0.00    -0.240 S 
ENDBRANCH  16  18
ENDBRANCH  15  16
ENDBRANCH  11  15
ENDBRANCH   1  13
BRANCH   1  19
ATOM     19  N   LIG    1       -1.168   1.601   1.365  0.00  0.00    -0.510 NA
ATOM     20  C   LIG    1       -0.512   1.354   2.656  0.00  0.00    +0.200 C 
BRANCH  19  21
ATOM     21  C   LIG    1       -2.604   1.300   1.437  0.00  0.00    +0.280 C 
BRANCH  21  22
ATOM     22  C   LIG    1       -2.806  -0.193   1.435  0.00  0.00    +0.030 A 
ATOM     23  N   LIG    1       -2.881  -0.968   0.391  0.00  0.00    -0.330 NA
ATOM     24  O   LIG    1       -3.042  -2.124   0.706  0.00  0.00    +0.100 OA
ATOM     25  C   LIG    1       -3.107  -2.268   2.038  0.00  0.00    -0.030 A 
ATOM     26  C   LIG    1       -3.307  -3.554   2.797  0.00  0.00    +0.180 C 
ATOM     27  C   LIG    1       -2.958  -1.029   2.565  0.00  0.00    -0.070 A 
ENDBRANCH  21  22
ENDBRANCH  19  21
ENDBRANCH   1  19
TORSDOF 11
