REMARK  Name = ZINCpk00000xI7p2.0
REMARK                            x       y       z     vdW  Elec       q    Type
REMARK                         _______ _______ _______ _____ _____    ______ ____
ROOT
ATOM      1  C   LIG    1        1.307   1.496   2.586  0.00  0.00    +0.470 C 
ATOM      2  O   LIG    1        1.765   2.275   1.771  0.00  0.00    -0.570 OA
ENDROOT
BRANCH   1   9
ATOM      3  N   LIG    1        4.164   1.242   4.769  0.00  0.00    -0.370 N 
ATOM      4  N   LIG    1        5.353   1.945   4.529  0.00  0.00    -0.480 N 
ATOM      5  H   LIG    1        6.151   1.917   5.079  0.00  0.00    +0.450 HD
ATOM      6  C   LIG    1        5.194   2.676   3.389  0.00  0.00    +0.350 A 
ATOM      7  C   LIG    1        3.954   2.457   2.898  0.00  0.00    -0.110 A 
ATOM      8  C   LIG    1        3.290   1.561   3.760  0.00  0.00    +0.480 A 
ATOM      9  N   LIG    1        2.046   1.103   3.617  0.00  0.00    -0.680 NA
BRANCH   3  11
ATOM     10  C   LIG    1        4.907  -0.817   5.858  0.00  0.00    +0.040 C 
ATOM     11  C   LIG    1        3.903   0.336   5.890  0.00  0.00    +0.330 C 
BRANCH  11  12
ATOM     12  C   LIG    1        4.046   1.101   7.208  0.00  0.00    -0.070 C 
ATOM     13  C   LIG    1        5.229   0.740   8.109  0.00  0.00    +0.010 C 
ATOM     14  C   LIG    1        3.811   0.323   8.505  0.00  0.00    +0.040 C 
ENDBRANCH  11  12
ENDBRANCH   3  11
ENDBRANCH   1   9
BRANCH   1  15
ATOM     15  C   LIG    1       -0.099   0.979   2.425  0.00  0.00    +0.250 C 
BRANCH  15  16
ATOM     16  N   LIG    1       -0.700   1.559   1.216  0.00  0.00    -0.500 NA
ATOM     17  C   LIG    1       -0.013   1.086   0.008  0.00  0.00    +0.180 C 
ATOM     18  C   LIG    1       -0.752   1.593  -1.232  0.00  0.00    +0.020 C 
ATOM     19  C   LIG    1       -0.788   3.123  -1.209  0.00  0.00    +0.000 C 
ATOM     20  C   LIG    1       -1.465   3.591   0.082  0.00  0.00    +0.030 C 
ATOM     21  C   LIG    1       -0.705   3.026   1.284  0.00  0.00    +0.160 C 
BRANCH  21  22
ATOM     22  C   LIG    1       -1.389   3.474   2.577  0.00  0.00    +0.320 C 
ATOM     23  O   LIG    1       -2.748   3.004   2.592  0.00  0.00    -0.360 OA
ATOM     24  C   LIG    1       -3.497   4.059   3.242  0.00  0.00    +0.190 C 
ATOM     25  C   LIG    1       -2.773   5.326   2.723  0.00  0.00    +0.200 C 
ATOM     26  O   LIG    1       -1.395   4.906   2.647  0.00  0.00    -0.380 OA
ENDBRANCH  21  22
ENDBRANCH  15  16
ENDBRANCH   1  15
TORSDOF 6
