REMARK  Name = ZINCpk00000KfKkS.0
REMARK                            x       y       z     vdW  Elec       q    Type
REMARK                         _______ _______ _______ _____ _____    ______ ____
ROOT
ATOM      1  C   LIG    1       -1.300   2.101   0.020  0.00  0.00    +0.580 C 
ATOM      2  N   LIG    1       -1.314   3.445   0.129  0.00  0.00    -0.610 N 
ATOM      3  C   LIG    1       -0.059   4.208   0.135  0.00  0.00    +0.270 C 
ATOM      4  C   LIG    1       -0.026   5.103   1.373  0.00  0.00    +0.030 C 
ATOM      5  C   LIG    1       -1.289   5.967   1.408  0.00  0.00    +0.030 C 
ATOM      6  C   LIG    1       -2.524   5.067   1.492  0.00  0.00    +0.230 C 
ATOM      7  C   LIG    1       -2.585   4.173   0.250  0.00  0.00    +0.290 C 
ATOM      8  O   LIG    1       -2.346   1.488  -0.074  0.00  0.00    -0.520 OA
ENDROOT
BRANCH   1  11
ATOM      9  N   LIG    1        1.858   0.536   1.188  0.00  0.00    -0.480 N 
ATOM     10  C   LIG    1        0.689   1.203   1.188  0.00  0.00    +0.330 A 
ATOM     11  C   LIG    1       -0.017   1.375   0.015  0.00  0.00    -0.240 A 
ATOM     12  C   LIG    1        0.498   0.845  -1.193  0.00  0.00    +0.140 A 
ATOM     13  C   LIG    1        1.681   0.176  -1.168  0.00  0.00    -0.070 A 
ATOM     14  C   LIG    1        2.366   0.024   0.053  0.00  0.00    +0.520 A 
ATOM     15  O   LIG    1        3.428  -0.576   0.081  0.00  0.00    -0.520 OA
BRANCH   9  16
ATOM     16  C   LIG    1        2.590   0.365   2.446  0.00  0.00    +0.320 C 
BRANCH  16  17
ATOM     17  C   LIG    1        2.140  -0.929   3.126  0.00  0.00    +0.160 C 
BRANCH  17  19
ATOM     18  C   LIG    1        2.137  -3.312   2.865  0.00  0.00    +0.200 C 
ATOM     19  O   LIG    1        2.513  -2.047   2.318  0.00  0.00    -0.370 OA
ENDBRANCH  17  19
ENDBRANCH  16  17
ENDBRANCH   9  16
ENDBRANCH   1  11
BRANCH   6  20
ATOM     20  N   LIG    1       -3.730   5.896   1.558  0.00  0.00    -0.450 N 
ATOM     21  C   LIG    1       -4.142   6.806   0.623  0.00  0.00    +0.110 A 
ATOM     22  C   LIG    1       -5.294   7.336   1.076  0.00  0.00    +0.150 A 
ATOM     23  N   LIG    1       -5.573   6.772   2.260  0.00  0.00    -0.490 NA
ATOM     24  C   LIG    1       -4.640   5.908   2.556  0.00  0.00    +0.210 A 
ATOM     25  C   LIG    1       -4.588   5.063   3.803  0.00  0.00    +0.170 C 
ENDBRANCH   6  20
TORSDOF 5
