REMARK  Name = ZINCpe000027pHtH.0
REMARK                            x       y       z     vdW  Elec       q    Type
REMARK                         _______ _______ _______ _____ _____    ______ ____
ROOT
ATOM      1  N   LIG    1       -4.946   5.806  -2.450  0.00  0.00    -0.580 N 
ATOM      2  C   LIG    1       -4.361   4.599  -2.312  0.00  0.00    +0.520 C 
ATOM      3  O   LIG    1       -4.846   3.625  -2.847  0.00  0.00    -0.490 OA
ATOM      4  C   LIG    1       -4.428   6.960  -1.711  0.00  0.00    +0.300 C 
ENDROOT
BRANCH   1   9
ATOM      5  C   LIG    1       -8.349   5.497  -3.833  0.00  0.00    -0.130 A 
ATOM      6  C   LIG    1       -8.227   6.264  -4.993  0.00  0.00    +0.050 A 
ATOM      7  C   LIG    1       -7.024   6.869  -5.296  0.00  0.00    +0.020 A 
ATOM      8  C   LIG    1       -5.939   6.722  -4.452  0.00  0.00    +0.040 A 
ATOM      9  C   LIG    1       -6.049   5.956  -3.298  0.00  0.00    +0.130 A 
ATOM     10  C   LIG    1       -7.253   5.345  -2.984  0.00  0.00    +0.100 A 
BRANCH   5  14
ATOM     11  C   LIG    1      -11.971   4.356  -4.002  0.00  0.00    +0.290 C 
ATOM     12  N   LIG    1      -10.695   4.998  -4.327  0.00  0.00    -0.730 N 
ATOM     13  H   LIG    1      -10.612   5.530  -5.133  0.00  0.00    +0.400 HD
ATOM     14  C   LIG    1       -9.637   4.849  -3.505  0.00  0.00    +0.560 C 
ATOM     15  O   LIG    1       -9.742   4.182  -2.495  0.00  0.00    -0.530 OA
ENDBRANCH   5  14
ENDBRANCH   1   9
BRANCH   2  16
ATOM     16  C   LIG    1       -3.103   4.461  -1.494  0.00  0.00    +0.230 C 
BRANCH  16  17
ATOM     17  O   LIG    1       -2.679   3.096  -1.499  0.00  0.00    -0.340 OA
BRANCH  17  18
ATOM     18  C   LIG    1       -1.488   2.855  -0.747  0.00  0.00    +0.160 C 
ATOM     19  C   LIG    1       -0.684   1.670  -1.344  0.00  0.00    +0.050 C 
ATOM     20  C   LIG    1        0.095   1.132  -0.126  0.00  0.00    +0.260 C 
ATOM     21  N   LIG    1       -0.623   1.565   1.082  0.00  0.00    -0.620 N 
ATOM     22  C   LIG    1       -0.249   1.313   2.351  0.00  0.00    +0.520 C 
ATOM     23  O   LIG    1       -0.921   1.722   3.275  0.00  0.00    -0.510 OA
ATOM     24  C   LIG    1       -1.823   2.321   0.668  0.00  0.00    +0.250 C 
BRANCH  22  25
ATOM     25  C   LIG    1        1.006   0.524   2.624  0.00  0.00    +0.180 C 
ATOM     26 CL   LIG    1        1.235   0.356   4.405  0.00  0.00    -0.130 Cl
ENDBRANCH  22  25
ENDBRANCH  17  18
ENDBRANCH  16  17
ENDBRANCH   2  16
TORSDOF 6
