REMARK  Name = ZINCrD000000fROf.0
REMARK                            x       y       z     vdW  Elec       q    Type
REMARK                         _______ _______ _______ _____ _____    ______ ____
ROOT
ATOM      1  C   LIG    1       -1.244   1.745   0.018  0.00  0.00    -0.240 A 
ATOM      2  C   LIG    1       -0.013   1.076   0.008  0.00  0.00    +0.380 A 
ATOM      3  N   LIG    1        1.123   1.734   0.001  0.00  0.00    -0.500 NA
ATOM      4  C   LIG    1        1.163   3.062   0.007  0.00  0.00    +0.340 A 
ATOM      5  C   LIG    1       -0.034   3.809   0.022  0.00  0.00    -0.240 A 
ATOM      6  C   LIG    1        0.357   5.215   0.026  0.00  0.00    +0.310 A 
ATOM      7  N   LIG    1        1.658   5.262   0.015  0.00  0.00    -0.230 NA
ATOM      8  N   LIG    1        2.187   3.968   0.003  0.00  0.00    -0.380 N 
ATOM      9  C   LIG    1       -1.260   3.141   0.030  0.00  0.00    +0.250 A 
ENDROOT
BRANCH   1  12
ATOM     10  N   LIG    1       -2.484  -0.364   0.012  0.00  0.00    -0.620 N 
ATOM     11  H   LIG    1       -1.635  -0.833   0.005  0.00  0.00    +0.420 HD
ATOM     12  C   LIG    1       -2.509   0.984   0.019  0.00  0.00    +0.580 C 
ATOM     13  O   LIG    1       -3.573   1.572   0.028  0.00  0.00    -0.500 OA
BRANCH  10  17
ATOM     14  C   LIG    1       -5.008  -2.865   0.010  0.00  0.00    -0.010 A 
ATOM     15  C   LIG    1       -5.994  -1.923   0.019  0.00  0.00    -0.070 A 
ATOM     16  S   LIG    1       -5.282  -0.369   0.025  0.00  0.00    +0.290 S 
ATOM     17  C   LIG    1       -3.673  -1.079   0.014  0.00  0.00    +0.250 A 
ATOM     18  N   LIG    1       -3.764  -2.370   0.002  0.00  0.00    -0.460 NA
BRANCH  14  20
ATOM     19  C   LIG    1       -4.149  -5.290  -0.007  0.00  0.00    +0.090 C 
ATOM     20  C   LIG    1       -5.287  -4.302   0.004  0.00  0.00    +0.430 C 
ATOM     21  O   LIG    1       -6.434  -4.697   0.007  0.00  0.00    -0.450 OA
ENDBRANCH  14  20
ENDBRANCH  10  17
ENDBRANCH   1  12
BRANCH   8  22
ATOM     22  C   LIG    1        3.613   3.635  -0.013  0.00  0.00    +0.400 C 
BRANCH  22  23
ATOM     23  C   LIG    1        4.089   3.529  -1.438  0.00  0.00    -0.120 A 
ATOM     24  C   LIG    1        4.040   2.313  -2.095  0.00  0.00    +0.040 A 
ATOM     25  C   LIG    1        4.472   2.217  -3.404  0.00  0.00    +0.010 A 
ATOM     26  C   LIG    1        4.963   3.334  -4.054  0.00  0.00    +0.010 A 
ATOM     27  C   LIG    1        5.016   4.549  -3.396  0.00  0.00    +0.010 A 
ATOM     28  C   LIG    1        4.580   4.646  -2.088  0.00  0.00    +0.040 A 
ENDBRANCH  22  23
ENDBRANCH   8  22
TORSDOF 5
