REMARK  Name = ZINCbu0000000GGu.0
REMARK                            x       y       z     vdW  Elec       q    Type
REMARK                         _______ _______ _______ _____ _____    ______ ____
ROOT
ATOM      1  C   LIG    1       -0.714   1.486   1.216  0.00  0.00    +0.280 C 
ATOM      2  C   LIG    1       -1.476   2.751   0.756  0.00  0.00    +0.080 C 
ATOM      3  C   LIG    1       -1.922   2.343  -0.673  0.00  0.00    +0.080 C 
ATOM      4  C   LIG    1       -0.735   1.498  -1.179  0.00  0.00    +0.260 C 
ATOM      5  N   LIG    1       -0.012   1.005   0.008  0.00  0.00    -0.520 N 
ATOM      6  H   LIG    1        0.933   1.358   0.000  0.00  0.00    +0.420 HD
ATOM      7  H   LIG    1        0.002  -0.004   0.002  0.00  0.00    +0.430 HD
ENDROOT
BRANCH   1  12
ATOM      8  C   LIG    1        3.424   3.141   4.396  0.00  0.00    +0.160 C 
ATOM      9  C   LIG    1        2.175   2.597   3.751  0.00  0.00    -0.120 A 
ATOM     10  C   LIG    1        1.173   1.999   4.398  0.00  0.00    +0.000 A 
ATOM     11  C   LIG    1        0.125   1.585   3.594  0.00  0.00    +0.100 A 
ATOM     12  C   LIG    1        0.279   1.839   2.294  0.00  0.00    -0.280 A 
ATOM     13  S   LIG    1        1.815   2.655   2.031  0.00  0.00    +0.100 S 
ENDBRANCH   1  12
TORSDOF 1
