REMARK  Name = ZINCrD000000Ag16.0
REMARK                            x       y       z     vdW  Elec       q    Type
REMARK                         _______ _______ _______ _____ _____    ______ ____
ROOT
ATOM      1  N   LIG    1       -3.218   4.241  -1.528  0.00  0.00    -1.120 NA
ATOM      2  H   LIG    1       -3.271   5.143  -1.881  0.00  0.00    +0.420 HD
ENDROOT
BRANCH   1   3
ATOM      3  S   LIG    1       -2.776   3.993   0.048  0.00  0.00    +2.700 S 
ATOM      4  O   LIG    1       -2.511   5.277   0.597  0.00  0.00    -0.950 OA
ATOM      5  O   LIG    1       -3.731   3.095   0.597  0.00  0.00    -0.940 OA
BRANCH   3   6
ATOM      6  C   LIG    1       -1.238   3.133   0.029  0.00  0.00    -0.680 A 
ATOM      7  C   LIG    1       -1.219   1.751   0.017  0.00  0.00    +0.160 A 
ATOM      8  C   LIG    1       -0.013   1.076   0.008  0.00  0.00    +0.010 A 
ATOM      9  C   LIG    1        1.175   1.783   0.000  0.00  0.00    +0.130 A 
ATOM     10  C   LIG    1        1.156   3.166   0.008  0.00  0.00    -0.200 A 
ATOM     11  C   LIG    1       -0.050   3.840   0.022  0.00  0.00    +0.180 A 
BRANCH  10  12
ATOM     12  C   LIG    1        2.451   3.937   0.000  0.00  0.00    +0.510 C 
ATOM     13  F   LIG    1        2.525   4.736   1.146  0.00  0.00    -0.170 F 
ATOM     14  F   LIG    1        2.503   4.748  -1.138  0.00  0.00    -0.170 F 
ATOM     15  F   LIG    1        3.526   3.042  -0.014  0.00  0.00    -0.170 F 
ENDBRANCH  10  12
ENDBRANCH   3   6
ENDBRANCH   1   3
BRANCH   1  16
ATOM     16  C   LIG    1       -3.529   3.098  -2.390  0.00  0.00    +0.300 C 
BRANCH  16  17
ATOM     17  C   LIG    1       -4.255   3.588  -3.645  0.00  0.00    +0.070 C 
BRANCH  17  19
ATOM     18  O   LIG    1       -4.255   1.292  -4.193  0.00  0.00    -0.530 OA
ATOM     19  C   LIG    1       -4.575   2.412  -4.531  0.00  0.00    +0.520 C 
ATOM     20  N   LIG    1       -5.218   2.604  -5.700  0.00  0.00    -0.730 N 
ATOM     21  H   LIG    1       -5.474   3.500  -5.971  0.00  0.00    +0.400 HD
BRANCH  20  22
ATOM     22  C   LIG    1       -5.529   1.462  -6.562  0.00  0.00    +0.320 C 
BRANCH  22  23
ATOM     23  C   LIG    1       -6.243   1.944  -7.798  0.00  0.00    -0.110 A 
ATOM     24  C   LIG    1       -7.623   2.027  -7.811  0.00  0.00    +0.050 A 
ATOM     25  C   LIG    1       -8.279   2.475  -8.942  0.00  0.00    +0.030 A 
ATOM     26  C   LIG    1       -7.554   2.829 -10.066  0.00  0.00    -0.030 A 
ATOM     27  C   LIG    1       -6.173   2.740 -10.055  0.00  0.00    +0.030 A 
ATOM     28 CL   LIG    1       -8.377   3.383 -11.491  0.00  0.00    -0.060 Cl
ATOM     29  C   LIG    1       -5.519   2.298  -8.921  0.00  0.00    +0.040 A 
ENDBRANCH  22  23
ENDBRANCH  20  22
ENDBRANCH  17  19
ENDBRANCH  16  17
ENDBRANCH   1  16
TORSDOF 8
