REMARK  Name = ZINCtV00000vvCvb.0
REMARK                            x       y       z     vdW  Elec       q    Type
REMARK                         _______ _______ _______ _____ _____    ______ ____
ROOT
ATOM      1  C   LIG    1       -5.010   4.325   0.125  0.00  0.00    +0.110 C 
ATOM      2  C   LIG    1       -3.682   3.613   0.082  0.00  0.00    -0.020 A 
ATOM      3  C   LIG    1       -2.519   4.325   0.289  0.00  0.00    +0.020 A 
ATOM      4  C   LIG    1       -1.294   3.672   0.249  0.00  0.00    +0.150 A 
ATOM      5  C   LIG    1       -1.257   2.291  -0.009  0.00  0.00    -0.150 A 
ATOM      6  C   LIG    1        0.040   1.608  -0.044  0.00  0.00    +0.010 A 
ATOM      7  C   LIG    1        1.159   2.348   0.166  0.00  0.00    -0.050 A 
ATOM      8  C   LIG    1        1.048   3.733   0.414  0.00  0.00    +0.510 A 
ATOM      9  O   LIG    1        2.060   4.385   0.600  0.00  0.00    -0.460 OA
ATOM     10  C   LIG    1       -2.448   1.586  -0.211  0.00  0.00    +0.090 A 
ATOM     11  O   LIG    1       -0.143   4.350   0.449  0.00  0.00    -0.270 OA
ATOM     12  C   LIG    1       -3.642   2.249  -0.167  0.00  0.00    -0.090 A 
ENDROOT
BRANCH  12  13
ATOM     13  C   LIG    1       -4.926   1.491  -0.390  0.00  0.00    +0.030 C 
ATOM     14  C   LIG    1       -5.137   0.497   0.753  0.00  0.00    +0.030 C 
ATOM     15  C   LIG    1       -4.847   0.734  -1.717  0.00  0.00    +0.030 C 
ENDBRANCH  12  13
BRANCH   6  16
ATOM     16  C   LIG    1        0.129   0.128  -0.311  0.00  0.00    +0.330 C 
BRANCH  16  17
ATOM     17  O   LIG    1        1.522  -0.284  -0.296  0.00  0.00    -0.350 OA
BRANCH  17  18
ATOM     18  C   LIG    1        1.777  -1.589  -0.519  0.00  0.00    +0.540 C 
ATOM     19  O   LIG    1        0.860  -2.362  -0.722  0.00  0.00    -0.470 OA
BRANCH  18  20
ATOM     20  C   LIG    1        3.160  -2.076  -0.519  0.00  0.00    -0.230 A 
ATOM     21  C   LIG    1        3.519  -3.349  -0.730  0.00  0.00    +0.050 A 
ATOM     22  C   LIG    1        4.901  -3.603  -0.687  0.00  0.00    -0.090 A 
ATOM     23  C   LIG    1        5.583  -4.829  -0.869  0.00  0.00    +0.080 A 
ATOM     24  C   LIG    1        6.940  -4.882  -0.791  0.00  0.00    +0.020 A 
ATOM     25  C   LIG    1        7.680  -3.735  -0.532  0.00  0.00    +0.070 A 
ATOM     26  C   LIG    1        7.046  -2.529  -0.350  0.00  0.00    +0.050 A 
ATOM     27  C   LIG    1        5.651  -2.450  -0.426  0.00  0.00    -0.120 A 
ATOM     28 CL   LIG    1        2.356  -4.601  -1.037  0.00  0.00    -0.000 Cl
ATOM     29  S   LIG    1        4.572  -1.071  -0.249  0.00  0.00    +0.210 S 
ENDBRANCH  18  20
ENDBRANCH  17  18
ENDBRANCH  16  17
ENDBRANCH   6  16
TORSDOF 5
