REMARK  Name = ZINCrD000002YuWp.0
REMARK                            x       y       z     vdW  Elec       q    Type
REMARK                         _______ _______ _______ _____ _____    ______ ____
ROOT
ATOM      1  C   LIG    1        3.654  11.109  -2.038  0.00  0.00    +0.600 C 
ATOM      2  N   LIG    1        3.508   9.917  -1.426  0.00  0.00    -0.620 N 
ATOM      3  C   LIG    1        4.176   9.639  -0.145  0.00  0.00    +0.300 C 
ATOM      4  C   LIG    1        4.938   8.316  -0.271  0.00  0.00    +0.170 C 
ATOM      5  N   LIG    1        4.019   7.267  -0.733  0.00  0.00    -0.520 NA
ATOM      6  C   LIG    1        3.499   7.567  -2.073  0.00  0.00    +0.190 C 
ATOM      7  C   LIG    1        2.678   8.860  -2.022  0.00  0.00    +0.290 C 
ATOM      8  O   LIG    1        4.548  11.862  -1.699  0.00  0.00    -0.530 OA
ENDROOT
BRANCH   1  12
ATOM      9  C   LIG    1        1.865  12.725  -4.839  0.00  0.00    -0.120 A 
ATOM     10  C   LIG    1        0.934  11.764  -4.800  0.00  0.00    -0.210 A 
ATOM     11  S   LIG    1        1.284  10.625  -3.580  0.00  0.00    +0.220 S 
ATOM     12  C   LIG    1        2.735  11.499  -3.111  0.00  0.00    -0.280 A 
ATOM     13  C   LIG    1       -0.260  11.696  -5.716  0.00  0.00    +0.140 C 
ATOM     14  C   LIG    1        2.873  12.598  -3.912  0.00  0.00    +0.110 A 
BRANCH   9  16
ATOM     15  C   LIG    1        0.926  14.978  -5.273  0.00  0.00    +0.030 C 
ATOM     16  C   LIG    1        1.814  13.862  -5.827  0.00  0.00    +0.070 C 
ENDBRANCH   9  16
ENDBRANCH   1  12
BRANCH   5  17
ATOM     17  C   LIG    1        4.667   5.949  -0.702  0.00  0.00    +0.220 C 
BRANCH  17  18
ATOM     18  C   LIG    1        3.635   4.877  -0.942  0.00  0.00    +0.510 C 
ATOM     19  N   LIG    1        4.002   3.580  -0.958  0.00  0.00    -0.680 N 
ATOM     20  H   LIG    1        4.913   3.331  -0.737  0.00  0.00    +0.410 HD
ATOM     21  O   LIG    1        2.475   5.181  -1.121  0.00  0.00    -0.500 OA
BRANCH  19  22
ATOM     22  C   LIG    1        3.068   2.593  -1.293  0.00  0.00    +0.130 A 
ATOM     23  C   LIG    1        3.465   1.476  -2.016  0.00  0.00    -0.020 A 
ATOM     24  C   LIG    1        2.542   0.503  -2.344  0.00  0.00    +0.030 A 
ATOM     25  C   LIG    1        1.221   0.643  -1.958  0.00  0.00    -0.100 A 
ATOM     26  C   LIG    1        0.823   1.752  -1.233  0.00  0.00    +0.030 A 
ATOM     27  C   LIG    1        0.215  -0.417  -2.323  0.00  0.00    +0.090 C 
ATOM     28  C   LIG    1        1.742   2.728  -0.902  0.00  0.00    +0.030 A 
ENDBRANCH  19  22
ENDBRANCH  17  18
ENDBRANCH   5  17
TORSDOF 5
