REMARK  Name = ZINCrH000004tMjk.0
REMARK                            x       y       z     vdW  Elec       q    Type
REMARK                         _______ _______ _______ _____ _____    ______ ____
ROOT
ATOM      1  C   LIG    1       -1.368   3.341   2.767  0.00  0.00    +0.260 C 
ENDROOT
BRANCH   1   2
ATOM      2  N   LIG    1       -0.629   2.843   1.599  0.00  0.00    -0.470 N 
ATOM      3  C   LIG    1       -0.434   1.391   1.681  0.00  0.00    +0.210 C 
ATOM      4  C   LIG    1        0.209   0.918   0.372  0.00  0.00    +0.200 C 
ATOM      5  N   LIG    1       -0.759   1.109  -0.714  0.00  0.00    -0.480 N 
ATOM      6  C   LIG    1       -1.312   2.395  -0.706  0.00  0.00    +0.110 A 
ATOM      7  C   LIG    1       -1.938   2.843  -1.865  0.00  0.00    +0.000 A 
ATOM      8  C   LIG    1       -2.505   4.101  -1.912  0.00  0.00    +0.000 A 
ATOM      9  C   LIG    1       -2.453   4.925  -0.803  0.00  0.00    +0.000 A 
ATOM     10  C   LIG    1       -1.832   4.490   0.352  0.00  0.00    -0.020 A 
ATOM     11  C   LIG    1       -1.256   3.225   0.408  0.00  0.00    +0.100 A 
BRANCH   5  12
ATOM     12  C   LIG    1       -0.156   0.804  -2.018  0.00  0.00    +0.260 C 
BRANCH  12  13
ATOM     13  C   LIG    1        0.885   1.871  -2.361  0.00  0.00    -0.090 C 
ATOM     14  C   LIG    1        0.630   2.735  -3.597  0.00  0.00    +0.010 C 
ATOM     15  C   LIG    1        1.720   1.663  -3.625  0.00  0.00    +0.010 C 
ENDBRANCH  12  13
ENDBRANCH   5  12
ENDBRANCH   1   2
BRANCH   1  17
ATOM     16  O   LIG    1       -3.117   2.038   1.865  0.00  0.00    -0.510 OA
ATOM     17  C   LIG    1       -2.741   2.721   2.794  0.00  0.00    +0.480 C 
ATOM     18  N   LIG    1       -3.552   2.924   3.852  0.00  0.00    -0.730 N 
ATOM     19  H   LIG    1       -3.251   3.470   4.595  0.00  0.00    +0.400 HD
BRANCH  18  20
ATOM     20  C   LIG    1       -4.886   2.320   3.879  0.00  0.00    +0.270 C 
BRANCH  20  21
ATOM     21  C   LIG    1       -5.593   2.705   5.180  0.00  0.00    +0.070 C 
BRANCH  21  22
ATOM     22  C   LIG    1       -6.966   2.084   5.208  0.00  0.00    -0.080 A 
ATOM     23  C   LIG    1       -8.048   2.775   4.693  0.00  0.00    +0.030 A 
ATOM     24  C   LIG    1       -9.306   2.204   4.714  0.00  0.00    +0.030 A 
ATOM     25  C   LIG    1       -9.486   0.946   5.260  0.00  0.00    -0.040 A 
ATOM     26  C   LIG    1       -8.404   0.257   5.779  0.00  0.00    +0.030 A 
ATOM     27 CL   LIG    1      -11.068   0.231   5.293  0.00  0.00    -0.070 Cl
ATOM     28  C   LIG    1       -7.145   0.826   5.753  0.00  0.00    +0.030 A 
ENDBRANCH  21  22
ENDBRANCH  20  21
ENDBRANCH  18  20
ENDBRANCH   1  17
TORSDOF 7
