REMARK  Name = ZINCvU00000005u1.0
REMARK                            x       y       z     vdW  Elec       q    Type
REMARK                         _______ _______ _______ _____ _____    ______ ____
ROOT
ATOM      1  C   LIG    1       -2.202  -4.388  -0.007  0.00  0.00    +0.530 C 
ATOM      2  N   LIG    1       -3.257  -5.226   0.006  0.00  0.00    -0.600 N 
ATOM      3  O   LIG    1       -1.074  -4.832  -0.028  0.00  0.00    -0.520 OA
ENDROOT
BRANCH   1   4
ATOM      4  C   LIG    1       -2.424  -2.897   0.004  0.00  0.00    +0.060 C 
BRANCH   4   5
ATOM      5  C   LIG    1       -1.073  -2.180  -0.015  0.00  0.00    +0.060 C 
BRANCH   5   6
ATOM      6  C   LIG    1       -1.299  -0.666  -0.004  0.00  0.00    +0.180 C 
BRANCH   6   7
ATOM      7  O   LIG    1       -0.037   0.004  -0.022  0.00  0.00    -0.310 OA
BRANCH   7  12
ATOM      8  C   LIG    1       -0.131   5.635   0.005  0.00  0.00    +0.090 C 
ATOM      9  C   LIG    1       -0.106   4.128  -0.003  0.00  0.00    -0.130 A 
ATOM     10  C   LIG    1        1.103   3.459  -0.025  0.00  0.00    +0.050 A 
ATOM     11  C   LIG    1        1.129   2.078  -0.032  0.00  0.00    -0.020 A 
ATOM     12  C   LIG    1       -0.060   1.363  -0.015  0.00  0.00    +0.120 A 
ATOM     13  C   LIG    1       -1.272   2.037   0.002  0.00  0.00    -0.080 A 
ATOM     14  C   LIG    1       -1.292   3.418   0.014  0.00  0.00    +0.040 A 
ENDBRANCH   7  12
ENDBRANCH   6   7
ENDBRANCH   5   6
ENDBRANCH   4   5
ENDBRANCH   1   4
BRANCH   2  15
ATOM     15  C   LIG    1       -4.619  -4.689   0.031  0.00  0.00    +0.400 C 
BRANCH  15  16
ATOM     16  C   LIG    1       -5.110  -4.498  -1.381  0.00  0.00    -0.050 A 
ATOM     17  C   LIG    1       -5.762  -5.416  -2.118  0.00  0.00    -0.040 A 
ATOM     18  C   LIG    1       -6.033  -4.818  -3.370  0.00  0.00    -0.070 A 
ATOM     19  C   LIG    1       -5.524  -3.573  -3.326  0.00  0.00    +0.170 A 
ATOM     20  O   LIG    1       -4.966  -3.385  -2.119  0.00  0.00    -0.170 OA
ENDBRANCH  15  16
ENDBRANCH   2  15
BRANCH   2  21
ATOM     21  C   LIG    1       -3.040  -6.675  -0.004  0.00  0.00    +0.330 C 
BRANCH  21  22
ATOM     22  C   LIG    1       -2.943  -7.179   1.413  0.00  0.00    +0.500 C 
ATOM     23  N   LIG    1       -2.743  -8.491   1.650  0.00  0.00    -0.670 N 
ATOM     24  H   LIG    1       -2.727  -9.120   0.912  0.00  0.00    +0.410 HD
ATOM     25  O   LIG    1       -3.044  -6.404   2.340  0.00  0.00    -0.500 OA
BRANCH  23  26
ATOM     26  C   LIG    1       -2.559  -8.945   2.961  0.00  0.00    +0.170 A 
ATOM     27  C   LIG    1       -3.236  -8.337   4.009  0.00  0.00    +0.030 A 
ATOM     28  C   LIG    1       -3.051  -8.788   5.302  0.00  0.00    +0.050 A 
ATOM     29  C   LIG    1       -2.193  -9.842   5.553  0.00  0.00    +0.000 A 
ATOM     30  C   LIG    1       -1.517 -10.450   4.511  0.00  0.00    +0.070 A 
ATOM     31  C   LIG    1       -1.702 -10.009   3.215  0.00  0.00    -0.120 A 
ATOM     32 BR   LIG    1       -0.783 -10.846   1.790  0.00  0.00    -0.040 Br
ENDBRANCH  23  26
ENDBRANCH  21  22
ENDBRANCH   2  21
TORSDOF 10
