REMARK  Name = ZINCpe000000YTuG.0
REMARK                            x       y       z     vdW  Elec       q    Type
REMARK                         _______ _______ _______ _____ _____    ______ ____
ROOT
ATOM      1  O   LIG    1        0.029   7.489   4.542  0.00  0.00    -0.530 OA
ATOM      2  C   LIG    1       -0.289   6.321   4.466  0.00  0.00    +0.500 C 
ATOM      3  N   LIG    1        0.411   5.481   3.678  0.00  0.00    -0.610 N 
ATOM      4  C   LIG    1        1.564   5.960   2.901  0.00  0.00    +0.300 C 
ATOM      5  C   LIG    1        1.384   5.524   1.443  0.00  0.00    +0.170 C 
ATOM      6  N   LIG    1        1.162   4.072   1.394  0.00  0.00    -0.530 NA
ATOM      7  C   LIG    1       -0.078   3.700   2.087  0.00  0.00    +0.170 C 
ATOM      8  C   LIG    1        0.042   4.061   3.572  0.00  0.00    +0.280 C 
ENDROOT
BRANCH   6   9
ATOM      9  C   LIG    1        1.156   3.587   0.007  0.00  0.00    +0.230 C 
BRANCH   9  10
ATOM     10  C   LIG    1        1.173   2.080   0.002  0.00  0.00    -0.110 A 
ATOM     11  C   LIG    1        2.376   1.400  -0.011  0.00  0.00    +0.070 A 
ATOM     12  C   LIG    1        2.397   0.021  -0.021  0.00  0.00    -0.010 A 
ATOM     13  C   LIG    1        1.205  -0.699  -0.018  0.00  0.00    +0.110 A 
ATOM     14  O   LIG    1        0.997  -2.044  -0.037  0.00  0.00    -0.310 OA
ATOM     15  C   LIG    1       -0.341  -2.324   0.408  0.00  0.00    +0.240 C 
ATOM     16  C   LIG    1       -1.107  -1.038   0.018  0.00  0.00    +0.070 C 
ATOM     17  C   LIG    1        0.002  -0.004   0.002  0.00  0.00    -0.180 A 
ATOM     18  C   LIG    1       -0.017   1.373   0.010  0.00  0.00    +0.060 A 
ENDBRANCH   9  10
ENDBRANCH   6   9
BRANCH   2  19
ATOM     19  C   LIG    1       -1.467   5.809   5.254  0.00  0.00    +0.330 C 
BRANCH  19  20
ATOM     20  N   LIG    1       -2.054   6.907   6.025  0.00  0.00    -0.610 N 
ATOM     21  C   LIG    1       -3.119   7.788   5.532  0.00  0.00    +0.250 C 
ATOM     22  C   LIG    1       -3.103   9.018   6.468  0.00  0.00    +0.040 C 
ATOM     23  C   LIG    1       -2.491   8.424   7.758  0.00  0.00    +0.060 C 
ATOM     24  C   LIG    1       -1.690   7.234   7.277  0.00  0.00    +0.520 C 
ATOM     25  O   LIG    1       -0.840   6.661   7.925  0.00  0.00    -0.530 OA
ENDBRANCH  19  20
ENDBRANCH   2  19
TORSDOF 4
