REMARK  Name = ZINCpe000000UcvY.0
REMARK                            x       y       z     vdW  Elec       q    Type
REMARK                         _______ _______ _______ _____ _____    ______ ____
ROOT
ATOM      1  C   LIG    1        4.442   6.013  -1.305  0.00  0.00    +0.520 C 
ATOM      2  N   LIG    1        3.402   5.386  -0.719  0.00  0.00    -0.620 N 
ATOM      3  C   LIG    1        3.530   4.828   0.633  0.00  0.00    +0.280 C 
ATOM      4  C   LIG    1        3.113   3.354   0.600  0.00  0.00    +0.060 C 
ATOM      5  C   LIG    1        1.709   3.239   0.003  0.00  0.00    +0.090 C 
ATOM      6  C   LIG    1        1.718   3.771  -1.432  0.00  0.00    +0.030 C 
ATOM      7  C   LIG    1        2.119   5.250  -1.422  0.00  0.00    +0.280 C 
ATOM      8  O   LIG    1        5.496   6.119  -0.715  0.00  0.00    -0.520 OA
ENDROOT
BRANCH   5   9
ATOM      9  C   LIG    1        1.282   1.794  -0.001  0.00  0.00    +0.280 A 
ATOM     10  N   LIG    1        2.077   0.773  -0.014  0.00  0.00    -0.270 NA
ATOM     11  N   LIG    1        1.295  -0.390  -0.012  0.00  0.00    -0.550 N 
ATOM     12  H   LIG    1        1.623  -1.303  -0.020  0.00  0.00    +0.460 HD
ATOM     13  C   LIG    1        0.002  -0.004   0.002  0.00  0.00    +0.650 A 
ATOM     14  O   LIG    1       -0.970  -0.739   0.008  0.00  0.00    -0.550 OA
ATOM     15  N   LIG    1       -0.016   1.344   0.009  0.00  0.00    -0.550 N 
BRANCH  15  16
ATOM     16  C   LIG    1       -1.215   2.185   0.020  0.00  0.00    +0.310 C 
ATOM     17  C   LIG    1       -1.625   2.471   1.466  0.00  0.00    +0.030 C 
ENDBRANCH  15  16
ENDBRANCH   5   9
BRANCH   1  18
ATOM     18  C   LIG    1        4.295   6.580  -2.693  0.00  0.00    +0.150 C 
BRANCH  18  22
ATOM     19  C   LIG    1        7.644   7.547  -3.910  0.00  0.00    +0.080 A 
ATOM     20  N   LIG    1        7.200   8.709  -3.504  0.00  0.00    -0.290 NA
ATOM     21  N   LIG    1        5.904   8.531  -3.002  0.00  0.00    -0.370 N 
ATOM     22  C   LIG    1        5.592   7.223  -3.113  0.00  0.00    +0.100 A 
ATOM     23  C   LIG    1        5.042   9.579  -2.450  0.00  0.00    +0.340 C 
ATOM     24  C   LIG    1        6.650   6.593  -3.675  0.00  0.00    -0.110 A 
BRANCH  19  26
ATOM     25  C   LIG    1        9.193   8.199  -5.734  0.00  0.00    +0.020 C 
ATOM     26  C   LIG    1        8.995   7.283  -4.524  0.00  0.00    +0.120 C 
ENDBRANCH  19  26
ENDBRANCH  18  22
ENDBRANCH   1  18
TORSDOF 5
