REMARK  Name = ZINCvU0000000Dgp.0
REMARK                            x       y       z     vdW  Elec       q    Type
REMARK                         _______ _______ _______ _____ _____    ______ ____
ROOT
ATOM      1  N   LIG    1       -4.502   5.090  -0.982  0.00  0.00    -0.600 N 
ATOM      2  C   LIG    1       -3.352   5.586  -0.484  0.00  0.00    +0.520 C 
ATOM      3  O   LIG    1       -3.274   5.871   0.692  0.00  0.00    -0.520 OA
ENDROOT
BRANCH   1   5
ATOM      4  C   LIG    1       -4.180   3.287  -2.603  0.00  0.00    +0.020 C 
ATOM      5  C   LIG    1       -4.597   4.745  -2.403  0.00  0.00    +0.280 C 
ENDBRANCH   1   5
BRANCH   2   6
ATOM      6  C   LIG    1       -2.164   5.786  -1.389  0.00  0.00    +0.160 C 
BRANCH   6   7
ATOM      7  C   LIG    1       -1.015   6.348  -0.591  0.00  0.00    -0.210 A 
ATOM      8  C   LIG    1       -0.070   5.632   0.051  0.00  0.00    +0.120 A 
ATOM      9  N   LIG    1        0.829   6.370   0.686  0.00  0.00    -0.460 NA
ATOM     10  C   LIG    1        0.701   7.649   0.605  0.00  0.00    +0.050 A 
ATOM     11  C   LIG    1        1.625   8.648   1.253  0.00  0.00    +0.180 C 
ATOM     12  S   LIG    1       -0.669   8.056  -0.333  0.00  0.00    +0.160 S 
BRANCH   8  13
ATOM     13  C   LIG    1       -0.043   4.149   0.053  0.00  0.00    -0.030 A 
ATOM     14  C   LIG    1        1.176   3.472   0.044  0.00  0.00    +0.080 A 
ATOM     15  C   LIG    1        1.196   2.092   0.045  0.00  0.00    -0.010 A 
ATOM     16  C   LIG    1        0.008   1.380   0.054  0.00  0.00    +0.110 A 
ATOM     17  C   LIG    1       -1.205   2.048   0.057  0.00  0.00    -0.010 A 
ATOM     18  F   LIG    1        0.033   0.029   0.055  0.00  0.00    -0.140 F 
ATOM     19  C   LIG    1       -1.235   3.428   0.062  0.00  0.00    +0.050 A 
ENDBRANCH   8  13
ENDBRANCH   6   7
ENDBRANCH   2   6
BRANCH   1  20
ATOM     20  C   LIG    1       -5.658   4.895  -0.103  0.00  0.00    +0.340 C 
BRANCH  20  21
ATOM     21  C   LIG    1       -6.497   6.146  -0.091  0.00  0.00    +0.500 C 
ATOM     22  N   LIG    1       -7.619   6.199   0.654  0.00  0.00    -0.670 N 
ATOM     23  H   LIG    1       -7.929   5.406   1.119  0.00  0.00    +0.410 HD
ATOM     24  O   LIG    1       -6.163   7.107  -0.753  0.00  0.00    -0.500 OA
BRANCH  22  25
ATOM     25  C   LIG    1       -8.335   7.396   0.756  0.00  0.00    +0.160 A 
ATOM     26  C   LIG    1       -7.692   8.611   0.561  0.00  0.00    +0.040 A 
ATOM     27  C   LIG    1       -8.403   9.792   0.662  0.00  0.00    -0.020 A 
ATOM     28  C   LIG    1       -9.754   9.764   0.959  0.00  0.00    +0.020 A 
ATOM     29  C   LIG    1      -10.397   8.555   1.153  0.00  0.00    +0.050 A 
ATOM     30 CL   LIG    1       -7.600  11.312   0.418  0.00  0.00    -0.060 Cl
ATOM     31  C   LIG    1       -9.693   7.372   1.048  0.00  0.00    -0.110 A 
ATOM     32  C   LIG    1      -10.396   6.055   1.255  0.00  0.00    +0.100 C 
ENDBRANCH  22  25
ENDBRANCH  20  21
ENDBRANCH   1  20
TORSDOF 7
