REMARK  Name = ZINCpk00000KfKn5.0
REMARK                            x       y       z     vdW  Elec       q    Type
REMARK                         _______ _______ _______ _____ _____    ______ ____
ROOT
ATOM      1  C   LIG    1       -1.119   4.014   4.706  0.00  0.00    -0.010 C 
ATOM      2  C   LIG    1       -1.971   3.302   5.779  0.00  0.00    +0.290 C 
ATOM      3  N   LIG    1       -1.408   1.934   5.857  0.00  0.00    -0.610 N 
ATOM      4  C   LIG    1       -1.108   1.578   4.449  0.00  0.00    +0.290 C 
ATOM      5  C   LIG    1       -1.210   1.183   6.959  0.00  0.00    +0.620 C 
ATOM      6  O   LIG    1       -0.623   0.121   6.873  0.00  0.00    -0.550 OA
ATOM      7  C   LIG    1       -0.551   2.878   3.830  0.00  0.00    +0.100 C 
ENDROOT
BRANCH   7   8
ATOM      8  C   LIG    1       -1.026   3.026   2.407  0.00  0.00    -0.240 A 
ATOM      9  C   LIG    1       -0.239   3.159   1.315  0.00  0.00    +0.240 A 
ATOM     10  N   LIG    1       -1.045   3.264   0.237  0.00  0.00    -0.370 N 
ATOM     11  N   LIG    1       -2.372   3.199   0.683  0.00  0.00    -0.290 NA
ATOM     12  C   LIG    1       -0.610   3.424  -1.152  0.00  0.00    +0.360 C 
ATOM     13  C   LIG    1       -2.359   3.051   1.983  0.00  0.00    +0.240 A 
ENDBRANCH   7   8
BRANCH   1  17
ATOM     14  C   LIG    1        1.021   6.883   6.058  0.00  0.00    +0.290 C 
ATOM     15  N   LIG    1       -0.111   6.116   5.532  0.00  0.00    -0.740 N 
ATOM     16  H   LIG    1       -0.941   6.566   5.311  0.00  0.00    +0.400 HD
ATOM     17  C   LIG    1        0.002   4.785   5.354  0.00  0.00    +0.520 C 
ATOM     18  O   LIG    1        1.005   4.208   5.716  0.00  0.00    -0.530 OA
ENDBRANCH   1  17
BRANCH   5  19
ATOM     19  C   LIG    1       -1.703   1.646   8.260  0.00  0.00    -0.050 A 
ATOM     20  C   LIG    1       -2.516   2.738   8.482  0.00  0.00    +0.000 A 
ATOM     21  C   LIG    1       -2.740   2.809   9.861  0.00  0.00    -0.070 A 
ATOM     22  C   LIG    1       -2.068   1.788  10.444  0.00  0.00    +0.190 A 
ATOM     23  N   LIG    1       -1.433   1.074   9.483  0.00  0.00    -0.400 N 
BRANCH  23  24
ATOM     24  C   LIG    1       -0.600  -0.109   9.707  0.00  0.00    +0.230 C 
ATOM     25  C   LIG    1       -1.403  -1.160  10.477  0.00  0.00    +0.040 C 
ATOM     26  C   LIG    1        0.636   0.283  10.519  0.00  0.00    +0.040 C 
ENDBRANCH  23  24
ENDBRANCH   5  19
TORSDOF 4
