REMARK  Name = ZINCrH00000No51l.1
REMARK                            x       y       z     vdW  Elec       q    Type
REMARK                         _______ _______ _______ _____ _____    ______ ____
ROOT
ATOM      1  C   LIG    1       -0.566   2.798   5.868  0.00  0.00    +0.050 A 
ATOM      2  C   LIG    1       -0.684   4.053   6.369  0.00  0.00    +0.130 A 
ATOM      3  N   LIG    1       -1.334   3.948   7.568  0.00  0.00    -0.370 N 
ATOM      4  C   LIG    1       -1.720   4.870   8.499  0.00  0.00    +0.190 A 
ATOM      5  C   LIG    1       -2.360   4.495   9.633  0.00  0.00    -0.090 A 
ATOM      6  C   LIG    1       -2.746   5.572  10.613  0.00  0.00    +0.090 C 
ATOM      7  C   LIG    1       -3.810   5.058  11.580  0.00  0.00    +0.020 C 
ATOM      8  C   LIG    1       -3.323   3.737  12.184  0.00  0.00    +0.020 C 
ATOM      9  C   LIG    1       -3.358   2.664  11.097  0.00  0.00    +0.080 C 
ATOM     10  C   LIG    1       -2.639   3.141   9.863  0.00  0.00    -0.060 A 
ATOM     11  C   LIG    1       -2.256   2.207   8.944  0.00  0.00    +0.070 A 
ATOM     12  C   LIG    1       -1.590   2.612   7.771  0.00  0.00    +0.220 A 
ATOM     13  N   LIG    1       -1.117   1.940   6.734  0.00  0.00    -0.470 NA
ENDROOT
BRANCH   1  20
ATOM     14  C   LIG    1       -0.014   1.118  -0.015  0.00  0.00    +0.100 C 
ATOM     15  C   LIG    1       -0.723   1.603   1.223  0.00  0.00    +0.510 C 
ATOM     16  N   LIG    1       -0.258   1.266   2.442  0.00  0.00    -0.610 N 
ATOM     17  C   LIG    1        0.935   0.419   2.581  0.00  0.00    +0.260 C 
ATOM     18  C   LIG    1        1.940   1.138   3.493  0.00  0.00    +0.020 C 
ATOM     19  C   LIG    1        1.259   1.485   4.819  0.00  0.00    +0.030 C 
ATOM     20  C   LIG    1        0.084   2.431   4.559  0.00  0.00    +0.080 C 
ATOM     21  C   LIG    1       -0.939   1.732   3.658  0.00  0.00    +0.290 C 
ATOM     22  O   LIG    1       -1.712   2.298   1.122  0.00  0.00    -0.550 OA
ENDBRANCH   1  20
BRANCH   2  23
ATOM     23  N   LIG    1       -0.231   5.235   5.769  0.00  0.00    -0.580 N 
ATOM     24  H   LIG    1       -0.547   5.300   4.813  0.00  0.00    +0.360 HD
BRANCH  23  25
ATOM     25  C   LIG    1       -0.647   6.412   6.543  0.00  0.00    +0.200 C 
BRANCH  25  26
ATOM     26  C   LIG    1       -0.261   7.683   5.785  0.00  0.00    -0.050 C 
ATOM     27  C   LIG    1        0.760   8.614   6.441  0.00  0.00    +0.030 C 
ATOM     28  C   LIG    1       -0.714   9.021   6.373  0.00  0.00    +0.010 C 
ENDBRANCH  25  26
ENDBRANCH  23  25
ENDBRANCH   2  23
TORSDOF 4
