REMARK  Name = ZINCrD000003UpEg.0
REMARK                            x       y       z     vdW  Elec       q    Type
REMARK                         _______ _______ _______ _____ _____    ______ ____
ROOT
ATOM      1  C   LIG    1       -2.052  -1.006  -1.903  0.00  0.00    +0.210 C 
ATOM      2  C   LIG    1       -0.904  -0.036  -1.995  0.00  0.00    -0.080 A 
ATOM      3  C   LIG    1        0.051  -0.235  -2.982  0.00  0.00    +0.010 A 
ATOM      4  C   LIG    1        1.125   0.625  -3.097  0.00  0.00    +0.000 A 
ATOM      5  C   LIG    1        1.251   1.690  -2.225  0.00  0.00    +0.010 A 
ATOM      6  C   LIG    1        0.301   1.890  -1.244  0.00  0.00    +0.000 A 
ATOM      7  C   LIG    1       -0.779   1.029  -1.128  0.00  0.00    -0.070 A 
ATOM      8  C   LIG    1       -1.797   1.293  -0.049  0.00  0.00    +0.100 C 
ATOM      9  C   LIG    1       -2.647   0.044   0.184  0.00  0.00    +0.210 C 
ATOM     10  N   LIG    1       -3.148  -0.430  -1.116  0.00  0.00    -0.460 N 
ENDROOT
BRANCH  10  11
ATOM     11  C   LIG    1       -4.173  -1.345  -0.950  0.00  0.00    +0.480 A 
ATOM     12  N   LIG    1       -3.913  -2.510  -0.374  0.00  0.00    -0.540 NA
ATOM     13  C   LIG    1       -4.871  -3.404  -0.195  0.00  0.00    +0.330 A 
ATOM     14  C   LIG    1       -6.156  -3.115  -0.627  0.00  0.00    -0.080 A 
ATOM     15  C   LIG    1       -6.391  -1.889  -1.230  0.00  0.00    +0.330 A 
ATOM     16  N   LIG    1       -5.390  -1.038  -1.374  0.00  0.00    -0.480 NA
ENDBRANCH  10  11
BRANCH   1  17
ATOM     17  C   LIG    1       -2.556  -1.329  -3.311  0.00  0.00    +0.280 C 
BRANCH  17  19
ATOM     18  C   LIG    1       -3.656  -0.170  -5.151  0.00  0.00    +0.560 C 
ATOM     19  N   LIG    1       -3.082  -0.111  -3.933  0.00  0.00    -0.700 N 
ATOM     20  H   LIG    1       -3.017   0.738  -3.468  0.00  0.00    +0.410 HD
ATOM     21  O   LIG    1       -3.820  -1.245  -5.694  0.00  0.00    -0.540 OA
BRANCH  18  28
ATOM     22  C   LIG    1       -4.654  -0.288  -7.864  0.00  0.00    +0.110 C 
ATOM     23  C   LIG    1       -4.571   1.028  -7.135  0.00  0.00    -0.020 A 
ATOM     24  C   LIG    1       -4.971   2.191  -7.758  0.00  0.00    +0.000 A 
ATOM     25  C   LIG    1       -4.894   3.400  -7.090  0.00  0.00    +0.040 A 
ATOM     26  C   LIG    1       -4.415   3.452  -5.793  0.00  0.00    -0.010 A 
ATOM     27  C   LIG    1       -4.017   2.295  -5.156  0.00  0.00    +0.040 A 
ATOM     28  C   LIG    1       -4.087   1.073  -5.826  0.00  0.00    -0.140 A 
ENDBRANCH  18  28
ENDBRANCH  17  19
ENDBRANCH   1  17
TORSDOF 4
