REMARK  Name = ZINCqH0000005nNQ.1
REMARK                            x       y       z     vdW  Elec       q    Type
REMARK                         _______ _______ _______ _____ _____    ______ ____
ROOT
ATOM      1  C   LIG    1       -1.579   3.445   4.829  0.00  0.00    +0.090 A 
ATOM      2  C   LIG    1       -2.870   3.024   5.111  0.00  0.00    +0.010 A 
ATOM      3  C   LIG    1       -3.509   3.473   6.253  0.00  0.00    +0.060 A 
ATOM      4  C   LIG    1       -2.865   4.340   7.115  0.00  0.00    -0.170 A 
ATOM      5  C   LIG    1       -1.577   4.764   6.841  0.00  0.00    +0.090 A 
ATOM      6  C   LIG    1       -0.927   4.315   5.702  0.00  0.00    +0.170 A 
ENDROOT
BRANCH   1  11
ATOM      7  C   LIG    1       -0.036   1.067   0.022  0.00  0.00    +0.190 C 
ATOM      8  N   LIG    1       -0.717   1.542   1.234  0.00  0.00    -0.550 NA
ATOM      9  C   LIG    1       -0.841   3.007   1.229  0.00  0.00    +0.180 C 
ATOM     10  C   LIG    1       -1.624   3.454   2.465  0.00  0.00    +0.190 C 
ATOM     11  N   LIG    1       -0.930   2.992   3.675  0.00  0.00    -0.510 N 
ATOM     12  C   LIG    1       -0.806   1.528   3.681  0.00  0.00    +0.190 C 
ATOM     13  C   LIG    1       -0.023   1.080   2.444  0.00  0.00    +0.180 C 
ENDBRANCH   1  11
BRANCH   4  14
ATOM     14  C   LIG    1       -3.568   4.825   8.356  0.00  0.00    +0.510 C 
ATOM     15  F   LIG    1       -3.670   6.220   8.319  0.00  0.00    -0.170 F 
ATOM     16  F   LIG    1       -2.837   4.441   9.486  0.00  0.00    -0.180 F 
ATOM     17  F   LIG    1       -4.848   4.265   8.416  0.00  0.00    -0.180 F 
ENDBRANCH   4  14
BRANCH   6  18
ATOM     18  N   LIG    1        0.380   4.740   5.426  0.00  0.00    -0.650 N 
ATOM     19  H   LIG    1        1.006   4.135   4.998  0.00  0.00    +0.420 HD
ATOM     20  C   LIG    1        0.766   5.988   5.755  0.00  0.00    +0.560 C 
ATOM     21  O   LIG    1        0.009   6.719   6.364  0.00  0.00    -0.520 OA
BRANCH  20  22
ATOM     22  C   LIG    1        2.111   6.469   5.376  0.00  0.00    -0.140 A 
ATOM     23  C   LIG    1        2.986   5.631   4.682  0.00  0.00    +0.050 A 
ATOM     24  C   LIG    1        4.238   6.088   4.327  0.00  0.00    +0.000 A 
ATOM     25  C   LIG    1        4.632   7.370   4.666  0.00  0.00    +0.040 A 
ATOM     26  C   LIG    1        3.772   8.204   5.358  0.00  0.00    +0.000 A 
ATOM     27  C   LIG    1        2.515   7.762   5.715  0.00  0.00    +0.080 A 
ENDBRANCH  20  22
ENDBRANCH   6  18
TORSDOF 4
