REMARK  Name = ZINCrH000004uCdl.0
REMARK                            x       y       z     vdW  Elec       q    Type
REMARK                         _______ _______ _______ _____ _____    ______ ____
ROOT
ATOM      1  O   LIG    1       -6.884   6.095  -0.630  0.00  0.00    -0.590 OA
ATOM      2  C   LIG    1       -6.186   5.730  -1.556  0.00  0.00    +0.710 C 
ATOM      3  N   LIG    1       -6.506   6.078  -2.818  0.00  0.00    -0.740 N 
ATOM      4  H   LIG    1       -5.949   5.787  -3.557  0.00  0.00    +0.390 HD
ATOM      5  N   LIG    1       -5.092   4.978  -1.321  0.00  0.00    -0.740 N 
ATOM      6  H   LIG    1       -4.535   4.687  -2.060  0.00  0.00    +0.400 HD
ENDROOT
BRANCH   3   7
ATOM      7  C   LIG    1       -7.694   6.895  -3.074  0.00  0.00    +0.340 C 
BRANCH   7   8
ATOM      8  C   LIG    1       -7.520   7.642  -4.371  0.00  0.00    -0.090 A 
ATOM      9  C   LIG    1       -6.930   7.018  -5.455  0.00  0.00    +0.010 A 
ATOM     10  C   LIG    1       -6.775   7.702  -6.646  0.00  0.00    +0.000 A 
ATOM     11  C   LIG    1       -7.201   9.013  -6.751  0.00  0.00    +0.000 A 
ATOM     12  C   LIG    1       -7.786   9.638  -5.666  0.00  0.00    +0.010 A 
ATOM     13  C   LIG    1       -7.946   8.953  -4.476  0.00  0.00    +0.020 A 
ENDBRANCH   7   8
BRANCH   7  14
ATOM     14  C   LIG    1       -8.925   5.990  -3.167  0.00  0.00    -0.070 C 
ATOM     15  C   LIG    1      -10.135   6.353  -2.305  0.00  0.00    +0.020 C 
ATOM     16  C   LIG    1       -9.273   5.143  -1.942  0.00  0.00    +0.030 C 
ENDBRANCH   7  14
ENDBRANCH   3   7
BRANCH   5  17
ATOM     17  C   LIG    1       -4.745   4.600   0.051  0.00  0.00    +0.330 C 
BRANCH  17  18
ATOM     18  C   LIG    1       -3.489   3.767   0.040  0.00  0.00    -0.140 A 
ATOM     19  C   LIG    1       -2.253   4.380   0.141  0.00  0.00    +0.060 A 
ATOM     20  C   LIG    1       -1.101   3.619   0.132  0.00  0.00    -0.030 A 
ATOM     21  C   LIG    1       -1.184   2.237   0.020  0.00  0.00    +0.170 A 
ATOM     22  C   LIG    1       -2.426   1.625  -0.088  0.00  0.00    +0.000 A 
ATOM     23  C   LIG    1       -3.575   2.391  -0.071  0.00  0.00    +0.060 A 
BRANCH  21  24
ATOM     24  N   LIG    1       -0.018   1.463   0.010  0.00  0.00    -0.560 N 
ATOM     25  C   LIG    1        1.342   2.015  -0.011  0.00  0.00    +0.260 C 
ATOM     26  C   LIG    1        2.254   0.846  -0.444  0.00  0.00    +0.060 C 
ATOM     27  C   LIG    1        1.428  -0.382   0.004  0.00  0.00    +0.070 C 
ATOM     28  C   LIG    1        0.001   0.119   0.024  0.00  0.00    +0.520 C 
ATOM     29  O   LIG    1       -0.984  -0.589   0.050  0.00  0.00    -0.510 OA
ENDBRANCH  21  24
ENDBRANCH  17  18
ENDBRANCH   5  17
TORSDOF 6
