REMARK  Name = ZINCkj00000y7DX2.0
REMARK                            x       y       z     vdW  Elec       q    Type
REMARK                         _______ _______ _______ _____ _____    ______ ____
ROOT
ATOM      1  C   LIG    1       -2.208   1.987   0.910  0.00  0.00    +0.170 C 
ATOM      2  C   LIG    1       -2.593   1.807  -0.573  0.00  0.00    +0.050 C 
ATOM      3  C   LIG    1       -1.235   1.753  -1.315  0.00  0.00    +0.050 C 
ATOM      4  C   LIG    1       -0.342   0.952  -0.335  0.00  0.00    +0.050 C 
ATOM      5  C   LIG    1       -0.773   1.443   1.062  0.00  0.00    +0.140 C 
ENDROOT
BRANCH   5   6
ATOM      6  N   LIG    1       -0.755   0.326   2.016  0.00  0.00    -0.540 NA
ATOM      7  C   LIG    1        0.492  -0.471   1.879  0.00  0.00    +0.200 C 
ATOM      8  C   LIG    1        0.587  -1.217   3.233  0.00  0.00    +0.020 C 
ATOM      9  C   LIG    1        0.076  -0.164   4.244  0.00  0.00    +0.170 C 
ATOM     10  C   LIG    1       -0.767   0.819   3.410  0.00  0.00    +0.170 C 
BRANCH   9  11
ATOM     11  O   LIG    1       -0.733  -0.787   5.243  0.00  0.00    -0.560 OA
ATOM     12  H   LIG    1       -0.255  -1.417   5.800  0.00  0.00    +0.390 HD
ENDBRANCH   9  11
ENDBRANCH   5   6
BRANCH   1  13
ATOM     13  N   LIG    1       -3.129   1.227   1.765  0.00  0.00    -0.500 N 
ATOM     14  H   LIG    1       -2.844   1.315   2.728  0.00  0.00    +0.420 HD
ATOM     15  H   LIG    1       -3.112   0.254   1.496  0.00  0.00    +0.430 HD
BRANCH  13  16
ATOM     16  C   LIG    1       -4.491   1.754   1.608  0.00  0.00    +0.280 C 
BRANCH  16  17
ATOM     17  C   LIG    1       -5.451   0.962   2.498  0.00  0.00    -0.120 C 
ATOM     18  C   LIG    1       -5.925  -0.359   1.871  0.00  0.00    +0.040 C 
ATOM     19  C   LIG    1       -7.314  -0.046   2.451  0.00  0.00    +0.050 C 
ATOM     20  C   LIG    1       -6.910   1.438   2.407  0.00  0.00    +0.060 C 
BRANCH  17  21
ATOM     21  C   LIG    1       -4.943   0.814   3.934  0.00  0.00    +0.180 C 
BRANCH  21  23
ATOM     22  C   LIG    1       -5.510  -0.131   6.063  0.00  0.00    +0.220 C 
ATOM     23  O   LIG    1       -5.890   0.066   4.699  0.00  0.00    -0.370 OA
ENDBRANCH  21  23
ENDBRANCH  17  21
ENDBRANCH  16  17
ENDBRANCH  13  16
ENDBRANCH   1  13
TORSDOF 7
