REMARK  Name = ZINCrg000000oCRL.0
REMARK                            x       y       z     vdW  Elec       q    Type
REMARK                         _______ _______ _______ _____ _____    ______ ____
ROOT
ATOM      1  N   LIG    1       -0.691   1.566   1.214  0.00  0.00    -0.730 N 
ATOM      2  H   LIG    1       -1.492   2.108   1.135  0.00  0.00    +0.390 HD
ATOM      3  C   LIG    1       -0.213   1.243   2.432  0.00  0.00    +0.560 C 
ATOM      4  O   LIG    1        0.791   0.564   2.531  0.00  0.00    -0.490 OA
ENDROOT
BRANCH   3   5
ATOM      5  C   LIG    1       -0.908   1.713   3.645  0.00  0.00    -0.160 A 
ATOM      6  C   LIG    1       -1.996   2.588   3.549  0.00  0.00    +0.100 A 
ATOM      7  C   LIG    1       -2.614   2.999   4.717  0.00  0.00    -0.040 A 
ATOM      8  C   LIG    1       -2.144   2.540   5.934  0.00  0.00    +0.300 A 
ATOM      9  N   LIG    1       -1.117   1.715   6.004  0.00  0.00    -0.510 NA
ATOM     10  C   LIG    1       -0.493   1.286   4.918  0.00  0.00    +0.350 A 
BRANCH  10  11
ATOM     11  N   LIG    1        0.576   0.418   5.037  0.00  0.00    -0.470 N 
ATOM     12  C   LIG    1        0.134  -0.900   5.515  0.00  0.00    +0.170 C 
ATOM     13  C   LIG    1        1.337  -1.845   5.575  0.00  0.00    +0.240 C 
ATOM     14  O   LIG    1        2.343  -1.275   6.416  0.00  0.00    -0.380 OA
ATOM     15  C   LIG    1        2.797   0.009   5.980  0.00  0.00    +0.230 C 
ATOM     16  C   LIG    1        1.610   0.973   5.924  0.00  0.00    +0.170 C 
ENDBRANCH  10  11
ENDBRANCH   3   5
BRANCH   1  17
ATOM     17  C   LIG    1       -0.001   1.099   0.009  0.00  0.00    +0.370 C 
BRANCH  17  23
ATOM     18  C   LIG    1       -1.077   3.151  -2.977  0.00  0.00    +0.070 A 
ATOM     19  N   LIG    1       -2.083   2.443  -3.409  0.00  0.00    -0.210 NA
ATOM     20  N   LIG    1       -2.459   1.358  -2.834  0.00  0.00    -0.450 N 
ATOM     21  H   LIG    1       -3.214   0.868  -3.196  0.00  0.00    +0.440 HD
ATOM     22  C   LIG    1       -1.832   0.883  -1.741  0.00  0.00    +0.490 A 
ATOM     23  C   LIG    1       -0.732   1.594  -1.212  0.00  0.00    -0.190 A 
ATOM     24  O   LIG    1       -2.209  -0.151  -1.214  0.00  0.00    -0.520 OA
ATOM     25  C   LIG    1       -0.357   2.747  -1.841  0.00  0.00    +0.000 A 
BRANCH  18  27
ATOM     26  C   LIG    1       -1.625   4.633  -4.889  0.00  0.00    +0.030 C 
ATOM     27  C   LIG    1       -0.688   4.415  -3.699  0.00  0.00    +0.120 C 
ENDBRANCH  18  27
BRANCH  25  28
ATOM     28  C   LIG    1        0.803   3.563  -1.330  0.00  0.00    +0.080 C 
ATOM     29  C   LIG    1        2.073   3.174  -2.089  0.00  0.00    +0.040 C 
ENDBRANCH  25  28
ENDBRANCH  17  23
ENDBRANCH   1  17
TORSDOF 6
