REMARK  Name = ZINCpe00000VVGOb.0
REMARK                            x       y       z     vdW  Elec       q    Type
REMARK                         _______ _______ _______ _____ _____    ______ ____
ROOT
ATOM      1  C   LIG    1        1.906  -1.758  -0.026  0.00  0.00    +0.100 C 
ATOM      2  C   LIG    1        1.988  -2.289   1.407  0.00  0.00    +0.030 C 
ATOM      3  C   LIG    1        2.492  -3.734   1.380  0.00  0.00    +0.050 C 
ATOM      4  C   LIG    1        1.554  -4.581   0.517  0.00  0.00    +0.200 C 
ATOM      5  N   LIG    1        1.510  -4.033  -0.844  0.00  0.00    -0.470 N 
ATOM      6  C   LIG    1        0.985  -2.662  -0.849  0.00  0.00    +0.220 C 
ENDROOT
BRANCH   1   9
ATOM      7  C   LIG    1       -0.017   1.380   0.010  0.00  0.00    -0.040 A 
ATOM      8  C   LIG    1        0.002  -0.004   0.002  0.00  0.00    +0.020 A 
ATOM      9  C   LIG    1        1.354  -0.356  -0.013  0.00  0.00    +0.040 A 
ATOM     10  N   LIG    1        2.056   0.749  -0.013  0.00  0.00    -0.250 NA
ATOM     11  N   LIG    1        1.290   1.780  -0.001  0.00  0.00    -0.380 N 
ATOM     12  H   LIG    1        1.592   2.701   0.001  0.00  0.00    +0.440 HD
BRANCH   7  16
ATOM     13  N   LIG    1       -1.062   3.587   0.027  0.00  0.00    -0.850 N 
ATOM     14  H   LIG    1       -1.846   4.159   0.034  0.00  0.00    +0.410 HD
ATOM     15  H   LIG    1       -0.175   3.980   0.025  0.00  0.00    +0.400 HD
ATOM     16  C   LIG    1       -1.206   2.247   0.020  0.00  0.00    +0.600 C 
ATOM     17  O   LIG    1       -2.318   1.754   0.023  0.00  0.00    -0.520 OA
ENDBRANCH   7  16
ENDBRANCH   1   9
BRANCH   5  18
ATOM     18  C   LIG    1        0.773  -4.849  -1.684  0.00  0.00    +0.520 A 
ATOM     19  N   LIG    1        1.334  -5.310  -2.792  0.00  0.00    -0.500 NA
ATOM     20  C   LIG    1        0.662  -6.098  -3.618  0.00  0.00    +0.360 A 
ATOM     21  C   LIG    1       -0.646  -6.432  -3.318  0.00  0.00    -0.070 A 
ATOM     22  C   LIG    1       -1.210  -5.927  -2.148  0.00  0.00    +0.430 A 
ATOM     23  N   LIG    1       -0.477  -5.146  -1.363  0.00  0.00    -0.570 NA
BRANCH  22  24
ATOM     24  N   LIG    1       -2.527  -6.237  -1.806  0.00  0.00    -0.330 N 
ATOM     25  C   LIG    1       -3.189  -5.809  -0.699  0.00  0.00    +0.260 A 
ATOM     26  C   LIG    1       -4.436  -6.330  -0.741  0.00  0.00    -0.100 A 
ATOM     27  C   LIG    1       -4.544  -7.099  -1.906  0.00  0.00    +0.270 A 
ATOM     28  N   LIG    1       -3.405  -7.039  -2.547  0.00  0.00    -0.280 NA
ENDBRANCH  22  24
ENDBRANCH   5  18
TORSDOF 4
