REMARK  Name = ZINCvU0000000GoZ.0
REMARK                            x       y       z     vdW  Elec       q    Type
REMARK                         _______ _______ _______ _____ _____    ______ ____
ROOT
ATOM      1  C   LIG    1        5.998  -1.002   0.740  0.00  0.00    +0.300 A 
ATOM      2  N   LIG    1        4.806  -0.508   0.644  0.00  0.00    -0.450 NA
ATOM      3  C   LIG    1        4.670   0.798   0.883  0.00  0.00    +0.100 A 
ATOM      4  C   LIG    1        5.817   1.441   1.212  0.00  0.00    -0.040 A 
ATOM      5  S   LIG    1        7.130   0.267   1.195  0.00  0.00    +0.110 S 
ENDROOT
BRANCH   1   8
ATOM      6  C   LIG    1        5.778  -4.624  -0.226  0.00  0.00    +0.130 C 
ATOM      7  C   LIG    1        5.395  -3.204   0.102  0.00  0.00    +0.510 C 
ATOM      8  N   LIG    1        6.333  -2.333   0.523  0.00  0.00    -0.480 N 
ATOM      9  O   LIG    1        4.242  -2.845  -0.014  0.00  0.00    -0.460 OA
BRANCH   8  10
ATOM     10  C   LIG    1        7.646  -2.770   0.743  0.00  0.00    +0.110 A 
ATOM     11  C   LIG    1        8.668  -2.354  -0.100  0.00  0.00    +0.060 A 
ATOM     12  C   LIG    1        9.961  -2.787   0.119  0.00  0.00    +0.050 A 
ATOM     13  C   LIG    1       10.239  -3.632   1.177  0.00  0.00    +0.090 A 
ATOM     14  C   LIG    1        9.223  -4.048   2.019  0.00  0.00    -0.170 A 
ATOM     15  C   LIG    1        7.929  -3.615   1.808  0.00  0.00    +0.080 A 
BRANCH  14  16
ATOM     16  C   LIG    1        9.530  -4.970   3.171  0.00  0.00    +0.510 C 
ATOM     17  F   LIG    1        8.802  -6.155   3.027  0.00  0.00    -0.170 F 
ATOM     18  F   LIG    1        9.176  -4.348   4.373  0.00  0.00    -0.170 F 
ATOM     19  F   LIG    1       10.899  -5.262   3.183  0.00  0.00    -0.170 F 
ENDBRANCH  14  16
ENDBRANCH   8  10
ENDBRANCH   1   8
BRANCH   3  20
ATOM     20  C   LIG    1        3.377   1.484   0.803  0.00  0.00    +0.160 C 
ATOM     21  C   LIG    1        2.263   0.791   0.470  0.00  0.00    -0.050 C 
BRANCH  21  22
ATOM     22  C   LIG    1        1.014   1.453   0.392  0.00  0.00    +0.550 C 
ATOM     23  N   LIG    1       -0.095   0.763   0.060  0.00  0.00    -0.670 N 
ATOM     24  H   LIG    1       -0.028  -0.171  -0.193  0.00  0.00    +0.410 HD
ATOM     25  O   LIG    1        0.942   2.647   0.625  0.00  0.00    -0.530 OA
BRANCH  23  26
ATOM     26  C   LIG    1       -1.342   1.396   0.075  0.00  0.00    +0.150 A 
ATOM     27  C   LIG    1       -2.477   0.688   0.449  0.00  0.00    -0.030 A 
ATOM     28  C   LIG    1       -3.707   1.317   0.467  0.00  0.00    +0.030 A 
ATOM     29  C   LIG    1       -3.811   2.646   0.102  0.00  0.00    -0.020 A 
ATOM     30  C   LIG    1       -2.683   3.353  -0.275  0.00  0.00    -0.070 A 
ATOM     31  C   LIG    1       -2.801   4.802  -0.671  0.00  0.00    +0.090 C 
ATOM     32  C   LIG    1       -1.450   2.732  -0.290  0.00  0.00    +0.020 A 
ENDBRANCH  23  26
ENDBRANCH  21  22
ENDBRANCH   3  20
TORSDOF 6
