REMARK  Name = ZINCqH0000006Mw9.1
REMARK                            x       y       z     vdW  Elec       q    Type
REMARK                         _______ _______ _______ _____ _____    ______ ____
ROOT
ATOM      1  N   LIG    1       -0.700   1.560   1.217  0.00  0.00    -0.360 N 
ATOM      2  C   LIG    1       -0.616   3.025   1.286  0.00  0.00    +0.330 C 
ATOM      3  H   LIG    1       -1.669   1.280   1.184  0.00  0.00    +0.420 HD
ENDROOT
BRANCH   1   4
ATOM      4  C   LIG    1       -0.013   1.086   0.008  0.00  0.00    +0.310 C 
BRANCH   4   7
ATOM      5  C   LIG    1       -0.881   3.086  -3.077  0.00  0.00    +0.120 A 
ATOM      6  C   LIG    1       -0.216   2.629  -1.952  0.00  0.00    -0.010 A 
ATOM      7  C   LIG    1       -0.742   1.585  -1.213  0.00  0.00    -0.100 A 
ATOM      8  C   LIG    1       -1.938   1.002  -1.589  0.00  0.00    -0.050 A 
ATOM      9  C   LIG    1       -2.610   1.457  -2.710  0.00  0.00    +0.070 A 
ATOM     10 CL   LIG    1       -2.597  -0.304  -0.654  0.00  0.00    -0.040 Cl
ATOM     11  C   LIG    1       -2.085   2.499  -3.457  0.00  0.00    +0.120 A 
BRANCH   5  13
ATOM     12  C   LIG    1        0.876   4.663  -3.359  0.00  0.00    +0.250 C 
ATOM     13  O   LIG    1       -0.362   4.109  -3.808  0.00  0.00    -0.300 OA
ENDBRANCH   5  13
BRANCH  11  14
ATOM     14  O   LIG    1       -2.744   2.947  -4.558  0.00  0.00    -0.480 OA
ATOM     15  H   LIG    1       -3.376   3.657  -4.378  0.00  0.00    +0.400 HD
ENDBRANCH  11  14
ENDBRANCH   4   7
ENDBRANCH   1   4
BRANCH   1  16
ATOM     16  C   LIG    1       -0.062   0.976   2.404  0.00  0.00    +0.140 C 
BRANCH  16  17
ATOM     17  C   LIG    1       -0.148  -0.527   2.333  0.00  0.00    -0.050 A 
ATOM     18  C   LIG    1       -1.305  -1.131   1.877  0.00  0.00    +0.010 A 
ATOM     19  C   LIG    1       -1.384  -2.511   1.806  0.00  0.00    +0.110 A 
ATOM     20  C   LIG    1       -0.307  -3.288   2.203  0.00  0.00    +0.050 A 
ATOM     21  C   LIG    1        0.850  -2.680   2.666  0.00  0.00    +0.110 A 
ATOM     22  F   LIG    1        1.901  -3.435   3.053  0.00  0.00    -0.110 F 
ATOM     23  F   LIG    1       -0.385  -4.635   2.139  0.00  0.00    -0.110 F 
ATOM     24  F   LIG    1       -2.513  -3.101   1.354  0.00  0.00    -0.110 F 
ATOM     25  C   LIG    1        0.927  -1.300   2.730  0.00  0.00    +0.060 A 
ENDBRANCH  16  17
BRANCH  16  26
ATOM     26  C   LIG    1       -0.767   1.462   3.644  0.00  0.00    +0.500 C 
ATOM     27  O   LIG    1       -0.150   1.581   4.689  0.00  0.00    -0.620 OA
ATOM     28  O   LIG    1       -1.954   1.736   3.602  0.00  0.00    -0.650 OA
ENDBRANCH  16  26
ENDBRANCH   1  16
TORSDOF 7
