REMARK  Name = ZINCqH0000006Mw9.2
REMARK                            x       y       z     vdW  Elec       q    Type
REMARK                         _______ _______ _______ _____ _____    ______ ____
ROOT
ATOM      1  N   LIG    1       -2.340   0.857   0.206  0.00  0.00    -0.360 N 
ATOM      2  C   LIG    1       -3.615   1.570   0.061  0.00  0.00    +0.300 C 
ATOM      3  H   LIG    1       -2.362   0.012  -0.345  0.00  0.00    +0.420 HD
ENDROOT
BRANCH   1   4
ATOM      4  C   LIG    1       -2.128   0.514   1.619  0.00  0.00    +0.340 C 
BRANCH   4   7
ATOM      5  C   LIG    1       -5.261  -0.836   3.243  0.00  0.00    +0.110 A 
ATOM      6  C   LIG    1       -4.265   0.034   2.829  0.00  0.00    -0.010 A 
ATOM      7  C   LIG    1       -3.207  -0.435   2.073  0.00  0.00    -0.100 A 
ATOM      8  C   LIG    1       -3.134  -1.775   1.736  0.00  0.00    -0.050 A 
ATOM      9  C   LIG    1       -4.123  -2.650   2.151  0.00  0.00    +0.060 A 
ATOM     10 CL   LIG    1       -1.801  -2.360   0.792  0.00  0.00    -0.010 Cl
ATOM     11  C   LIG    1       -5.188  -2.184   2.905  0.00  0.00    +0.120 A 
BRANCH   5  13
ATOM     12  C   LIG    1       -6.314   1.021   4.292  0.00  0.00    +0.250 C 
ATOM     13  O   LIG    1       -6.305  -0.374   3.983  0.00  0.00    -0.300 OA
ENDBRANCH   5  13
BRANCH  11  14
ATOM     14  O   LIG    1       -6.160  -3.042   3.313  0.00  0.00    -0.480 OA
ATOM     15  H   LIG    1       -5.988  -3.452   4.172  0.00  0.00    +0.400 HD
ENDBRANCH  11  14
ENDBRANCH   4   7
ENDBRANCH   1   4
BRANCH   1  16
ATOM     16  C   LIG    1       -1.242   1.716  -0.259  0.00  0.00    +0.140 C 
BRANCH  16  17
ATOM     17  C   LIG    1       -1.459   2.067  -1.708  0.00  0.00    -0.050 A 
ATOM     18  C   LIG    1       -1.928   1.109  -2.588  0.00  0.00    +0.000 A 
ATOM     19  C   LIG    1       -2.133   1.432  -3.918  0.00  0.00    +0.120 A 
ATOM     20  C   LIG    1       -1.858   2.713  -4.371  0.00  0.00    +0.040 A 
ATOM     21  C   LIG    1       -1.383   3.670  -3.488  0.00  0.00    +0.110 A 
ATOM     22  F   LIG    1       -1.114   4.919  -3.926  0.00  0.00    -0.110 F 
ATOM     23  F   LIG    1       -2.053   3.028  -5.670  0.00  0.00    -0.110 F 
ATOM     24  F   LIG    1       -2.597   0.497  -4.777  0.00  0.00    -0.110 F 
ATOM     25  C   LIG    1       -1.184   3.345  -2.157  0.00  0.00    +0.060 A 
ENDBRANCH  16  17
BRANCH  16  26
ATOM     26  C   LIG    1        0.067   0.984  -0.110  0.00  0.00    +0.500 C 
ATOM     27  O   LIG    1        1.119   1.578  -0.271  0.00  0.00    -0.620 OA
ATOM     28  O   LIG    1        0.073  -0.204   0.167  0.00  0.00    -0.640 OA
ENDBRANCH  16  26
ENDBRANCH   1  16
TORSDOF 7
