REMARK  Name = ZINCkj00000Mhdr9.0
REMARK                            x       y       z     vdW  Elec       q    Type
REMARK                         _______ _______ _______ _____ _____    ______ ____
ROOT
ATOM      1  C   LIG    1        6.755  -1.122  -0.066  0.00  0.00    +0.170 C 
ENDROOT
BRANCH   1   6
ATOM      2  C   LIG    1        3.574   0.619  -0.029  0.00  0.00    +0.310 A 
ATOM      3  N   LIG    1        4.368   1.670  -0.031  0.00  0.00    -0.280 NA
ATOM      4  N   LIG    1        5.684   1.181  -0.045  0.00  0.00    -0.470 N 
ATOM      5  H   LIG    1        6.499   1.708  -0.051  0.00  0.00    +0.450 HD
ATOM      6  C   LIG    1        5.595  -0.161  -0.051  0.00  0.00    +0.280 A 
ATOM      7  N   LIG    1        4.330  -0.489  -0.036  0.00  0.00    -0.520 NA
BRANCH   2  11
ATOM      8  C   LIG    1       -0.016   1.343   0.009  0.00  0.00    -0.060 A 
ATOM      9  C   LIG    1        0.002  -0.004   0.002  0.00  0.00    +0.200 A 
ATOM     10  O   LIG    1        1.280  -0.417  -0.012  0.00  0.00    -0.160 OA
ATOM     11  C   LIG    1        2.096   0.655  -0.014  0.00  0.00    +0.040 A 
ATOM     12  C   LIG    1        1.326   1.774  -0.001  0.00  0.00    +0.020 A 
ENDBRANCH   2  11
ENDBRANCH   1   6
BRANCH   1  13
ATOM     13  C   LIG    1        6.630  -2.091   1.111  0.00  0.00    +0.230 C 
BRANCH  13  14
ATOM     14  N   LIG    1        7.761  -3.028   1.097  0.00  0.00    -0.690 NA
ATOM     15  H   LIG    1        8.641  -2.533   1.109  0.00  0.00    +0.320 HD
BRANCH  14  16
ATOM     16  C   LIG    1        7.675  -3.975   2.216  0.00  0.00    +0.220 C 
BRANCH  16  17
ATOM     17  C   LIG    1        8.867  -4.933   2.168  0.00  0.00    +0.180 C 
ATOM     18  C   LIG    1        8.844  -5.839   3.401  0.00  0.00    +0.060 C 
ATOM     19  C   LIG    1       10.038  -6.795   3.347  0.00  0.00    +0.040 C 
ATOM     20  C   LIG    1       11.330  -5.978   3.252  0.00  0.00    +0.050 C 
ATOM     21  C   LIG    1       11.261  -5.067   2.025  0.00  0.00    +0.250 C 
ATOM     22  N   LIG    1       10.114  -4.159   2.149  0.00  0.00    -0.510 N 
ATOM     23  H   LIG    1       10.195  -3.632   3.005  0.00  0.00    +0.420 HD
ATOM     24  H   LIG    1       10.104  -3.524   1.365  0.00  0.00    +0.430 HD
ENDBRANCH  16  17
ENDBRANCH  14  16
ENDBRANCH  13  14
ENDBRANCH   1  13
TORSDOF 6
