REMARK  Name = ZINCkj00000Mhdr9.1
REMARK                            x       y       z     vdW  Elec       q    Type
REMARK                         _______ _______ _______ _____ _____    ______ ____
ROOT
ATOM      1  C   LIG    1        4.833   5.910  -0.014  0.00  0.00    +0.180 C 
ENDROOT
BRANCH   1   6
ATOM      2  C   LIG    1        1.564   4.341   0.009  0.00  0.00    +0.320 A 
ATOM      3  N   LIG    1        1.173   5.599   0.019  0.00  0.00    -0.260 NA
ATOM      4  N   LIG    1        2.338   6.383   0.012  0.00  0.00    -0.460 N 
ATOM      5  H   LIG    1        2.384   7.352   0.016  0.00  0.00    +0.450 HD
ATOM      6  C   LIG    1        3.376   5.528  -0.002  0.00  0.00    +0.270 A 
ATOM      7  N   LIG    1        2.905   4.309   0.002  0.00  0.00    -0.510 NA
BRANCH   2  11
ATOM      8  C   LIG    1       -1.118   1.846   0.017  0.00  0.00    -0.060 A 
ATOM      9  C   LIG    1       -0.013   1.076   0.008  0.00  0.00    +0.220 A 
ATOM     10  O   LIG    1        1.068   1.874   0.002  0.00  0.00    -0.160 OA
ATOM     11  C   LIG    1        0.673   3.162   0.012  0.00  0.00    +0.030 A 
ATOM     12  C   LIG    1       -0.685   3.188   0.025  0.00  0.00    +0.030 A 
ENDBRANCH   2  11
ENDBRANCH   1   6
BRANCH   1  13
ATOM     13  C   LIG    1        5.548   5.233   1.157  0.00  0.00    +0.290 C 
BRANCH  13  14
ATOM     14  N   LIG    1        6.969   5.606   1.146  0.00  0.00    -0.510 N 
ATOM     15  H   LIG    1        7.054   6.608   1.233  0.00  0.00    +0.430 HD
ATOM     16  H   LIG    1        7.388   5.307   0.278  0.00  0.00    +0.430 HD
BRANCH  14  17
ATOM     17  C   LIG    1        7.655   4.956   2.271  0.00  0.00    +0.280 C 
BRANCH  17  18
ATOM     18  C   LIG    1        9.134   5.344   2.259  0.00  0.00    +0.130 C 
ATOM     19  C   LIG    1        9.822   4.769   3.499  0.00  0.00    +0.050 C 
ATOM     20  C   LIG    1       11.298   5.177   3.493  0.00  0.00    +0.020 C 
ATOM     21  C   LIG    1       11.398   6.704   3.449  0.00  0.00    +0.040 C 
ATOM     22  C   LIG    1       10.664   7.223   2.211  0.00  0.00    +0.190 C 
ATOM     23  N   LIG    1        9.257   6.808   2.264  0.00  0.00    -0.690 NA
ATOM     24  H   LIG    1        8.730   7.217   1.507  0.00  0.00    +0.320 HD
ENDBRANCH  17  18
ENDBRANCH  14  17
ENDBRANCH  13  14
ENDBRANCH   1  13
TORSDOF 6
