REMARK  Name = ZINCpk00000eb0xa.1
REMARK                            x       y       z     vdW  Elec       q    Type
REMARK                         _______ _______ _______ _____ _____    ______ ____
ROOT
ATOM      1  C   LIG    1       -0.016   1.091   2.429  0.00  0.00    +0.160 C 
ATOM      2  C   LIG    1       -0.320   2.046   3.586  0.00  0.00    +0.030 C 
ATOM      3  C   LIG    1        0.166   1.401   4.889  0.00  0.00    +0.040 C 
ATOM      4  C   LIG    1       -0.701   0.176   5.182  0.00  0.00    +0.260 C 
ATOM      5  N   LIG    1       -0.776  -0.688   4.011  0.00  0.00    -0.590 N 
ATOM      6  C   LIG    1       -0.496  -0.290   2.770  0.00  0.00    +0.530 C 
ATOM      7  O   LIG    1       -0.635  -1.089   1.868  0.00  0.00    -0.530 OA
ENDROOT
BRANCH   1   8
ATOM      8  N   LIG    1       -0.700   1.560   1.217  0.00  0.00    -0.670 NA
ATOM      9  H   LIG    1       -0.784   2.565   1.214  0.00  0.00    +0.350 HD
BRANCH   8  10
ATOM     10  C   LIG    1       -0.013   1.086   0.008  0.00  0.00    +0.280 C 
BRANCH  10  16
ATOM     11  C   LIG    1       -0.597   4.554  -3.374  0.00  0.00    +0.140 C 
ATOM     12  C   LIG    1       -1.018   3.222  -2.810  0.00  0.00    +0.120 A 
ATOM     13  C   LIG    1       -2.038   2.516  -3.419  0.00  0.00    -0.010 A 
ATOM     14  C   LIG    1       -2.420   1.291  -2.895  0.00  0.00    +0.040 A 
ATOM     15  C   LIG    1       -1.752   0.816  -1.771  0.00  0.00    +0.080 A 
ATOM     16  C   LIG    1       -0.742   1.585  -1.213  0.00  0.00    +0.110 A 
ATOM     17  N   LIG    1       -0.408   2.745  -1.742  0.00  0.00    -0.470 NA
BRANCH  15  18
ATOM     18  O   LIG    1       -2.089  -0.382  -1.225  0.00  0.00    -0.480 OA
ATOM     19  H   LIG    1       -2.778  -0.327  -0.549  0.00  0.00    +0.390 HD
ENDBRANCH  15  18
ENDBRANCH  10  16
ENDBRANCH   8  10
ENDBRANCH   1   8
BRANCH   5  20
ATOM     20  C   LIG    1       -1.186  -2.081   4.210  0.00  0.00    +0.370 C 
BRANCH  20  21
ATOM     21  C   LIG    1       -2.685  -2.185   4.090  0.00  0.00    +0.160 A 
ATOM     22  C   LIG    1       -3.270  -2.529   2.882  0.00  0.00    -0.060 A 
ATOM     23  C   LIG    1       -4.652  -2.616   2.820  0.00  0.00    +0.320 A 
ATOM     24  N   LIG    1       -5.362  -2.361   3.907  0.00  0.00    -0.520 NA
ATOM     25  C   LIG    1       -4.771  -2.032   5.038  0.00  0.00    +0.310 A 
ATOM     26  C   LIG    1       -5.617  -1.749   6.252  0.00  0.00    +0.170 C 
ATOM     27  N   LIG    1       -3.460  -1.943   5.135  0.00  0.00    -0.510 NA
ENDBRANCH  20  21
ENDBRANCH   5  20
TORSDOF 6
