REMARK  Name = ZINCrH000004s05V.0
REMARK                            x       y       z     vdW  Elec       q    Type
REMARK                         _______ _______ _______ _____ _____    ______ ____
ROOT
ATOM      1  N   LIG    1        1.139   2.139   0.043  0.00  0.00    -0.340 N 
ATOM      2  N   LIG    1        0.811   3.493   0.196  0.00  0.00    -0.270 NA
ATOM      3  C   LIG    1       -0.491   3.610   0.156  0.00  0.00    +0.110 A 
ATOM      4  C   LIG    1       -1.045   2.340  -0.030  0.00  0.00    -0.080 A 
ATOM      5  C   LIG    1       -0.023   1.444  -0.092  0.00  0.00    +0.330 A 
ENDROOT
BRANCH   1  12
ATOM      6  C   LIG    1        3.097   3.369  -1.617  0.00  0.00    +0.110 C 
ATOM      7  C   LIG    1        3.417   2.168  -0.765  0.00  0.00    -0.070 A 
ATOM      8  C   LIG    1        4.691   1.636  -0.770  0.00  0.00    +0.030 A 
ATOM      9  C   LIG    1        4.984   0.530   0.007  0.00  0.00    +0.020 A 
ATOM     10  C   LIG    1        4.004  -0.043   0.796  0.00  0.00    +0.020 A 
ATOM     11  C   LIG    1        2.728   0.488   0.810  0.00  0.00    +0.000 A 
ATOM     12  C   LIG    1        2.432   1.598   0.031  0.00  0.00    +0.150 A 
ENDBRANCH   1  12
BRANCH   5  13
ATOM     13  N   LIG    1       -0.144   0.065  -0.268  0.00  0.00    -0.660 N 
ATOM     14  H   LIG    1        0.649  -0.480  -0.390  0.00  0.00    +0.410 HD
ATOM     15  C   LIG    1       -1.363  -0.510  -0.268  0.00  0.00    +0.710 C 
ATOM     16  N   LIG    1       -1.480  -1.842  -0.438  0.00  0.00    -0.740 N 
ATOM     17  H   LIG    1       -0.687  -2.386  -0.561  0.00  0.00    +0.400 HD
ATOM     18  O   LIG    1       -2.357   0.173  -0.115  0.00  0.00    -0.550 OA
BRANCH  16  19
ATOM     19  C   LIG    1       -2.805  -2.466  -0.438  0.00  0.00    +0.280 C 
BRANCH  19  20
ATOM     20  C   LIG    1       -2.657  -3.975  -0.648  0.00  0.00    -0.020 C 
ATOM     21  C   LIG    1       -1.951  -4.609   0.562  0.00  0.00    +0.020 C 
ATOM     22  C   LIG    1       -2.937  -5.631   1.163  0.00  0.00    -0.010 C 
ATOM     23  C   LIG    1       -3.876  -5.992  -0.016  0.00  0.00    +0.170 C 
ATOM     24  C   LIG    1       -4.049  -4.634  -0.742  0.00  0.00    +0.050 C 
BRANCH  23  25
ATOM     25  O   LIG    1       -5.131  -6.476   0.466  0.00  0.00    -0.560 OA
ATOM     26  H   LIG    1       -5.064  -7.283   0.994  0.00  0.00    +0.380 HD
ENDBRANCH  23  25
ENDBRANCH  19  20
ENDBRANCH  16  19
ENDBRANCH   5  13
BRANCH   3  27
ATOM     27  C   LIG    1       -1.264   4.898   0.283  0.00  0.00    +0.010 C 
ATOM     28  C   LIG    1       -2.357   4.944  -0.787  0.00  0.00    +0.040 C 
ATOM     29  C   LIG    1       -0.314   6.083   0.093  0.00  0.00    +0.040 C 
ATOM     30  C   LIG    1       -1.904   4.974   1.670  0.00  0.00    +0.040 C 
ENDBRANCH   3  27
TORSDOF 6
