REMARK  Name = ZINCpe000027pH5j.0
REMARK                            x       y       z     vdW  Elec       q    Type
REMARK                         _______ _______ _______ _____ _____    ______ ____
ROOT
ATOM      1  C   LIG    1       -4.047  -0.871   2.536  0.00  0.00    +0.290 C 
ENDROOT
BRANCH   1   7
ATOM      2  C   LIG    1       -7.747  -3.081   0.381  0.00  0.00    +0.550 C 
ATOM      3  N   LIG    1       -7.374  -2.272   1.392  0.00  0.00    -0.620 N 
ATOM      4  C   LIG    1       -8.198  -2.157   2.603  0.00  0.00    +0.310 C 
ATOM      5  C   LIG    1       -7.320  -2.439   3.826  0.00  0.00    +0.030 C 
ATOM      6  C   LIG    1       -6.105  -1.509   3.802  0.00  0.00    +0.300 C 
ATOM      7  C   LIG    1       -5.279  -1.778   2.542  0.00  0.00    -0.050 C 
ATOM      8  F   LIG    1       -6.537  -0.179   3.801  0.00  0.00    -0.190 F 
ATOM      9  F   LIG    1       -5.317  -1.743   4.935  0.00  0.00    -0.190 F 
ATOM     10  C   LIG    1       -6.134  -1.488   1.305  0.00  0.00    +0.310 C 
ATOM     11  O   LIG    1       -7.107  -3.098  -0.653  0.00  0.00    -0.540 OA
BRANCH   2  13
ATOM     12  C   LIG    1       -9.238  -4.817  -0.426  0.00  0.00    +0.160 C 
ATOM     13  C   LIG    1       -8.929  -3.944   0.528  0.00  0.00    -0.100 C 
ENDBRANCH   2  13
ENDBRANCH   1   7
BRANCH   1  14
ATOM     14  N   LIG    1       -3.196  -1.210   1.393  0.00  0.00    -0.730 N 
ATOM     15  H   LIG    1       -3.459  -1.920   0.787  0.00  0.00    +0.400 HD
ATOM     16  C   LIG    1       -2.048  -0.537   1.184  0.00  0.00    +0.500 C 
ATOM     17  O   LIG    1       -1.719   0.351   1.942  0.00  0.00    -0.500 OA
BRANCH  16  18
ATOM     18  C   LIG    1       -1.172  -0.887   0.009  0.00  0.00    +0.360 C 
BRANCH  18  19
ATOM     19  N   LIG    1        0.007  -0.018   0.003  0.00  0.00    -0.350 N 
ATOM     20  C   LIG    1        1.284  -0.430  -0.014  0.00  0.00    +0.320 A 
ATOM     21  C   LIG    1        2.083   0.700  -0.013  0.00  0.00    -0.320 A 
ATOM     22  C   LIG    1        1.219   1.820   0.004  0.00  0.00    +0.280 A 
ATOM     23  N   LIG    1       -0.009   1.381   0.013  0.00  0.00    -0.270 NA
BRANCH  21  24
ATOM     24  C   LIG    1        3.550   0.730  -0.029  0.00  0.00    +0.430 C 
ATOM     25  O   LIG    1        4.178  -0.307  -0.044  0.00  0.00    -0.480 OA
ATOM     26  C   LIG    1        4.276   2.051  -0.026  0.00  0.00    +0.080 C 
ENDBRANCH  21  24
ENDBRANCH  18  19
ENDBRANCH  16  18
ENDBRANCH   1  14
TORSDOF 6
