REMARK  Name = ZINCkj00000dDwXa.0
REMARK                            x       y       z     vdW  Elec       q    Type
REMARK                         _______ _______ _______ _____ _____    ______ ____
ROOT
ATOM      1  C   LIG    1        3.734  -0.869  -0.037  0.00  0.00    +0.090 C 
ENDROOT
BRANCH   1   2
ATOM      2  C   LIG    1        3.677  -2.375  -0.044  0.00  0.00    +0.540 C 
ATOM      3  N   LIG    1        4.818  -3.092  -0.059  0.00  0.00    -0.620 N 
ATOM      4  C   LIG    1        6.179  -2.537  -0.075  0.00  0.00    +0.280 C 
ATOM      5  C   LIG    1        7.160  -3.728  -0.112  0.00  0.00    +0.070 C 
ATOM      6  C   LIG    1        6.290  -4.873  -0.694  0.00  0.00    +0.170 C 
ATOM      7  C   LIG    1        4.908  -4.564  -0.067  0.00  0.00    +0.290 C 
ATOM      8  O   LIG    1        2.605  -2.942  -0.037  0.00  0.00    -0.520 OA
BRANCH   6   9
ATOM      9  N   LIG    1        6.786  -6.185  -0.257  0.00  0.00    -0.630 N 
ATOM     10  H   LIG    1        6.878  -6.191   0.748  0.00  0.00    +0.440 HD
ATOM     11  H   LIG    1        7.685  -6.362  -0.678  0.00  0.00    +0.440 HD
ATOM     12  H   LIG    1        6.135  -6.902  -0.539  0.00  0.00    +0.440 HD
ENDBRANCH   6   9
ENDBRANCH   1   2
BRANCH   1  13
ATOM     13  C   LIG    1        2.312  -0.306  -0.021  0.00  0.00    +0.210 C 
BRANCH  13  14
ATOM     14  O   LIG    1        2.365   1.122  -0.014  0.00  0.00    -0.310 OA
BRANCH  14  21
ATOM     15  C   LIG    1        1.155   3.176   0.008  0.00  0.00    +0.110 A 
ATOM     16  C   LIG    1       -0.057   3.846   0.023  0.00  0.00    -0.030 A 
ATOM     17  C   LIG    1       -1.242   3.133   0.031  0.00  0.00    -0.080 A 
ATOM     18  C   LIG    1       -1.219   1.751   0.017  0.00  0.00    +0.010 A 
ATOM     19  C   LIG    1       -0.013   1.076   0.008  0.00  0.00    -0.030 A 
ATOM     20  C   LIG    1       -2.560   3.863   0.047  0.00  0.00    +0.090 C 
ATOM     21  C   LIG    1        1.177   1.785   0.000  0.00  0.00    +0.090 A 
BRANCH  15  23
ATOM     22  C   LIG    1        2.221   5.302   0.009  0.00  0.00    +0.240 C 
ATOM     23  O   LIG    1        2.321   3.877   0.000  0.00  0.00    -0.310 OA
ENDBRANCH  15  23
ENDBRANCH  14  21
ENDBRANCH  13  14
ENDBRANCH   1  13
TORSDOF 6
