REMARK  Name = ZINCpk000005EUsz.0
REMARK                            x       y       z     vdW  Elec       q    Type
REMARK                         _______ _______ _______ _____ _____    ______ ____
ROOT
ATOM      1  C   LIG    1        1.823  -1.763  -0.029  0.00  0.00    +0.600 C 
ATOM      2  N   LIG    1        3.146  -1.993  -0.147  0.00  0.00    -0.590 N 
ATOM      3  C   LIG    1        4.049  -0.864  -0.147  0.00  0.00    +0.290 C 
ATOM      4  C   LIG    1        4.472  -0.537   1.307  0.00  0.00    +0.020 C 
ATOM      5  C   LIG    1        5.377  -1.576   1.821  0.00  0.00    +0.010 C 
ATOM      6  C   LIG    1        4.753  -2.965   1.913  0.00  0.00    +0.240 C 
ATOM      7  C   LIG    1        4.871  -3.656   0.576  0.00  0.00    +0.010 C 
ATOM      8  C   LIG    1        3.614  -3.388  -0.265  0.00  0.00    +0.270 C 
ATOM      9  O   LIG    1        1.046  -2.697   0.030  0.00  0.00    -0.540 OA
ENDROOT
BRANCH   1  16
ATOM     10  C   LIG    1        0.746   5.539   0.454  0.00  0.00    +0.030 C 
ATOM     11  C   LIG    1        0.455   4.047   0.628  0.00  0.00    -0.020 C 
ATOM     12  C   LIG    1       -0.733   3.651  -0.254  0.00  0.00    +0.040 C 
ATOM     13  C   LIG    1       -1.179   2.228   0.092  0.00  0.00    +0.290 C 
ATOM     14  N   LIG    1       -0.007   1.348   0.082  0.00  0.00    -0.450 N 
ATOM     15  C   LIG    1        0.007   0.001   0.018  0.00  0.00    +0.230 A 
ATOM     16  C   LIG    1        1.319  -0.380   0.027  0.00  0.00    -0.060 A 
ATOM     17  N   LIG    1        2.073   0.748   0.098  0.00  0.00    -0.450 NA
ATOM     18  C   LIG    1        1.285   1.778   0.132  0.00  0.00    +0.210 A 
ATOM     19  C   LIG    1        1.687   3.232   0.214  0.00  0.00    +0.160 C 
ENDBRANCH   1  16
BRANCH   6  20
ATOM     20  N   LIG    1        5.454  -3.750   2.932  0.00  0.00    -0.720 N 
ATOM     21  H   LIG    1        6.372  -3.537   3.162  0.00  0.00    +0.400 HD
ATOM     22  C   LIG    1        4.823  -4.768   3.550  0.00  0.00    +0.520 C 
ATOM     23  O   LIG    1        3.675  -5.034   3.263  0.00  0.00    -0.520 OA
BRANCH  22  24
ATOM     24  C   LIG    1        5.544  -5.575   4.599  0.00  0.00    +0.240 C 
BRANCH  24  25
ATOM     25  C   LIG    1        4.645  -6.619   5.118  0.00  0.00    +0.210 C 
ATOM     26  N   LIG    1        3.952  -7.425   5.519  0.00  0.00    -0.410 NA
ENDBRANCH  24  25
ENDBRANCH  22  24
ENDBRANCH   6  20
TORSDOF 4
