REMARK  Name = ZINCkj00000w3Auf.0
REMARK                            x       y       z     vdW  Elec       q    Type
REMARK                         _______ _______ _______ _____ _____    ______ ____
ROOT
ATOM      1  C   LIG    1       -2.949   4.885   1.357  0.00  0.00    +0.180 C 
ATOM      2  C   LIG    1       -3.835   3.747   1.867  0.00  0.00    +0.150 C 
ATOM      3  C   LIG    1       -4.645   4.221   3.047  0.00  0.00    -0.090 A 
ATOM      4  C   LIG    1       -5.245   3.276   3.864  0.00  0.00    +0.040 A 
ATOM      5  C   LIG    1       -5.997   3.673   4.952  0.00  0.00    +0.050 A 
ATOM      6  C   LIG    1       -6.151   5.019   5.228  0.00  0.00    +0.040 A 
ATOM      7  C   LIG    1       -5.553   5.961   4.414  0.00  0.00    +0.050 A 
ATOM      8  C   LIG    1       -4.796   5.564   3.322  0.00  0.00    -0.140 A 
ATOM      9  C   LIG    1       -4.156   6.625   2.466  0.00  0.00    +0.340 C 
ATOM     10  N   LIG    1       -3.786   6.078   1.158  0.00  0.00    -0.490 N 
ATOM     11  H   LIG    1       -4.620   5.824   0.650  0.00  0.00    +0.440 HD
ATOM     12  H   LIG    1       -3.269   6.770   0.636  0.00  0.00    +0.440 HD
ENDROOT
BRANCH   1  18
ATOM     13  C   LIG    1       -0.543   1.683  -1.159  0.00  0.00    +0.150 C 
ATOM     14  C   LIG    1        0.267   1.293   0.079  0.00  0.00    +0.010 C 
ATOM     15  C   LIG    1       -0.458   1.776   1.337  0.00  0.00    +0.030 C 
ATOM     16  C   LIG    1       -0.576   3.303   1.299  0.00  0.00    +0.270 C 
ATOM     17  N   LIG    1       -1.225   3.696   0.041  0.00  0.00    -0.580 N 
ATOM     18  C   LIG    1       -2.317   4.486   0.049  0.00  0.00    +0.510 C 
ATOM     19  O   LIG    1       -2.790   4.877  -0.998  0.00  0.00    -0.520 OA
ATOM     20  C   LIG    1       -0.662   3.209  -1.226  0.00  0.00    +0.310 C 
BRANCH  13  22
ATOM     21  C   LIG    1       -0.277  -0.110  -2.728  0.00  0.00    +0.230 C 
ATOM     22  O   LIG    1        0.119   1.205  -2.332  0.00  0.00    -0.380 OA
ENDBRANCH  13  22
ENDBRANCH   1  18
TORSDOF 2
