REMARK  Name = ZINCrD000000Amew.0
REMARK                            x       y       z     vdW  Elec       q    Type
REMARK                         _______ _______ _______ _____ _____    ______ ____
ROOT
ATOM      1  N   LIG    1       -0.110   1.460  -0.338  0.00  0.00    -0.520 NA
ATOM      2  C   LIG    1       -0.842   1.801  -1.566  0.00  0.00    +0.210 C 
ATOM      3  C   LIG    1       -0.959   3.323  -1.681  0.00  0.00    +0.220 C 
ATOM      4  N   LIG    1        0.387   3.915  -1.691  0.00  0.00    -0.450 N 
ATOM      5  C   LIG    1        1.119   3.573  -0.463  0.00  0.00    +0.240 C 
ATOM      6  C   LIG    1        1.235   2.051  -0.349  0.00  0.00    +0.200 C 
ENDROOT
BRANCH   4   7
ATOM      7  C   LIG    1        0.324   5.282  -1.865  0.00  0.00    +0.300 A 
ATOM      8  N   LIG    1        0.832   6.151  -1.059  0.00  0.00    -0.510 NA
ATOM      9  C   LIG    1        0.690   7.456  -1.367  0.00  0.00    +0.100 A 
ATOM     10  C   LIG    1        1.152   8.585  -0.660  0.00  0.00    +0.060 A 
ATOM     11  C   LIG    1        0.904   9.850  -1.131  0.00  0.00    +0.040 A 
ATOM     12  C   LIG    1        0.198  10.038  -2.309  0.00  0.00    +0.030 A 
ATOM     13  C   LIG    1       -0.262   8.950  -3.018  0.00  0.00    +0.060 A 
ATOM     14  C   LIG    1       -0.021   7.660  -2.554  0.00  0.00    -0.180 A 
ATOM     15  S   LIG    1       -0.467   6.088  -3.213  0.00  0.00    +0.070 S 
ENDBRANCH   4   7
BRANCH   1  16
ATOM     16  C   LIG    1       -0.043   0.004  -0.153  0.00  0.00    +0.230 C 
BRANCH  16  18
ATOM     17  O   LIG    1       -2.378   0.220   0.120  0.00  0.00    -0.490 OA
ATOM     18  C   LIG    1       -1.428  -0.535   0.098  0.00  0.00    +0.520 C 
ATOM     19  N   LIG    1       -1.612  -1.855   0.297  0.00  0.00    -0.670 N 
ATOM     20  H   LIG    1       -0.866  -2.468   0.204  0.00  0.00    +0.420 HD
BRANCH  19  21
ATOM     21  C   LIG    1       -2.880  -2.342   0.639  0.00  0.00    +0.170 A 
ATOM     22  C   LIG    1       -3.731  -1.574   1.421  0.00  0.00    +0.050 A 
ATOM     23  C   LIG    1       -4.984  -2.053   1.754  0.00  0.00    +0.050 A 
ATOM     24  C   LIG    1       -5.386  -3.302   1.318  0.00  0.00    +0.050 A 
ATOM     25  C   LIG    1       -4.536  -4.075   0.540  0.00  0.00    +0.090 A 
ATOM     26  F   LIG    1       -4.931  -5.295   0.115  0.00  0.00    -0.120 F 
ATOM     27  F   LIG    1       -6.609  -3.771   1.649  0.00  0.00    -0.130 F 
ATOM     28  C   LIG    1       -3.284  -3.596   0.201  0.00  0.00    -0.010 A 
ENDBRANCH  19  21
ENDBRANCH  16  18
ENDBRANCH   1  16
TORSDOF 4
