REMARK  Name = ZINCkj000005hlhR.0
REMARK                            x       y       z     vdW  Elec       q    Type
REMARK                         _______ _______ _______ _____ _____    ______ ____
ROOT
ATOM      1  N   LIG    1       -2.345   5.534  -0.168  0.00  0.00    -0.670 N 
ATOM      2  H   LIG    1       -1.495   6.001  -0.167  0.00  0.00    +0.420 HD
ATOM      3  C   LIG    1       -3.496   6.230  -0.264  0.00  0.00    +0.700 C 
ATOM      4  N   LIG    1       -3.463   7.563  -0.462  0.00  0.00    -0.740 N 
ATOM      5  H   LIG    1       -2.611   8.021  -0.535  0.00  0.00    +0.400 HD
ATOM      6  O   LIG    1       -4.563   5.655  -0.173  0.00  0.00    -0.520 OA
ENDROOT
BRANCH   4   7
ATOM      7  C   LIG    1       -4.713   8.319  -0.567  0.00  0.00    +0.270 C 
ATOM      8  C   LIG    1       -5.219   8.275  -2.011  0.00  0.00    +0.050 C 
ATOM      9  C   LIG    1       -6.481   9.132  -2.131  0.00  0.00    +0.260 C 
ATOM     10  N   LIG    1       -6.172  10.518  -1.761  0.00  0.00    -0.390 N 
ATOM     11  C   LIG    1       -5.755  10.578  -0.355  0.00  0.00    +0.270 C 
ATOM     12  C   LIG    1       -7.367  11.352  -1.952  0.00  0.00    +0.310 C 
ATOM     13  H   LIG    1       -5.426  10.862  -2.347  0.00  0.00    +0.420 HD
ATOM     14  C   LIG    1       -4.465   9.777  -0.167  0.00  0.00    +0.050 C 
ENDBRANCH   4   7
BRANCH   1  17
ATOM     15  C   LIG    1       -3.617   2.202   0.123  0.00  0.00    +0.430 A 
ATOM     16  N   LIG    1       -3.543   3.521   0.023  0.00  0.00    -0.530 NA
ATOM     17  C   LIG    1       -2.378   4.144  -0.070  0.00  0.00    +0.410 A 
ATOM     18  C   LIG    1       -1.189   3.427  -0.077  0.00  0.00    -0.140 A 
ATOM     19  C   LIG    1       -1.230   2.045   0.020  0.00  0.00    +0.140 A 
ATOM     20  C   LIG    1       -2.464   1.425   0.122  0.00  0.00    -0.120 A 
BRANCH  15  22
ATOM     21  C   LIG    1       -4.947   0.142   0.440  0.00  0.00    +0.290 C 
ATOM     22  N   LIG    1       -4.860   1.589   0.225  0.00  0.00    -0.610 N 
ATOM     23  C   LIG    1       -6.082   2.390   0.123  0.00  0.00    +0.290 C 
ENDBRANCH  15  22
ENDBRANCH   1  17
TORSDOF 3
