REMARK  Name = ZINCkj00000dDw9W.0
REMARK                            x       y       z     vdW  Elec       q    Type
REMARK                         _______ _______ _______ _____ _____    ______ ____
ROOT
ATOM      1  C   LIG    1       -2.397  -1.827  -1.140  0.00  0.00    +0.170 C 
ATOM      2  C   LIG    1       -3.808  -1.937  -0.502  0.00  0.00    +0.060 C 
ATOM      3  C   LIG    1       -4.201  -0.463  -0.271  0.00  0.00    +0.230 C 
ATOM      4  N   LIG    1       -2.957   0.320  -0.235  0.00  0.00    -0.610 N 
ATOM      5  C   LIG    1       -2.874   1.656  -0.074  0.00  0.00    +0.620 C 
ATOM      6  O   LIG    1       -3.885   2.313   0.091  0.00  0.00    -0.520 OA
ATOM      7  C   LIG    1       -1.815  -0.599  -0.397  0.00  0.00    +0.240 C 
ENDROOT
BRANCH   5   8
ATOM      8  C   LIG    1       -1.565   2.317  -0.098  0.00  0.00    -0.080 A 
ATOM      9  C   LIG    1       -1.339   3.677  -0.097  0.00  0.00    +0.070 A 
ATOM     10  C   LIG    1        0.047   3.863  -0.130  0.00  0.00    -0.060 A 
ATOM     11  C   LIG    1        0.630   2.641  -0.144  0.00  0.00    +0.220 A 
ATOM     12  N   LIG    1       -0.338   1.693  -0.122  0.00  0.00    -0.550 N 
ATOM     13  H   LIG    1       -0.191   0.734  -0.126  0.00  0.00    +0.420 HD
ENDBRANCH   5   8
BRANCH   1  15
ATOM     14  C   LIG    1       -0.575  -3.227  -1.819  0.00  0.00    +0.220 C 
ATOM     15  O   LIG    1       -1.623  -2.999  -0.876  0.00  0.00    -0.370 OA
ENDBRANCH   1  15
BRANCH   3  16
ATOM     16  C   LIG    1       -4.944  -0.322   1.059  0.00  0.00    +0.260 C 
BRANCH  16  17
ATOM     17  N   LIG    1       -6.277  -0.926   0.941  0.00  0.00    -0.390 N 
ATOM     18  C   LIG    1       -6.157  -2.377   0.645  0.00  0.00    +0.260 C 
ATOM     19  C   LIG    1       -7.523  -2.947   1.105  0.00  0.00    +0.070 C 
ATOM     20  C   LIG    1       -7.833  -2.120   2.373  0.00  0.00    +0.070 C 
ATOM     21  C   LIG    1       -6.994  -0.836   2.232  0.00  0.00    +0.250 C 
ATOM     22  H   LIG    1       -6.807  -0.465   0.217  0.00  0.00    +0.430 HD
ENDBRANCH  16  17
ENDBRANCH   3  16
TORSDOF 4
