REMARK  Name = ZINCrD000000CyAI.0
REMARK                            x       y       z     vdW  Elec       q    Type
REMARK                         _______ _______ _______ _____ _____    ______ ____
ROOT
ATOM      1  O   LIG    1        5.278   3.356  -2.479  0.00  0.00    -0.520 OA
ATOM      2  C   LIG    1        4.995   2.277  -1.996  0.00  0.00    +0.570 C 
ATOM      3  N   LIG    1        3.751   2.052  -1.529  0.00  0.00    -0.600 N 
ATOM      4  C   LIG    1        3.410   0.772  -0.894  0.00  0.00    +0.270 C 
ATOM      5  C   LIG    1        2.178   0.188  -1.594  0.00  0.00    +0.040 C 
ATOM      6  C   LIG    1        1.048   1.220  -1.575  0.00  0.00    -0.010 C 
ATOM      7  C   LIG    1        1.487   2.473  -2.336  0.00  0.00    +0.040 C 
ATOM      8  C   LIG    1        2.711   3.083  -1.644  0.00  0.00    +0.290 C 
ENDROOT
BRANCH   2   9
ATOM      9  C   LIG    1        6.016   1.212  -1.919  0.00  0.00    -0.110 A 
ATOM     10  C   LIG    1        6.011   0.314  -0.851  0.00  0.00    +0.080 A 
ATOM     11  C   LIG    1        6.962  -0.683  -0.784  0.00  0.00    -0.030 A 
ATOM     12  C   LIG    1        7.932  -0.790  -1.772  0.00  0.00    +0.070 A 
ATOM     13  O   LIG    1        8.965  -1.667  -1.930  0.00  0.00    -0.290 OA
ATOM     14  C   LIG    1        9.360  -1.553  -3.309  0.00  0.00    +0.440 C 
ATOM     15  O   LIG    1        8.987  -0.208  -3.663  0.00  0.00    -0.300 OA
ATOM     16  C   LIG    1        7.945   0.109  -2.839  0.00  0.00    +0.040 A 
ATOM     17 CL   LIG    1        6.949  -1.804   0.541  0.00  0.00    -0.040 Cl
ATOM     18  C   LIG    1        6.992   1.106  -2.914  0.00  0.00    +0.110 A 
ENDBRANCH   2   9
BRANCH   6  19
ATOM     19  C   LIG    1       -0.176   0.637  -2.232  0.00  0.00    +0.510 C 
ATOM     20  N   LIG    1       -1.386   1.189  -2.014  0.00  0.00    -0.600 N 
ATOM     21  C   LIG    1       -2.553   0.542  -2.569  0.00  0.00    +0.270 C 
ATOM     22  C   LIG    1       -2.824   1.078  -3.991  0.00  0.00    +0.010 C 
ATOM     23  C   LIG    1       -3.319   2.462  -3.929  0.00  0.00    +0.000 C 
ATOM     24  C   LIG    1       -2.329   3.457  -3.331  0.00  0.00    +0.010 C 
ATOM     25  C   LIG    1       -2.454   3.445  -1.827  0.00  0.00    +0.020 C 
ATOM     26  C   LIG    1       -1.463   2.433  -1.223  0.00  0.00    +0.260 C 
ATOM     27  O   LIG    1       -0.072  -0.327  -2.961  0.00  0.00    -0.530 OA
ENDBRANCH   6  19
TORSDOF 2
