REMARK  Name = ZINCpe000000T6vY.0
REMARK                            x       y       z     vdW  Elec       q    Type
REMARK                         _______ _______ _______ _____ _____    ______ ____
ROOT
ATOM      1  C   LIG    1       -0.023   2.184   2.204  0.00  0.00    +0.600 C 
ATOM      2  N   LIG    1       -0.676   1.854   1.073  0.00  0.00    -0.600 N 
ATOM      3  C   LIG    1        0.043   1.252  -0.058  0.00  0.00    +0.310 C 
ATOM      4  C   LIG    1       -0.235   2.076  -1.319  0.00  0.00    +0.030 C 
ATOM      5  C   LIG    1       -1.747   2.189  -1.527  0.00  0.00    +0.240 C 
ATOM      6  C   LIG    1       -2.376   2.907  -0.332  0.00  0.00    +0.030 C 
ATOM      7  C   LIG    1       -2.123   2.092   0.940  0.00  0.00    +0.290 C 
ATOM      8  O   LIG    1        1.174   1.989   2.295  0.00  0.00    -0.530 OA
ENDROOT
BRANCH   1  13
ATOM      9  N   LIG    1       -0.249   3.594   4.304  0.00  0.00    -0.250 N 
ATOM     10  N   LIG    1       -1.183   3.923   5.122  0.00  0.00    -0.270 NA
ATOM     11  C   LIG    1       -2.322   3.382   4.774  0.00  0.00    +0.190 A 
ATOM     12  C   LIG    1       -2.105   2.634   3.615  0.00  0.00    -0.030 A 
ATOM     13  C   LIG    1       -0.758   2.780   3.331  0.00  0.00    -0.040 A 
BRANCH   9  15
ATOM     14  C   LIG    1        1.206   5.551   4.490  0.00  0.00    +0.050 C 
ATOM     15  C   LIG    1        1.148   4.024   4.398  0.00  0.00    +0.250 C 
ATOM     16  C   LIG    1        1.786   3.414   5.648  0.00  0.00    +0.050 C 
ENDBRANCH   9  15
ENDBRANCH   1  13
BRANCH   5  17
ATOM     17  N   LIG    1       -2.016   2.949  -2.750  0.00  0.00    -0.480 N 
ATOM     18  C   LIG    1       -1.637   4.236  -2.998  0.00  0.00    +0.390 A 
ATOM     19  N   LIG    1       -2.041   4.587  -4.182  0.00  0.00    -0.430 NA
ATOM     20  C   LIG    1       -2.708   3.547  -4.754  0.00  0.00    -0.160 A 
ATOM     21  C   LIG    1       -2.695   2.500  -3.844  0.00  0.00    +0.370 A 
BRANCH  20  22
ATOM     22  C   LIG    1       -3.326   3.537  -6.082  0.00  0.00    +0.620 C 
ATOM     23  O   LIG    1       -3.897   2.538  -6.480  0.00  0.00    -0.570 OA
ATOM     24  N   LIG    1       -3.261   4.633  -6.864  0.00  0.00    -0.840 N 
ATOM     25  H   LIG    1       -3.670   4.626  -7.743  0.00  0.00    +0.400 HD
ATOM     26  H   LIG    1       -2.806   5.429  -6.547  0.00  0.00    +0.410 HD
ENDBRANCH  20  22
BRANCH  21  27
ATOM     27  N   LIG    1       -3.258   1.251  -4.013  0.00  0.00    -0.830 N 
ATOM     28  H   LIG    1       -3.722   1.035  -4.837  0.00  0.00    +0.430 HD
ATOM     29  H   LIG    1       -3.189   0.589  -3.307  0.00  0.00    +0.400 HD
ENDBRANCH  21  27
ENDBRANCH   5  17
TORSDOF 5
