REMARK  Name = ZINCpk00000e9DLg.0
REMARK                            x       y       z     vdW  Elec       q    Type
REMARK                         _______ _______ _______ _____ _____    ______ ____
ROOT
ATOM      1  C   LIG    1       -3.849   3.800   2.373  0.00  0.00    +0.190 A 
ATOM      2  N   LIG    1       -3.438   5.027   2.183  0.00  0.00    -0.290 NA
ATOM      3  N   LIG    1       -2.483   5.037   1.318  0.00  0.00    -0.270 NA
ATOM      4  C   LIG    1       -2.247   3.825   0.921  0.00  0.00    +0.150 A 
ATOM      5  C   LIG    1       -1.229   3.342  -0.084  0.00  0.00    +0.430 C 
ATOM      6  N   LIG    1       -1.188   1.871   0.018  0.00  0.00    -0.620 N 
ATOM      7  C   LIG    1       -2.464   1.148   0.124  0.00  0.00    +0.310 C 
ATOM      8  C   LIG    1       -3.160   1.551   1.435  0.00  0.00    +0.300 C 
ATOM      9  C   LIG    1       -0.014   1.209   0.009  0.00  0.00    +0.540 C 
ATOM     10  O   LIG    1       -0.003  -0.004   0.003  0.00  0.00    -0.520 OA
ATOM     11  N   LIG    1       -3.102   3.004   1.582  0.00  0.00    -0.470 N 
ENDROOT
BRANCH   9  12
ATOM     12  C   LIG    1        1.283   1.975  -0.001  0.00  0.00    -0.040 C 
ATOM     13  C   LIG    1        1.679   2.339   1.436  0.00  0.00    +0.270 C 
ATOM     14  O   LIG    1        2.853   3.151   1.387  0.00  0.00    -0.300 OA
ATOM     15  C   LIG    1        3.894   2.718   0.628  0.00  0.00    +0.170 A 
ATOM     16  C   LIG    1        5.148   3.279   0.842  0.00  0.00    -0.040 A 
ATOM     17  C   LIG    1        6.232   2.867   0.086  0.00  0.00    +0.160 A 
ATOM     18  C   LIG    1        6.065   1.893  -0.888  0.00  0.00    -0.100 A 
ATOM     19  C   LIG    1        4.819   1.337  -1.099  0.00  0.00    +0.090 A 
ATOM     20  C   LIG    1        3.733   1.744  -0.343  0.00  0.00    -0.190 A 
ATOM     21  C   LIG    1        2.392   1.104  -0.598  0.00  0.00    +0.120 C 
BRANCH  17  22
ATOM     22  O   LIG    1        7.458   3.416   0.297  0.00  0.00    -0.310 OA
ATOM     23  C   LIG    1        8.530   2.942  -0.520  0.00  0.00    +0.250 C 
ENDBRANCH  17  22
ENDBRANCH   9  12
BRANCH   1  25
ATOM     24  C   LIG    1       -4.362   3.053   4.682  0.00  0.00    +0.040 C 
ATOM     25  C   LIG    1       -4.950   3.358   3.303  0.00  0.00    +0.140 C 
ENDBRANCH   1  25
TORSDOF 3
