REMARK  Name = ZINCrD000000CAxt.0
REMARK                            x       y       z     vdW  Elec       q    Type
REMARK                         _______ _______ _______ _____ _____    ______ ____
ROOT
ATOM      1  O   LIG    1        1.113   2.168  -2.150  0.00  0.00    -0.530 OA
ATOM      2  C   LIG    1       -0.099   2.256  -2.150  0.00  0.00    +0.570 C 
ATOM      3  N   LIG    1       -0.793   2.012  -1.020  0.00  0.00    -0.610 N 
ATOM      4  C   LIG    1       -0.114   1.510   0.182  0.00  0.00    +0.280 C 
ATOM      5  C   LIG    1       -0.445   2.432   1.360  0.00  0.00    +0.040 C 
ATOM      6  C   LIG    1       -1.968   2.546   1.496  0.00  0.00    -0.010 C 
ATOM      7  C   LIG    1       -2.554   3.158   0.222  0.00  0.00    +0.040 C 
ATOM      8  C   LIG    1       -2.243   2.244  -0.968  0.00  0.00    +0.270 C 
ENDROOT
BRANCH   6   9
ATOM      9  C   LIG    1       -2.301   3.425   2.674  0.00  0.00    +0.520 C 
ATOM     10  N   LIG    1       -2.364   2.898   3.913  0.00  0.00    -0.610 N 
ATOM     11  C   LIG    1       -2.011   1.491   4.146  0.00  0.00    +0.260 C 
ATOM     12  C   LIG    1       -0.949   1.431   5.254  0.00  0.00    +0.010 C 
ATOM     13  C   LIG    1       -1.471   2.161   6.494  0.00  0.00    +0.020 C 
ATOM     14  C   LIG    1       -1.727   3.631   6.152  0.00  0.00    +0.010 C 
ATOM     15  C   LIG    1       -2.793   3.717   5.054  0.00  0.00    +0.270 C 
ATOM     16  O   LIG    1       -2.511   4.608   2.507  0.00  0.00    -0.540 OA
ENDBRANCH   6   9
BRANCH   2  17
ATOM     17  C   LIG    1       -0.812   2.631  -3.388  0.00  0.00    -0.150 A 
ATOM     18  C   LIG    1       -2.118   2.186  -3.605  0.00  0.00    +0.080 A 
ATOM     19  C   LIG    1       -2.782   2.541  -4.758  0.00  0.00    -0.010 A 
ATOM     20  C   LIG    1       -2.149   3.333  -5.711  0.00  0.00    +0.170 A 
ATOM     21  C   LIG    1       -0.847   3.773  -5.500  0.00  0.00    -0.010 A 
ATOM     22  C   LIG    1       -0.179   3.426  -4.346  0.00  0.00    +0.110 A 
BRANCH  20  23
ATOM     23  N   LIG    1       -2.824   3.688  -6.883  0.00  0.00    -0.400 N 
ATOM     24  C   LIG    1       -2.320   4.462  -7.889  0.00  0.00    +0.150 A 
ATOM     25  C   LIG    1       -3.264   4.577  -8.845  0.00  0.00    -0.040 A 
ATOM     26  C   LIG    1       -4.395   3.856  -8.412  0.00  0.00    -0.040 A 
ATOM     27  C   LIG    1       -4.099   3.322  -7.209  0.00  0.00    +0.150 A 
ENDBRANCH  20  23
ENDBRANCH   2  17
TORSDOF 3
