REMARK  Name = ZINCrH000004jKHp.0
REMARK                            x       y       z     vdW  Elec       q    Type
REMARK                         _______ _______ _______ _____ _____    ______ ____
ROOT
ATOM      1  N   LIG    1        2.020   0.846  -0.304  0.00  0.00    -0.690 N 
ATOM      2  H   LIG    1        2.917   1.212  -0.363  0.00  0.00    +0.410 HD
ATOM      3  C   LIG    1        1.837  -0.489  -0.278  0.00  0.00    +0.710 C 
ATOM      4  N   LIG    1        2.887  -1.316  -0.450  0.00  0.00    -0.730 N 
ATOM      5  H   LIG    1        3.774  -0.951  -0.592  0.00  0.00    +0.400 HD
ATOM      6  O   LIG    1        0.725  -0.947  -0.099  0.00  0.00    -0.570 OA
ENDROOT
BRANCH   1  10
ATOM      7  C   LIG    1       -1.269   3.406  -0.129  0.00  0.00    +0.200 A 
ATOM      8  C   LIG    1       -1.371   2.188  -0.787  0.00  0.00    -0.010 A 
ATOM      9  C   LIG    1       -0.284   1.338  -0.841  0.00  0.00    +0.080 A 
ATOM     10  C   LIG    1        0.915   1.707  -0.245  0.00  0.00    +0.160 A 
ATOM     11  C   LIG    1        1.019   2.927   0.409  0.00  0.00    -0.160 A 
ATOM     12  C   LIG    1       -0.069   3.774   0.467  0.00  0.00    +0.000 A 
BRANCH  11  13
ATOM     13  C   LIG    1        2.321   3.327   1.055  0.00  0.00    +0.510 C 
ATOM     14  F   LIG    1        3.327   3.377   0.084  0.00  0.00    -0.180 F 
ATOM     15  F   LIG    1        2.663   2.389   2.034  0.00  0.00    -0.170 F 
ATOM     16  F   LIG    1        2.180   4.587   1.646  0.00  0.00    -0.170 F 
ENDBRANCH  11  13
BRANCH   7  18
ATOM     17  C   LIG    1       -2.230   5.601   0.513  0.00  0.00    +0.280 C 
ATOM     18  N   LIG    1       -2.372   4.264  -0.070  0.00  0.00    -0.640 N 
ATOM     19  C   LIG    1       -3.669   3.827  -0.593  0.00  0.00    +0.290 C 
ENDBRANCH   7  18
ENDBRANCH   1  10
BRANCH   4  20
ATOM     20  C   LIG    1        2.688  -2.768  -0.422  0.00  0.00    +0.270 C 
BRANCH  20  21
ATOM     21  C   LIG    1        4.029  -3.471  -0.641  0.00  0.00    +0.260 C 
BRANCH  21  22
ATOM     22  C   LIG    1        3.807  -4.958  -0.735  0.00  0.00    -0.160 A 
ATOM     23  C   LIG    1        3.950  -5.750   0.388  0.00  0.00    +0.050 A 
ATOM     24  C   LIG    1        3.747  -7.115   0.302  0.00  0.00    +0.010 A 
ATOM     25  C   LIG    1        3.401  -7.689  -0.907  0.00  0.00    +0.050 A 
ATOM     26  C   LIG    1        3.257  -6.898  -2.031  0.00  0.00    -0.010 A 
ATOM     27  C   LIG    1        3.454  -5.531  -1.945  0.00  0.00    +0.110 A 
ATOM     28  F   LIG    1        3.308  -4.756  -3.042  0.00  0.00    -0.130 F 
ENDBRANCH  21  22
BRANCH  21  29
ATOM     29  O   LIG    1        4.900  -3.187   0.456  0.00  0.00    -0.550 OA
ATOM     30  H   LIG    1        4.561  -3.480   1.313  0.00  0.00    +0.380 HD
ENDBRANCH  21  29
ENDBRANCH  20  21
ENDBRANCH   4  20
TORSDOF 7
