REMARK  Name = ZINCpk00000ebAEi.0
REMARK                            x       y       z     vdW  Elec       q    Type
REMARK                         _______ _______ _______ _____ _____    ______ ____
ROOT
ATOM      1  O   LIG    1        3.621   2.388   1.402  0.00  0.00    -0.570 OA
ATOM      2  C   LIG    1        3.021   1.649   0.646  0.00  0.00    +0.710 C 
ATOM      3  N   LIG    1        3.521   1.388  -0.579  0.00  0.00    -0.570 N 
ATOM      4  C   LIG    1        4.861   1.764  -1.037  0.00  0.00    +0.280 C 
ATOM      5  C   LIG    1        4.952   1.249  -2.482  0.00  0.00    +0.090 C 
ATOM      6  C   LIG    1        3.609   0.606  -2.743  0.00  0.00    -0.140 A 
ATOM      7  C   LIG    1        3.108  -0.022  -3.867  0.00  0.00    +0.060 A 
ATOM      8  C   LIG    1        1.825  -0.539  -3.860  0.00  0.00    -0.020 A 
ATOM      9  C   LIG    1        1.045  -0.427  -2.724  0.00  0.00    +0.050 A 
ATOM     10  C   LIG    1        1.541   0.198  -1.600  0.00  0.00    -0.030 A 
ATOM     11  C   LIG    1        2.834   0.724  -1.600  0.00  0.00    +0.150 A 
ATOM     12  N   LIG    1        1.857   1.090   1.032  0.00  0.00    -0.740 N 
ATOM     13  H   LIG    1        1.431   0.422   0.472  0.00  0.00    +0.410 HD
ENDROOT
BRANCH  12  14
ATOM     14  C   LIG    1        1.236   1.492   2.296  0.00  0.00    +0.290 C 
BRANCH  14  15
ATOM     15  C   LIG    1       -0.126   0.808   2.435  0.00  0.00    +0.180 C 
BRANCH  15  16
ATOM     16  N   LIG    1       -0.959   1.134   1.269  0.00  0.00    -0.530 NA
ATOM     17  C   LIG    1       -0.921   2.575   0.981  0.00  0.00    +0.140 C 
ATOM     18  C   LIG    1       -1.752   2.862  -0.273  0.00  0.00    +0.220 C 
ATOM     19  O   LIG    1       -3.085   2.384  -0.075  0.00  0.00    -0.380 OA
ATOM     20  C   LIG    1       -3.158   0.984   0.205  0.00  0.00    +0.220 C 
ATOM     21  C   LIG    1       -2.342   0.677   1.464  0.00  0.00    +0.150 C 
ENDBRANCH  15  16
BRANCH  15  22
ATOM     22  C   LIG    1       -0.817   1.300   3.708  0.00  0.00    -0.050 C 
ATOM     23  C   LIG    1        0.017   0.928   4.955  0.00  0.00    +0.010 C 
ATOM     24  C   LIG    1        0.374   2.291   5.588  0.00  0.00    +0.190 C 
ATOM     25  O   LIG    1       -0.650   3.196   5.120  0.00  0.00    -0.370 OA
ATOM     26  C   LIG    1       -0.868   2.844   3.734  0.00  0.00    +0.200 C 
ENDBRANCH  15  22
ENDBRANCH  14  15
ENDBRANCH  12  14
TORSDOF 4
