REMARK  Name = ZINCpk00000ebfgs.0
REMARK                            x       y       z     vdW  Elec       q    Type
REMARK                         _______ _______ _______ _____ _____    ______ ____
ROOT
ATOM      1  N   LIG    1       -0.723   1.572  -1.182  0.00  0.00    -0.560 NA
ATOM      2  C   LIG    1       -0.333   0.817  -2.371  0.00  0.00    +0.180 C 
ATOM      3  C   LIG    1       -1.534   0.668  -3.280  0.00  0.00    +0.030 C 
ATOM      4  C   LIG    1       -1.556   1.820  -4.298  0.00  0.00    +0.240 C 
ATOM      5  N   LIG    1       -1.166   3.098  -3.671  0.00  0.00    -0.600 N 
ATOM      6  C   LIG    1       -1.629   3.494  -2.357  0.00  0.00    +0.300 C 
ATOM      7  C   LIG    1       -0.347   3.929  -4.347  0.00  0.00    +0.510 C 
ATOM      8  O   LIG    1       -0.012   4.985  -3.853  0.00  0.00    -0.510 OA
ATOM      9  C   LIG    1       -0.643   2.981  -1.280  0.00  0.00    +0.180 C 
ENDROOT
BRANCH   7  10
ATOM     10  C   LIG    1        0.152   3.545  -5.716  0.00  0.00    +0.170 C 
ATOM     11  C   LIG    1        1.164   2.378  -5.624  0.00  0.00    +0.090 C 
ATOM     12  C   LIG    1        2.155   2.736  -6.714  0.00  0.00    -0.180 A 
ATOM     13  C   LIG    1        3.129   2.003  -7.354  0.00  0.00    +0.060 A 
ATOM     14  C   LIG    1        3.894   2.589  -8.348  0.00  0.00    -0.020 A 
ATOM     15  C   LIG    1        3.676   3.910  -8.694  0.00  0.00    +0.050 A 
ATOM     16  C   LIG    1        2.703   4.647  -8.050  0.00  0.00    +0.000 A 
ATOM     17  C   LIG    1        1.932   4.067  -7.046  0.00  0.00    +0.110 A 
ATOM     18  O   LIG    1        0.939   4.605  -6.286  0.00  0.00    -0.270 OA
ENDBRANCH   7  10
BRANCH   1  19
ATOM     19  C   LIG    1       -0.013   1.086   0.008  0.00  0.00    +0.260 C 
BRANCH  19  23
ATOM     20  C   LIG    1       -3.111   1.369   3.938  0.00  0.00    +0.360 C 
ATOM     21  N   LIG    1       -2.070   1.689   2.958  0.00  0.00    -0.380 N 
ATOM     22  C   LIG    1       -1.710   0.927   1.904  0.00  0.00    +0.250 A 
ATOM     23  C   LIG    1       -0.718   1.572   1.248  0.00  0.00    -0.240 A 
ATOM     24  C   LIG    1       -0.459   2.767   1.927  0.00  0.00    +0.230 A 
ATOM     25  N   LIG    1       -1.273   2.841   2.949  0.00  0.00    -0.300 NA
ENDBRANCH  19  23
ENDBRANCH   1  19
TORSDOF 3
