REMARK  Name = ZINCkj000005jQaj.0
REMARK                            x       y       z     vdW  Elec       q    Type
REMARK                         _______ _______ _______ _____ _____    ______ ____
ROOT
ATOM      1  C   LIG    1       -0.416   1.766  -0.585  0.00  0.00    +0.040 C 
ATOM      2  C   LIG    1       -1.016   0.407  -0.948  0.00  0.00    -0.040 C 
ATOM      3  C   LIG    1       -0.808  -0.570   0.211  0.00  0.00    +0.040 C 
ATOM      4  C   LIG    1       -1.466  -0.011   1.475  0.00  0.00    +0.020 C 
ATOM      5  C   LIG    1       -2.972   0.142   1.237  0.00  0.00    +0.280 C 
ATOM      6  N   LIG    1       -3.179   0.963   0.035  0.00  0.00    -0.600 N 
ATOM      7  C   LIG    1       -3.961   2.059   0.079  0.00  0.00    +0.590 C 
ATOM      8  O   LIG    1       -4.214   2.667  -0.943  0.00  0.00    -0.550 OA
ATOM      9  C   LIG    1       -2.516   0.565  -1.214  0.00  0.00    +0.230 C 
ENDROOT
BRANCH   7  10
ATOM     10  C   LIG    1       -4.511   2.522   1.368  0.00  0.00    -0.280 A 
ATOM     11  C   LIG    1       -5.774   3.131   1.425  0.00  0.00    +0.170 A 
ATOM     12  C   LIG    1       -6.247   3.540   2.642  0.00  0.00    -0.100 A 
ATOM     13  C   LIG    1       -5.463   3.352   3.779  0.00  0.00    +0.430 A 
ATOM     14  N   LIG    1       -4.271   2.778   3.697  0.00  0.00    -0.540 NA
ATOM     15  C   LIG    1       -3.781   2.365   2.547  0.00  0.00    +0.350 A 
BRANCH  13  16
ATOM     16  N   LIG    1       -5.936   3.770   5.011  0.00  0.00    -0.600 N 
ATOM     17  C   LIG    1       -5.078   3.677   6.195  0.00  0.00    +0.310 C 
ATOM     18  C   LIG    1       -7.295   4.304   5.132  0.00  0.00    +0.300 C 
ENDBRANCH  13  16
ENDBRANCH   7  10
BRANCH   9  19
ATOM     19  C   LIG    1       -2.738   1.640  -2.280  0.00  0.00    +0.300 C 
BRANCH  19  20
ATOM     20  N   LIG    1       -2.025   1.266  -3.509  0.00  0.00    -0.640 N 
ATOM     21  H   LIG    1       -2.314   0.344  -3.798  0.00  0.00    +0.430 HD
ATOM     22  H   LIG    1       -1.031   1.268  -3.335  0.00  0.00    +0.430 HD
ATOM     23  H   LIG    1       -2.240   1.929  -4.238  0.00  0.00    +0.440 HD
ENDBRANCH  19  20
ENDBRANCH   9  19
TORSDOF 4
