REMARK  Name = ZINCrH000004mwQs.0
REMARK                            x       y       z     vdW  Elec       q    Type
REMARK                         _______ _______ _______ _____ _____    ______ ____
ROOT
ATOM      1  C   LIG    1       -1.382  -0.852  -0.094  0.00  0.00    +0.230 C 
ENDROOT
BRANCH   1   2
ATOM      2  N   LIG    1       -1.278  -2.142   0.602  0.00  0.00    -0.500 NA
ATOM      3  C   LIG    1       -0.193  -2.958   0.039  0.00  0.00    +0.170 C 
ATOM      4  C   LIG    1       -0.081  -4.264   0.831  0.00  0.00    +0.160 C 
ATOM      5  O   LIG    1       -1.340  -4.942   0.803  0.00  0.00    -0.380 OA
ATOM      6  C   LIG    1       -2.419  -4.176   1.344  0.00  0.00    +0.160 C 
ATOM      7  C   LIG    1       -3.719  -4.975   1.236  0.00  0.00    +0.060 C 
ATOM      8  C   LIG    1        0.993  -5.154   0.201  0.00  0.00    +0.060 C 
ATOM      9  C   LIG    1       -2.554  -2.869   0.558  0.00  0.00    +0.170 C 
ENDBRANCH   1   2
BRANCH   1  10
ATOM     10  C   LIG    1       -0.084  -0.100   0.045  0.00  0.00    -0.080 A 
ATOM     11  C   LIG    1        0.963  -0.362  -0.820  0.00  0.00    +0.010 A 
ATOM     12  C   LIG    1        2.153   0.329  -0.694  0.00  0.00    +0.000 A 
ATOM     13  C   LIG    1        2.299   1.279   0.299  0.00  0.00    +0.010 A 
ATOM     14  C   LIG    1        1.252   1.542   1.164  0.00  0.00    +0.010 A 
ATOM     15  C   LIG    1        0.061   0.852   1.036  0.00  0.00    +0.040 A 
ENDBRANCH   1  10
BRANCH   1  18
ATOM     16  N   LIG    1       -1.808  -0.047  -2.393  0.00  0.00    -0.650 N 
ATOM     17  H   LIG    1       -1.646   0.855  -2.076  0.00  0.00    +0.420 HD
ATOM     18  C   LIG    1       -1.671  -1.092  -1.554  0.00  0.00    +0.490 C 
ATOM     19  O   LIG    1       -1.779  -2.225  -1.973  0.00  0.00    -0.510 OA
BRANCH  16  26
ATOM     20  C   LIG    1       -1.865   0.675  -4.704  0.00  0.00    +0.090 A 
ATOM     21  C   LIG    1       -2.238   0.453  -6.020  0.00  0.00    -0.050 A 
ATOM     22  C   LIG    1       -2.936  -0.692  -6.357  0.00  0.00    +0.030 A 
ATOM     23  C   LIG    1       -3.260  -1.620  -5.386  0.00  0.00    -0.100 A 
ATOM     24  C   LIG    1       -2.888  -1.409  -4.071  0.00  0.00    +0.050 A 
ATOM     25  C   LIG    1       -4.021  -2.866  -5.760  0.00  0.00    +0.100 C 
ATOM     26  C   LIG    1       -2.187  -0.263  -3.725  0.00  0.00    +0.120 A 
BRANCH  20  28
ATOM     27  C   LIG    1       -0.888   2.719  -5.425  0.00  0.00    +0.250 C 
ATOM     28  O   LIG    1       -1.183   1.802  -4.370  0.00  0.00    -0.320 OA
ENDBRANCH  20  28
ENDBRANCH  16  26
ENDBRANCH   1  18
TORSDOF 5
