REMARK  Name = ZINCqH0000051pv1.0
REMARK                            x       y       z     vdW  Elec       q    Type
REMARK                         _______ _______ _______ _____ _____    ______ ____
ROOT
ATOM      1  O   LIG    1        5.613  -0.684  -3.730  0.00  0.00    -0.530 OA
ATOM      2  C   LIG    1        5.886  -1.600  -2.979  0.00  0.00    +0.570 C 
ATOM      3  N   LIG    1        5.450  -1.579  -1.704  0.00  0.00    -0.700 N 
ATOM      4  H   LIG    1        5.669  -2.310  -1.104  0.00  0.00    +0.400 HD
ENDROOT
BRANCH   2   5
ATOM      5  C   LIG    1        6.696  -2.736  -3.463  0.00  0.00    -0.140 A 
ATOM      6  C   LIG    1        7.011  -3.789  -2.602  0.00  0.00    +0.060 A 
ATOM      7  C   LIG    1        7.768  -4.847  -3.057  0.00  0.00    +0.020 A 
ATOM      8  C   LIG    1        8.220  -4.871  -4.371  0.00  0.00    +0.080 A 
ATOM      9  O   LIG    1        8.971  -5.921  -4.796  0.00  0.00    -0.300 OA
ATOM     10  C   LIG    1        9.091  -6.096  -6.212  0.00  0.00    +0.230 C 
ATOM     11  C   LIG    1        9.409  -4.733  -6.840  0.00  0.00    +0.230 C 
ATOM     12  O   LIG    1        8.338  -3.836  -6.527  0.00  0.00    -0.300 OA
ATOM     13  C   LIG    1        7.907  -3.824  -5.236  0.00  0.00    +0.040 A 
ATOM     14  C   LIG    1        7.144  -2.762  -4.787  0.00  0.00    +0.100 A 
ENDBRANCH   2   5
BRANCH   3  15
ATOM     15  C   LIG    1        4.647  -0.453  -1.223  0.00  0.00    +0.240 C 
ATOM     16  C   LIG    1        4.985   0.118   0.156  0.00  0.00    +0.040 C 
ATOM     17  C   LIG    1        3.711  -0.707  -0.039  0.00  0.00    -0.010 C 
BRANCH  17  18
ATOM     18  C   LIG    1        2.396   0.029  -0.022  0.00  0.00    -0.050 A 
ATOM     19  C   LIG    1        2.377   1.411  -0.014  0.00  0.00    +0.050 A 
ATOM     20  C   LIG    1        1.171   2.086   0.002  0.00  0.00    +0.030 A 
ATOM     21  C   LIG    1       -0.017   1.378   0.010  0.00  0.00    +0.060 A 
ATOM     22  C   LIG    1        0.002  -0.004   0.002  0.00  0.00    -0.180 A 
ATOM     23  C   LIG    1        1.208  -0.679  -0.014  0.00  0.00    +0.070 A 
BRANCH  22  24
ATOM     24  C   LIG    1       -1.293  -0.775   0.010  0.00  0.00    +0.510 C 
ATOM     25  F   LIG    1       -1.345  -1.587   1.149  0.00  0.00    -0.180 F 
ATOM     26  F   LIG    1       -1.367  -1.574  -1.136  0.00  0.00    -0.180 F 
ATOM     27  F   LIG    1       -2.368   0.119   0.025  0.00  0.00    -0.180 F 
ENDBRANCH  22  24
ENDBRANCH  17  18
ENDBRANCH   3  15
TORSDOF 4
