REMARK  Name = ZINCqH0000005D63.0
REMARK                            x       y       z     vdW  Elec       q    Type
REMARK                         _______ _______ _______ _____ _____    ______ ____
ROOT
ATOM      1  C   LIG    1       -0.592   2.586  -1.915  0.00  0.00    +0.150 A 
ATOM      2  N   LIG    1       -1.188   2.382  -3.069  0.00  0.00    -0.280 NA
ATOM      3  N   LIG    1       -1.731   1.218  -3.085  0.00  0.00    -0.250 NA
ATOM      4  C   LIG    1       -1.512   0.605  -1.945  0.00  0.00    +0.230 A 
ATOM      5  N   LIG    1       -0.781   1.464  -1.158  0.00  0.00    -0.450 N 
ENDROOT
BRANCH   4   6
ATOM      6  C   LIG    1       -1.968  -0.752  -1.575  0.00  0.00    -0.050 A 
ATOM      7  C   LIG    1       -1.072  -1.666  -1.021  0.00  0.00    +0.060 A 
ATOM      8  C   LIG    1       -1.505  -2.929  -0.672  0.00  0.00    +0.010 A 
ATOM      9  C   LIG    1       -2.823  -3.295  -0.882  0.00  0.00    +0.070 A 
ATOM     10  C   LIG    1       -3.717  -2.397  -1.436  0.00  0.00    +0.000 A 
ATOM     11  C   LIG    1       -3.299  -1.127  -1.784  0.00  0.00    +0.140 A 
ATOM     12  F   LIG    1       -4.173  -0.251  -2.326  0.00  0.00    -0.120 F 
ENDBRANCH   4   6
BRANCH   1  13
ATOM     13  S   LIG    1        0.284   4.036  -1.433  0.00  0.00    +0.070 S 
BRANCH  13  14
ATOM     14  C   LIG    1        0.093   5.032  -2.932  0.00  0.00    +0.050 C 
ATOM     15  C   LIG    1        0.824   4.353  -4.092  0.00  0.00    +0.100 C 
BRANCH  14  16
ATOM     16  C   LIG    1        0.676   6.402  -2.703  0.00  0.00    +0.490 C 
ATOM     17  O   LIG    1        1.540   6.560  -1.873  0.00  0.00    -0.490 OA
BRANCH  16  19
ATOM     18  C   LIG    1        0.845   8.738  -3.148  0.00  0.00    +0.280 C 
ATOM     19  O   LIG    1        0.238   7.447  -3.422  0.00  0.00    -0.350 OA
ENDBRANCH  16  19
ENDBRANCH  14  16
ENDBRANCH  13  14
ENDBRANCH   1  13
BRANCH   5  20
ATOM     20  C   LIG    1       -0.299   1.224   0.204  0.00  0.00    +0.360 C 
BRANCH  20  21
ATOM     21  C   LIG    1       -1.346   1.668   1.193  0.00  0.00    -0.130 A 
ATOM     22  C   LIG    1       -1.351   2.970   1.657  0.00  0.00    +0.040 A 
ATOM     23  C   LIG    1       -2.314   3.379   2.560  0.00  0.00    +0.010 A 
ATOM     24  C   LIG    1       -3.267   2.482   3.007  0.00  0.00    +0.030 A 
ATOM     25  C   LIG    1       -3.259   1.179   2.547  0.00  0.00    +0.010 A 
ATOM     26  C   LIG    1       -2.299   0.772   1.640  0.00  0.00    +0.030 A 
ENDBRANCH  20  21
ENDBRANCH   5  20
TORSDOF 7
