REMARK  Name = ZINCrH00000tj11E.0
REMARK                            x       y       z     vdW  Elec       q    Type
REMARK                         _______ _______ _______ _____ _____    ______ ____
ROOT
ATOM      1  N   LIG    1        2.123   3.436  -0.005  0.00  0.00    -0.520 N 
ATOM      2  C   LIG    1        3.443   3.737  -0.012  0.00  0.00    +0.560 A 
ATOM      3  C   LIG    1        4.395   2.618  -0.027  0.00  0.00    -0.200 A 
ATOM      4  C   LIG    1        5.773   2.827  -0.039  0.00  0.00    +0.100 A 
ATOM      5  C   LIG    1        6.624   1.743  -0.052  0.00  0.00    -0.010 A 
ATOM      6  C   LIG    1        6.120   0.449  -0.054  0.00  0.00    +0.060 A 
ATOM      7  C   LIG    1        4.763   0.220  -0.042  0.00  0.00    +0.030 A 
ATOM      8  C   LIG    1        3.879   1.302  -0.028  0.00  0.00    +0.170 A 
ATOM      9  N   LIG    1        2.537   1.121  -0.016  0.00  0.00    -0.540 NA
ATOM     10  O   LIG    1        3.826   4.892  -0.010  0.00  0.00    -0.500 OA
ATOM     11  C   LIG    1        1.708   2.135  -0.003  0.00  0.00    +0.360 A 
ENDROOT
BRANCH   1  12
ATOM     12  C   LIG    1        1.132   4.515   0.004  0.00  0.00    +0.220 C 
ATOM     13  C   LIG    1        1.307   5.380  -1.246  0.00  0.00    +0.050 C 
BRANCH  12  15
ATOM     14  C   LIG    1        1.032   4.544   2.500  0.00  0.00    +0.020 C 
ATOM     15  C   LIG    1        1.329   5.378   1.252  0.00  0.00    +0.040 C 
ENDBRANCH  12  15
ENDBRANCH   1  12
BRANCH  11  16
ATOM     16  S   LIG    1       -0.022   1.806   0.012  0.00  0.00    +0.060 S 
BRANCH  16  17
ATOM     17  C   LIG    1        0.002  -0.004   0.002  0.00  0.00    +0.110 C 
BRANCH  17  18
ATOM     18  C   LIG    1       -1.412  -0.526   0.013  0.00  0.00    +0.410 C 
ATOM     19  O   LIG    1       -2.345   0.250   0.026  0.00  0.00    -0.420 OA
BRANCH  18  20
ATOM     20  C   LIG    1       -1.660  -1.969   0.007  0.00  0.00    -0.210 A 
ATOM     21  C   LIG    1       -0.585  -2.869  -0.014  0.00  0.00    +0.100 A 
ATOM     22  C   LIG    1       -0.819  -4.213  -0.014  0.00  0.00    -0.030 A 
ATOM     23  C   LIG    1       -2.123  -4.702  -0.004  0.00  0.00    +0.170 A 
ATOM     24  C   LIG    1       -3.199  -3.826   0.012  0.00  0.00    -0.050 A 
ATOM     25  C   LIG    1       -2.978  -2.460   0.017  0.00  0.00    +0.190 A 
BRANCH  23  26
ATOM     26  O   LIG    1       -2.341  -6.041  -0.009  0.00  0.00    -0.490 OA
ATOM     27  H   LIG    1       -2.413  -6.424  -0.894  0.00  0.00    +0.400 HD
ENDBRANCH  23  26
BRANCH  25  28
ATOM     28  O   LIG    1       -4.026  -1.600   0.032  0.00  0.00    -0.480 OA
ATOM     29  H   LIG    1       -4.339  -1.345  -0.847  0.00  0.00    +0.400 HD
ENDBRANCH  25  28
ENDBRANCH  18  20
ENDBRANCH  17  18
ENDBRANCH  16  17
ENDBRANCH  11  16
TORSDOF 8
