REMARK  Name = ZINCpe000000XOTz.0
REMARK                            x       y       z     vdW  Elec       q    Type
REMARK                         _______ _______ _______ _____ _____    ______ ____
ROOT
ATOM      1  N   LIG    1        4.842   0.076  -0.147  0.00  0.00    -0.510 N 
ATOM      2  H   LIG    1        4.806   1.046  -0.141  0.00  0.00    +0.440 HD
ATOM      3  C   LIG    1        3.705  -0.640  -0.038  0.00  0.00    +0.580 C 
ATOM      4  O   LIG    1        3.756  -1.852   0.048  0.00  0.00    -0.530 OA
ENDROOT
BRANCH   3   5
ATOM      5  C   LIG    1        2.403   0.044  -0.023  0.00  0.00    -0.250 A 
ATOM      6  C   LIG    1        1.218  -0.688  -0.034  0.00  0.00    +0.280 A 
ATOM      7  C   LIG    1        0.002  -0.004  -0.019  0.00  0.00    -0.160 A 
ATOM      8  C   LIG    1       -0.017   1.353   0.004  0.00  0.00    +0.480 A 
ATOM      9  N   LIG    1        1.132   2.071   0.014  0.00  0.00    -0.580 N 
ATOM     10  H   LIG    1        1.089   3.040   0.031  0.00  0.00    +0.440 HD
ATOM     11  C   LIG    1        2.332   1.461   0.002  0.00  0.00    +0.540 A 
ATOM     12  O   LIG    1        3.355   2.124   0.012  0.00  0.00    -0.500 OA
BRANCH   7  13
ATOM     13  N   LIG    1       -1.271  -0.760  -0.030  0.00  0.00    +0.040 N 
ATOM     14  O   LIG    1       -1.256  -1.978  -0.051  0.00  0.00    -0.140 OA
ATOM     15  O   LIG    1       -2.333  -0.165  -0.018  0.00  0.00    -0.150 OA
ENDBRANCH   7  13
ENDBRANCH   3   5
BRANCH   1  17
ATOM     16  C   LIG    1        7.210   0.138  -0.377  0.00  0.00    +0.510 C 
ATOM     17  N   LIG    1        6.074  -0.579  -0.269  0.00  0.00    -0.520 N 
ATOM     18  H   LIG    1        6.109  -1.548  -0.275  0.00  0.00    +0.430 HD
ATOM     19  O   LIG    1        7.166   1.349  -0.370  0.00  0.00    -0.530 OA
BRANCH  16  20
ATOM     20  C   LIG    1        8.536  -0.568  -0.508  0.00  0.00    +0.320 C 
BRANCH  20  21
ATOM     21  N   LIG    1        9.609   0.425  -0.610  0.00  0.00    -0.740 N 
ATOM     22  H   LIG    1        9.398   1.371  -0.587  0.00  0.00    +0.410 HD
BRANCH  21  27
ATOM     23  C   LIG    1       14.995  -1.267  -1.138  0.00  0.00    +0.070 C 
ATOM     24  C   LIG    1       13.564  -0.818  -0.997  0.00  0.00    -0.140 A 
ATOM     25  C   LIG    1       13.265   0.532  -0.965  0.00  0.00    +0.050 A 
ATOM     26  C   LIG    1       11.954   0.948  -0.837  0.00  0.00    -0.070 A 
ATOM     27  C   LIG    1       10.935   0.008  -0.740  0.00  0.00    +0.210 A 
ATOM     28  C   LIG    1       11.240  -1.347  -0.768  0.00  0.00    -0.080 A 
ATOM     29  C   LIG    1       12.552  -1.756  -0.901  0.00  0.00    +0.050 A 
ENDBRANCH  21  27
ENDBRANCH  20  21
ENDBRANCH  16  20
ENDBRANCH   1  17
TORSDOF 6
