REMARK  Name = ZINCvU0000000IGy.0
REMARK                            x       y       z     vdW  Elec       q    Type
REMARK                         _______ _______ _______ _____ _____    ______ ____
ROOT
ATOM      1  N   LIG    1        6.596  -0.717  -0.172  0.00  0.00    -0.590 N 
ATOM      2  C   LIG    1        5.982  -1.447  -1.290  0.00  0.00    +0.300 C 
ATOM      3  C   LIG    1        4.644  -0.786  -1.636  0.00  0.00    +0.030 C 
ATOM      4  C   LIG    1        3.775  -0.716  -0.378  0.00  0.00    +0.040 C 
ATOM      5  C   LIG    1        4.475   0.137   0.682  0.00  0.00    +0.020 C 
ATOM      6  C   LIG    1        5.811  -0.514   1.054  0.00  0.00    +0.280 C 
ENDROOT
BRANCH   4   7
ATOM      7  C   LIG    1        2.444  -0.096  -0.722  0.00  0.00    -0.060 A 
ATOM      8  C   LIG    1        2.378   1.201  -1.129  0.00  0.00    +0.010 A 
ATOM      9  C   LIG    1        1.157   1.791  -1.450  0.00  0.00    +0.010 A 
ATOM     10  C   LIG    1       -0.005   1.087  -1.367  0.00  0.00    +0.020 A 
ATOM     11  C   LIG    1        0.024  -0.255  -0.951  0.00  0.00    -0.050 A 
ATOM     12  C   LIG    1       -1.155  -1.014  -0.853  0.00  0.00    +0.020 A 
ATOM     13  C   LIG    1       -1.089  -2.311  -0.445  0.00  0.00    +0.000 A 
ATOM     14  C   LIG    1        0.132  -2.901  -0.124  0.00  0.00    +0.000 A 
ATOM     15  C   LIG    1        1.294  -2.197  -0.208  0.00  0.00    +0.020 A 
ATOM     16  C   LIG    1        1.265  -0.855  -0.624  0.00  0.00    -0.040 A 
ENDBRANCH   4   7
BRANCH   1  23
ATOM     17  C   LIG    1        9.551   0.260   2.935  0.00  0.00    +0.130 A 
ATOM     18  N   LIG    1       10.463   0.636   2.053  0.00  0.00    -0.290 NA
ATOM     19  N   LIG    1        9.932   0.490   0.768  0.00  0.00    -0.240 N 
ATOM     20  C   LIG    1       10.429   0.725  -0.488  0.00  0.00    +0.160 A 
ATOM     21  C   LIG    1        9.665   0.483  -1.571  0.00  0.00    +0.260 A 
ATOM     22  N   LIG    1        8.418   0.013  -1.454  0.00  0.00    -0.530 NA
ATOM     23  C   LIG    1        7.888  -0.231  -0.271  0.00  0.00    +0.450 A 
ATOM     24  C   LIG    1        8.651   0.013   0.896  0.00  0.00    +0.030 A 
ATOM     25  C   LIG    1        8.403  -0.141   2.248  0.00  0.00    -0.080 A 
BRANCH  17  29
ATOM     26  C   LIG    1       10.036   0.269   7.160  0.00  0.00    +0.020 A 
ATOM     27  C   LIG    1       11.073   0.689   6.346  0.00  0.00    +0.010 A 
ATOM     28  C   LIG    1       10.921   0.689   4.974  0.00  0.00    +0.040 A 
ATOM     29  C   LIG    1        9.720   0.263   4.410  0.00  0.00    -0.020 A 
ATOM     30  C   LIG    1        8.677  -0.153   5.234  0.00  0.00    +0.040 A 
ATOM     31  C   LIG    1        8.842  -0.154   6.604  0.00  0.00    +0.010 A 
ENDBRANCH  17  29
ENDBRANCH   1  23
TORSDOF 3
