REMARK  Name = ZINCwl0000000sfe.0
REMARK                            x       y       z     vdW  Elec       q    Type
REMARK                         _______ _______ _______ _____ _____    ______ ____
ROOT
ATOM      1  C   LIG    1        5.810   4.008   0.063  0.00  0.00    -0.050 A 
ATOM      2  C   LIG    1        6.589   2.858   0.043  0.00  0.00    +0.100 A 
ATOM      3  C   LIG    1        7.967   2.959   0.059  0.00  0.00    +0.180 A 
ATOM      4  C   LIG    1        8.569   4.203   0.104  0.00  0.00    -0.660 A 
ATOM      5  C   LIG    1        7.796   5.350   0.129  0.00  0.00    +0.220 A 
ATOM      6  C   LIG    1        6.419   5.256   0.109  0.00  0.00    -0.010 A 
ENDROOT
BRANCH   4   7
ATOM      7  S   LIG    1       10.327   4.327   0.130  0.00  0.00    +2.700 S 
ATOM      8  O   LIG    1       10.645   5.618  -0.372  0.00  0.00    -0.920 OA
ATOM      9  O   LIG    1       10.823   3.126  -0.445  0.00  0.00    -0.930 OA
BRANCH   7  10
ATOM     10  N   LIG    1       10.796   4.314   1.718  0.00  0.00    -1.110 NA
ATOM     11  H   LIG    1       11.219   5.097   2.105  0.00  0.00    +0.430 HD
BRANCH  10  12
ATOM     12  C   LIG    1       10.572   3.121   2.538  0.00  0.00    +0.290 C 
BRANCH  12  13
ATOM     13  C   LIG    1       11.408   3.217   3.816  0.00  0.00    +0.260 C 
BRANCH  13  14
ATOM     14  N   LIG    1       11.184   2.021   4.639  0.00  0.00    -0.390 N 
ATOM     15  C   LIG    1        9.786   1.991   5.090  0.00  0.00    +0.320 C 
ATOM     16  C   LIG    1       12.074   2.055   5.806  0.00  0.00    +0.330 C 
ATOM     17  H   LIG    1       11.378   1.195   4.092  0.00  0.00    +0.430 HD
ENDBRANCH  13  14
ENDBRANCH  12  13
ENDBRANCH  10  12
ENDBRANCH   7  10
ENDBRANCH   4   7
BRANCH   6  18
ATOM     18  N   LIG    1        5.592   6.484   0.135  0.00  0.00    +0.020 N 
ATOM     19  O   LIG    1        4.377   6.400   0.116  0.00  0.00    -0.130 OA
ATOM     20  O   LIG    1        6.127   7.577   0.175  0.00  0.00    -0.130 OA
ENDBRANCH   6  18
BRANCH   1  21
ATOM     21  S   LIG    1        4.052   3.883   0.037  0.00  0.00    +0.210 S 
BRANCH  21  26
ATOM     22  N   LIG    1        2.526   4.432  -2.234  0.00  0.00    -0.290 N 
ATOM     23  N   LIG    1        2.798   4.736  -3.579  0.00  0.00    -0.040 NA
ATOM     24  N   LIG    1        4.080   4.756  -3.706  0.00  0.00    -0.030 NA
ATOM     25  N   LIG    1        4.645   4.488  -2.584  0.00  0.00    -0.330 NA
ATOM     26  C   LIG    1        3.742   4.281  -1.651  0.00  0.00    +0.190 A 
BRANCH  22  32
ATOM     27  C   LIG    1        0.268   3.555  -2.240  0.00  0.00    +0.160 A 
ATOM     28  C   LIG    1       -0.975   3.439  -1.637  0.00  0.00    -0.050 A 
ATOM     29  C   LIG    1       -1.216   4.057  -0.425  0.00  0.00    +0.090 A 
ATOM     30  C   LIG    1       -0.224   4.802   0.185  0.00  0.00    +0.010 A 
ATOM     31  C   LIG    1        1.016   4.928  -0.412  0.00  0.00    +0.080 A 
ATOM     32  C   LIG    1        1.268   4.305  -1.625  0.00  0.00    +0.070 A 
BRANCH  27  34
ATOM     33  C   LIG    1       -0.564   2.190  -4.000  0.00  0.00    +0.250 C 
ATOM     34  O   LIG    1        0.508   2.943  -3.429  0.00  0.00    -0.300 OA
ENDBRANCH  27  34
ENDBRANCH  22  32
ENDBRANCH  21  26
ENDBRANCH   1  21
TORSDOF 10
