REMARK  Name = ZINCqH0000038VFH.0
REMARK                            x       y       z     vdW  Elec       q    Type
REMARK                         _______ _______ _______ _____ _____    ______ ____
ROOT
ATOM      1  C   LIG    1        1.716   0.312  -2.143  0.00  0.00    -0.050 C 
ATOM      2  C   LIG    1        1.157   1.462  -1.808  0.00  0.00    +0.020 C 
ATOM      3  C   LIG    1        0.495   1.623  -0.454  0.00  0.00    +0.280 C 
ATOM      4  C   LIG    1       -0.884   0.921  -0.569  0.00  0.00    +0.040 C 
ATOM      5  C   LIG    1       -0.573  -0.568  -0.309  0.00  0.00    +0.030 C 
ATOM      6  C   LIG    1        0.928  -0.607   0.038  0.00  0.00    +0.240 C 
ATOM      7  N   LIG    1        1.247   0.767   0.497  0.00  0.00    -0.590 N 
ATOM      8  C   LIG    1        2.029   1.146   1.527  0.00  0.00    +0.510 C 
ATOM      9  O   LIG    1        2.577   0.308   2.213  0.00  0.00    -0.510 OA
ATOM     10  C   LIG    1        1.748  -0.895  -1.221  0.00  0.00    +0.080 C 
ENDROOT
BRANCH   1  16
ATOM     11  C   LIG    1        2.908  -2.269  -3.378  0.00  0.00    +0.330 C 
ATOM     12  N   LIG    1        2.857  -0.950  -4.013  0.00  0.00    -0.460 N 
ATOM     13  C   LIG    1        3.324  -0.627  -5.258  0.00  0.00    +0.130 A 
ATOM     14  C   LIG    1        3.076   0.686  -5.445  0.00  0.00    +0.150 A 
ATOM     15  N   LIG    1        2.469   1.162  -4.353  0.00  0.00    -0.480 NA
ATOM     16  C   LIG    1        2.333   0.191  -3.474  0.00  0.00    +0.230 A 
ENDBRANCH   1  16
BRANCH   8  17
ATOM     17  C   LIG    1        2.222   2.596   1.824  0.00  0.00    +0.400 C 
ATOM     18  O   LIG    1        1.596   3.431   1.204  0.00  0.00    -0.400 OA
BRANCH  17  19
ATOM     19  C   LIG    1        3.173   3.014   2.870  0.00  0.00    -0.150 A 
ATOM     20  C   LIG    1        3.777   2.058   3.694  0.00  0.00    +0.140 A 
ATOM     21  C   LIG    1        4.670   2.457   4.667  0.00  0.00    -0.040 A 
ATOM     22  C   LIG    1        4.960   3.800   4.837  0.00  0.00    +0.090 A 
ATOM     23  C   LIG    1        4.362   4.753   4.029  0.00  0.00    -0.040 A 
ATOM     24 CL   LIG    1        4.734   6.434   4.251  0.00  0.00    -0.040 Cl
ATOM     25 CL   LIG    1        5.426   1.272   5.686  0.00  0.00    -0.040 Cl
ATOM     26  C   LIG    1        3.472   4.369   3.047  0.00  0.00    +0.110 A 
ENDBRANCH  17  19
ENDBRANCH   8  17
TORSDOF 3
