REMARK  Name = ZINCrD000000CoPy.0
REMARK                            x       y       z     vdW  Elec       q    Type
REMARK                         _______ _______ _______ _____ _____    ______ ____
ROOT
ATOM      1  C   LIG    1       -0.059   4.501   0.026  0.00  0.00    -0.140 A 
ATOM      2  C   LIG    1        1.158   3.817   0.011  0.00  0.00    +0.160 A 
ATOM      3  C   LIG    1        1.170   2.438   0.004  0.00  0.00    +0.020 A 
ATOM      4  C   LIG    1       -0.021   1.732   0.012  0.00  0.00    +0.080 A 
ATOM      5  C   LIG    1       -1.232   2.405   0.021  0.00  0.00    -0.690 A 
ATOM      6 CL   LIG    1        0.002  -0.004   0.002  0.00  0.00    -0.030 Cl
ATOM      7  C   LIG    1       -1.258   3.784   0.034  0.00  0.00    +0.220 A 
ENDROOT
BRANCH   5   8
ATOM      8  S   LIG    1       -2.743   1.498   0.023  0.00  0.00    +2.710 S 
ATOM      9  O   LIG    1       -3.788   2.460  -0.001  0.00  0.00    -0.940 OA
ATOM     10  O   LIG    1       -2.617   0.512   1.039  0.00  0.00    -0.930 OA
BRANCH   8  11
ATOM     11  N   LIG    1       -2.826   0.680  -1.415  0.00  0.00    -1.010 NA
ATOM     12  C   LIG    1       -3.434   1.186  -2.654  0.00  0.00    +0.270 C 
ATOM     13  C   LIG    1       -3.299   0.075  -3.717  0.00  0.00    +0.030 C 
ATOM     14  C   LIG    1       -3.137  -1.207  -2.858  0.00  0.00    +0.040 C 
ATOM     15  C   LIG    1       -2.307  -0.677  -1.662  0.00  0.00    +0.270 C 
ENDBRANCH   8  11
ENDBRANCH   5   8
BRANCH   1  17
ATOM     16  O   LIG    1       -1.139   6.571   0.047  0.00  0.00    -0.490 OA
ATOM     17  C   LIG    1       -0.079   5.978   0.034  0.00  0.00    +0.510 C 
BRANCH  17  18
ATOM     18  O   LIG    1        1.078   6.667   0.027  0.00  0.00    -0.350 OA
BRANCH  18  19
ATOM     19  C   LIG    1        0.983   8.116   0.036  0.00  0.00    +0.260 C 
BRANCH  19  20
ATOM     20  C   LIG    1        2.388   8.720   0.026  0.00  0.00    +0.230 C 
BRANCH  20  21
ATOM     21  O   LIG    1        3.040   8.391  -1.203  0.00  0.00    -0.310 OA
BRANCH  21  22
ATOM     22  C   LIG    1        4.306   8.855  -1.373  0.00  0.00    +0.130 A 
ATOM     23  C   LIG    1        4.907   9.615  -0.381  0.00  0.00    -0.080 A 
ATOM     24  C   LIG    1        6.196  10.081  -0.554  0.00  0.00    +0.050 A 
ATOM     25  C   LIG    1        6.883   9.799  -1.720  0.00  0.00    -0.040 A 
ATOM     26  C   LIG    1        6.284   9.046  -2.713  0.00  0.00    +0.050 A 
ATOM     27  C   LIG    1        4.997   8.573  -2.543  0.00  0.00    -0.020 A 
ENDBRANCH  21  22
ENDBRANCH  20  21
ENDBRANCH  19  20
ENDBRANCH  18  19
ENDBRANCH  17  18
ENDBRANCH   1  17
TORSDOF 8
