REMARK  Name = ZINCkj00000y7xhB.0
REMARK                            x       y       z     vdW  Elec       q    Type
REMARK                         _______ _______ _______ _____ _____    ______ ____
ROOT
ATOM      1  O   LIG    1        3.463   3.781  -1.031  0.00  0.00    -0.930 OA
ATOM      2  S   LIG    1        2.666   4.345   0.001  0.00  0.00    +2.700 S 
ATOM      3  O   LIG    1        2.312   5.720   0.046  0.00  0.00    -0.930 OA
ENDROOT
BRANCH   2   4
ATOM      4  C   LIG    1        1.153   3.441   0.010  0.00  0.00    -0.710 A 
ATOM      5  C   LIG    1       -0.054   4.115   0.025  0.00  0.00    +0.210 A 
ATOM      6  C   LIG    1       -1.242   3.408   0.032  0.00  0.00    +0.020 A 
ATOM      7  C   LIG    1       -1.226   2.024   0.019  0.00  0.00    +0.160 A 
ATOM      8  C   LIG    1       -0.016   1.347   0.009  0.00  0.00    +0.020 A 
ATOM      9  F   LIG    1        0.002  -0.004   0.002  0.00  0.00    -0.110 F 
ATOM     10  F   LIG    1       -2.387   1.335   0.020  0.00  0.00    -0.100 F 
ATOM     11  C   LIG    1        1.174   2.057   0.002  0.00  0.00    +0.190 A 
ATOM     12  F   LIG    1        2.353   1.399  -0.013  0.00  0.00    -0.110 F 
ENDBRANCH   2   4
BRANCH   2  13
ATOM     13  N   LIG    1        3.442   4.014   1.425  0.00  0.00    -1.110 NA
ATOM     14  H   LIG    1        3.587   4.721   2.074  0.00  0.00    +0.430 HD
BRANCH  13  15
ATOM     15  C   LIG    1        3.912   2.655   1.706  0.00  0.00    +0.260 C 
BRANCH  15  16
ATOM     16  C   LIG    1        4.900   2.688   2.873  0.00  0.00    +0.070 C 
BRANCH  16  17
ATOM     17  C   LIG    1        5.390   1.268   3.166  0.00  0.00    +0.000 C 
ATOM     18  C   LIG    1        6.342   1.258   4.384  0.00  0.00    +0.080 C 
ATOM     19  C   LIG    1        7.456   0.260   4.016  0.00  0.00    +0.250 C 
ATOM     20  N   LIG    1        7.128  -0.282   2.680  0.00  0.00    -0.520 N 
ATOM     21  H   LIG    1        6.610  -1.143   2.771  0.00  0.00    +0.430 HD
ATOM     22  H   LIG    1        7.973  -0.438   2.151  0.00  0.00    +0.440 HD
ATOM     23  C   LIG    1        6.288   0.750   2.015  0.00  0.00    +0.270 C 
ENDBRANCH  16  17
ENDBRANCH  15  16
ENDBRANCH  13  15
ENDBRANCH   2  13
TORSDOF 5
