REMARK  Name = ZINCvU00000004Ox.0
REMARK                            x       y       z     vdW  Elec       q    Type
REMARK                         _______ _______ _______ _____ _____    ______ ____
ROOT
ATOM      1  C   LIG    1        2.334   4.074  -0.581  0.00  0.00    +0.560 C 
ATOM      2  N   LIG    1        2.396   5.285   0.007  0.00  0.00    -0.660 N 
ATOM      3  H   LIG    1        1.593   5.689   0.372  0.00  0.00    +0.410 HD
ATOM      4  O   LIG    1        3.317   3.612  -1.127  0.00  0.00    -0.510 OA
ENDROOT
BRANCH   2   5
ATOM      5  C   LIG    1        3.614   5.957   0.091  0.00  0.00    +0.180 A 
ATOM      6  C   LIG    1        4.806   5.239   0.067  0.00  0.00    +0.010 A 
ATOM      7  C   LIG    1        6.011   5.900   0.150  0.00  0.00    +0.060 A 
ATOM      8  C   LIG    1        6.036   7.293   0.257  0.00  0.00    -0.150 A 
ATOM      9  C   LIG    1        4.837   8.011   0.281  0.00  0.00    +0.100 A 
ATOM     10  C   LIG    1        3.636   7.345   0.192  0.00  0.00    -0.120 A 
ATOM     11  C   LIG    1        2.343   8.118   0.211  0.00  0.00    +0.100 C 
BRANCH   8  12
ATOM     12  C   LIG    1        7.326   8.004   0.346  0.00  0.00    +0.560 C 
ATOM     13  N   LIG    1        8.482   7.311   0.322  0.00  0.00    -0.730 N 
ATOM     14  H   LIG    1        8.465   6.343   0.248  0.00  0.00    +0.400 HD
ATOM     15  O   LIG    1        7.347   9.216   0.439  0.00  0.00    -0.540 OA
BRANCH  13  16
ATOM     16  C   LIG    1        9.762   8.017   0.410  0.00  0.00    +0.260 C 
BRANCH  16  17
ATOM     17  C   LIG    1       10.908   7.004   0.362  0.00  0.00    -0.030 C 
ATOM     18  C   LIG    1       12.238   7.728   0.578  0.00  0.00    +0.030 C 
ATOM     19  C   LIG    1       10.919   6.312  -1.002  0.00  0.00    +0.020 C 
ENDBRANCH  16  17
ENDBRANCH  13  16
ENDBRANCH   8  12
ENDBRANCH   2   5
BRANCH   1  23
ATOM     20  C   LIG    1       -1.300   1.875  -0.533  0.00  0.00    -0.050 A 
ATOM     21  C   LIG    1       -0.181   1.343  -1.150  0.00  0.00    +0.040 A 
ATOM     22  C   LIG    1        1.002   2.053  -1.170  0.00  0.00    +0.090 A 
ATOM     23  C   LIG    1        1.070   3.308  -0.562  0.00  0.00    -0.130 A 
ATOM     24  C   LIG    1       -0.061   3.836   0.063  0.00  0.00    +0.050 A 
ATOM     25  C   LIG    1       -1.238   3.115   0.077  0.00  0.00    +0.040 A 
BRANCH  20  26
ATOM     26  C   LIG    1       -2.590   1.096  -0.520  0.00  0.00    +0.120 C 
BRANCH  26  27
ATOM     27  S   LIG    1       -2.647   0.048   0.955  0.00  0.00    +0.030 S 
BRANCH  27  32
ATOM     28  C   LIG    1       -6.661  -3.086   2.034  0.00  0.00    +0.160 C 
ATOM     29  C   LIG    1       -5.928  -2.072   1.194  0.00  0.00    +0.080 A 
ATOM     30  C   LIG    1       -6.424  -1.584   0.057  0.00  0.00    -0.080 A 
ATOM     31  S   LIG    1       -5.262  -0.432  -0.598  0.00  0.00    +0.130 S 
ATOM     32  C   LIG    1       -4.213  -0.725   0.720  0.00  0.00    +0.010 A 
ATOM     33  N   LIG    1       -4.742  -1.594   1.526  0.00  0.00    -0.450 NA
ENDBRANCH  27  32
ENDBRANCH  26  27
ENDBRANCH  20  26
ENDBRANCH   1  23
TORSDOF 8
