REMARK  Name = ZINCpk00000k2A4v.0
REMARK                            x       y       z     vdW  Elec       q    Type
REMARK                         _______ _______ _______ _____ _____    ______ ____
ROOT
ATOM      1  C   LIG    1       -0.013   1.086   0.008  0.00  0.00    +0.270 C 
ATOM      2  C   LIG    1        1.423   1.615  -0.003  0.00  0.00    +0.110 C 
ENDROOT
BRANCH   1   5
ATOM      3  C   LIG    1       -1.397   2.807  -2.821  0.00  0.00    -0.020 A 
ATOM      4  C   LIG    1       -0.550   2.778  -1.766  0.00  0.00    +0.200 A 
ATOM      5  N   LIG    1       -0.721   1.571  -1.179  0.00  0.00    -0.280 N 
ATOM      6  N   LIG    1       -1.610   0.921  -1.845  0.00  0.00    -0.080 NA
ATOM      7  N   LIG    1       -2.037   1.633  -2.828  0.00  0.00    -0.240 NA
BRANCH   3   8
ATOM      8  C   LIG    1       -1.583   3.941  -3.797  0.00  0.00    +0.040 C 
ATOM      9  C   LIG    1       -2.385   5.061  -3.130  0.00  0.00    +0.080 C 
ATOM     10  C   LIG    1       -2.340   3.436  -5.027  0.00  0.00    +0.080 C 
BRANCH   8  11
ATOM     11  C   LIG    1       -0.236   4.469  -4.217  0.00  0.00    +0.470 C 
ATOM     12  O   LIG    1        0.772   3.975  -3.770  0.00  0.00    -0.500 OA
BRANCH  11  14
ATOM     13  C   LIG    1        1.175   5.944  -5.447  0.00  0.00    +0.250 C 
ATOM     14  O   LIG    1       -0.156   5.487  -5.088  0.00  0.00    -0.350 OA
ENDBRANCH  11  14
ENDBRANCH   8  11
ENDBRANCH   3   8
ENDBRANCH   1   5
BRANCH   1  15
ATOM     15  C   LIG    1       -0.718   1.572   1.248  0.00  0.00    +0.510 C 
ATOM     16  N   LIG    1       -0.242   1.246   2.466  0.00  0.00    -0.720 N 
ATOM     17  H   LIG    1        0.555   0.699   2.544  0.00  0.00    +0.410 HD
ATOM     18  O   LIG    1       -1.714   2.256   1.150  0.00  0.00    -0.510 OA
BRANCH  16  19
ATOM     19  C   LIG    1       -0.927   1.718   3.671  0.00  0.00    +0.350 C 
ATOM     20  C   LIG    1       -0.438   3.126   4.018  0.00  0.00    +0.060 C 
BRANCH  19  21
ATOM     21  C   LIG    1       -0.629   0.786   4.817  0.00  0.00    -0.050 A 
ATOM     22  C   LIG    1       -1.497   0.367   5.768  0.00  0.00    -0.030 A 
ATOM     23  C   LIG    1       -0.719  -0.481   6.590  0.00  0.00    +0.020 A 
ATOM     24  N   LIG    1        0.478  -0.490   6.080  0.00  0.00    -0.360 NA
ATOM     25  C   LIG    1       -1.185  -1.227   7.814  0.00  0.00    +0.160 C 
ATOM     26  O   LIG    1        0.547   0.204   5.092  0.00  0.00    +0.100 OA
ENDBRANCH  19  21
ENDBRANCH  16  19
ENDBRANCH   1  15
TORSDOF 7
