REMARK  Name = ZINCrD000000CeEg.0
REMARK                            x       y       z     vdW  Elec       q    Type
REMARK                         _______ _______ _______ _____ _____    ______ ____
ROOT
ATOM      1  C   LIG    1       -0.898   3.118  -1.144  0.00  0.00    +0.010 C 
ATOM      2  C   LIG    1       -0.759   1.596  -1.228  0.00  0.00    +0.060 C 
ATOM      3  C   LIG    1       -0.013   1.086   0.008  0.00  0.00    +0.300 C 
ATOM      4  N   LIG    1       -0.706   1.562   1.213  0.00  0.00    -1.000 NA
ATOM      5  C   LIG    1       -0.975   3.001   1.350  0.00  0.00    +0.300 C 
ATOM      6  C   LIG    1       -1.711   3.490   0.099  0.00  0.00    +0.030 C 
ENDROOT
BRANCH   1   8
ATOM      7  O   LIG    1       -1.958   2.850  -3.235  0.00  0.00    -0.460 OA
ATOM      8  C   LIG    1       -1.602   3.627  -2.375  0.00  0.00    +0.510 C 
ATOM      9  N   LIG    1       -1.836   4.946  -2.520  0.00  0.00    -0.630 N 
ATOM     10  H   LIG    1       -1.552   5.568  -1.832  0.00  0.00    +0.420 HD
BRANCH   9  11
ATOM     11  C   LIG    1       -2.483   5.415  -3.652  0.00  0.00    +0.340 A 
ATOM     12  N   LIG    1       -2.895   4.675  -4.623  0.00  0.00    -0.470 NA
ATOM     13  C   LIG    1       -3.514   5.277  -5.657  0.00  0.00    +0.110 A 
ATOM     14  C   LIG    1       -4.053   4.696  -6.824  0.00  0.00    +0.070 A 
ATOM     15  C   LIG    1       -4.646   5.480  -7.781  0.00  0.00    +0.040 A 
ATOM     16  C   LIG    1       -4.726   6.855  -7.617  0.00  0.00    +0.030 A 
ATOM     17  C   LIG    1       -4.207   7.445  -6.486  0.00  0.00    +0.060 A 
ATOM     18  C   LIG    1       -3.601   6.665  -5.505  0.00  0.00    -0.180 A 
ATOM     19  S   LIG    1       -2.853   7.104  -3.971  0.00  0.00    +0.060 S 
ENDBRANCH   9  11
ENDBRANCH   1   8
BRANCH   4  20
ATOM     20  S   LIG    1       -1.179   0.499   2.390  0.00  0.00    +2.690 S 
ATOM     21  O   LIG    1       -1.299  -0.770   1.761  0.00  0.00    -0.950 OA
ATOM     22  O   LIG    1       -2.247   1.123   3.090  0.00  0.00    -0.950 OA
BRANCH  20  23
ATOM     23  C   LIG    1        0.153   0.362   3.535  0.00  0.00    -0.680 A 
ATOM     24  C   LIG    1        1.127  -0.602   3.351  0.00  0.00    +0.120 A 
ATOM     25  C   LIG    1        2.174  -0.707   4.247  0.00  0.00    -0.010 A 
ATOM     26  C   LIG    1        2.244   0.147   5.332  0.00  0.00    +0.070 A 
ATOM     27  C   LIG    1        1.267   1.107   5.519  0.00  0.00    -0.010 A 
ATOM     28  C   LIG    1        0.222   1.215   4.621  0.00  0.00    +0.120 A 
ENDBRANCH  20  23
ENDBRANCH   4  20
TORSDOF 4
