REMARK  Name = ZINCpk00000xYzPp.0
REMARK                            x       y       z     vdW  Elec       q    Type
REMARK                         _______ _______ _______ _____ _____    ______ ____
ROOT
ATOM      1  C   LIG    1       -0.017   1.388   0.010  0.00  0.00    +0.270 A 
ATOM      2  C   LIG    1        1.177   2.103   0.002  0.00  0.00    -0.060 A 
ATOM      3  C   LIG    1        2.381   1.436  -0.013  0.00  0.00    +0.140 A 
ATOM      4  C   LIG    1        2.404   0.038  -0.020  0.00  0.00    -0.090 A 
ATOM      5  C   LIG    1        1.202  -0.677  -0.013  0.00  0.00    +0.140 A 
ATOM      6  C   LIG    1        0.002  -0.004   0.002  0.00  0.00    -0.180 A 
ENDROOT
BRANCH   1   7
ATOM      7  N   LIG    1       -1.232   2.066   0.019  0.00  0.00    -0.720 N 
ATOM      8  H   LIG    1       -2.065   1.568   0.020  0.00  0.00    +0.400 HD
BRANCH   7   9
ATOM      9  C   LIG    1       -1.254   3.530   0.027  0.00  0.00    +0.260 C 
BRANCH   9  11
ATOM     10  C   LIG    1       -3.424   3.505  -1.212  0.00  0.00    +0.040 C 
ATOM     11  C   LIG    1       -2.704   4.019   0.037  0.00  0.00    -0.090 C 
ATOM     12  C   LIG    1       -3.412   3.491   1.286  0.00  0.00    +0.050 C 
BRANCH  11  13
ATOM     13  C   LIG    1       -2.727   5.549   0.045  0.00  0.00    +0.230 C 
ATOM     14  C   LIG    1       -4.177   6.032   0.081  0.00  0.00    +0.030 C 
ATOM     15  C   LIG    1       -4.194   7.550  -0.137  0.00  0.00    +0.030 C 
ATOM     16  C   LIG    1       -3.742   7.839  -1.570  0.00  0.00    +0.060 C 
ATOM     17  C   LIG    1       -2.479   7.083  -1.870  0.00  0.00    +0.520 C 
ATOM     18  O   LIG    1       -1.812   7.434  -2.820  0.00  0.00    -0.550 OA
ATOM     19  N   LIG    1       -2.052   6.047  -1.147  0.00  0.00    -0.720 N 
ATOM     20  H   LIG    1       -1.242   5.597  -1.432  0.00  0.00    +0.400 HD
ENDBRANCH  11  13
ENDBRANCH   9  11
ENDBRANCH   7   9
ENDBRANCH   1   7
BRANCH   4  21
ATOM     21  C   LIG    1        3.654  -0.659  -0.035  0.00  0.00    +0.260 C 
ATOM     22  N   LIG    1        4.646  -1.213  -0.047  0.00  0.00    -0.420 NA
ENDBRANCH   4  21
BRANCH   6  23
ATOM     23  C   LIG    1       -1.293  -0.774   0.010  0.00  0.00    -0.290 C 
BRANCH  23  24
ATOM     24  S   LIG    1       -1.829  -1.074  -1.696  0.00  0.00    +2.600 S 
ATOM     25  O   LIG    1       -0.949  -1.983  -2.344  0.00  0.00    -0.950 OA
ATOM     26  O   LIG    1       -2.213   0.144  -2.320  0.00  0.00    -0.950 OA
BRANCH  24  27
ATOM     27  N   LIG    1       -3.246  -1.918  -1.542  0.00  0.00    -1.250 NA
ATOM     28  H   LIG    1       -3.732  -2.199  -2.334  0.00  0.00    +0.420 HD
ATOM     29  H   LIG    1       -3.589  -2.132  -0.661  0.00  0.00    +0.410 HD
ENDBRANCH  24  27
ENDBRANCH  23  24
ENDBRANCH   6  23
TORSDOF 8
