REMARK  Name = ZINCnE000004R8Ck.0
REMARK                            x       y       z     vdW  Elec       q    Type
REMARK                         _______ _______ _______ _____ _____    ______ ____
ROOT
ATOM      1  C   LIG    1       -4.397   1.191   2.393  0.00  0.00    +0.060 C 
ATOM      2  C   LIG    1       -4.983   1.480   1.009  0.00  0.00    +0.020 C 
ENDROOT
BRANCH   1   3
ATOM      3  C   LIG    1       -5.233   1.874   3.445  0.00  0.00    +0.500 C 
ATOM      4  O   LIG    1       -5.778   1.214   4.313  0.00  0.00    -0.670 OA
ATOM      5  O   LIG    1       -5.364   3.086   3.428  0.00  0.00    -0.700 OA
ENDBRANCH   1   3
BRANCH   1   6
ATOM      6  O   LIG    1       -4.398  -0.219   2.625  0.00  0.00    -0.290 OA
BRANCH   6  11
ATOM      7  C   LIG    1       -6.898  -2.846   2.789  0.00  0.00    -0.000 A 
ATOM      8  C   LIG    1       -8.027  -2.078   2.542  0.00  0.00    -0.110 A 
ATOM      9  C   LIG    1       -7.888  -0.720   2.333  0.00  0.00    +0.290 A 
ATOM     10  N   LIG    1       -6.699  -0.149   2.367  0.00  0.00    -0.500 NA
ATOM     11  C   LIG    1       -5.600  -0.847   2.600  0.00  0.00    +0.370 A 
ATOM     12  C   LIG    1       -5.665  -2.218   2.813  0.00  0.00    -0.080 A 
BRANCH   7  14
ATOM     13  C   LIG    1       -8.481  -4.749   2.934  0.00  0.00    +0.030 C 
ATOM     14  C   LIG    1       -7.012  -4.330   3.022  0.00  0.00    -0.030 C 
ATOM     15  C   LIG    1       -6.467  -4.672   4.410  0.00  0.00    +0.040 C 
ATOM     16  C   LIG    1       -6.204  -5.076   1.958  0.00  0.00    +0.040 C 
ENDBRANCH   7  14
ENDBRANCH   6  11
ENDBRANCH   1   6
BRANCH   1  17
ATOM     17  C   LIG    1       -2.963   1.718   2.460  0.00  0.00    +0.070 C 
BRANCH  17  18
ATOM     18  C   LIG    1       -2.150   1.133   1.303  0.00  0.00    -0.040 C 
ATOM     19  C   LIG    1       -1.993  -0.380   1.501  0.00  0.00    +0.030 C 
ATOM     20  C   LIG    1       -1.112  -0.939   0.379  0.00  0.00    -0.020 C 
ATOM     21  C   LIG    1        0.233  -0.209   0.382  0.00  0.00    +0.200 C 
ATOM     22  O   LIG    1        0.013   1.194   0.226  0.00  0.00    -0.390 OA
ATOM     23  C   LIG    1       -0.764   1.783   1.271  0.00  0.00    +0.210 C 
ENDBRANCH  17  18
ENDBRANCH   1  17
TORSDOF 6
