REMARK  Name = ZINCAx000000080A.0
REMARK                            x       y       z     vdW  Elec       q    Type
REMARK                         _______ _______ _______ _____ _____    ______ ____
ROOT
ATOM      1  C   LIG    1       11.371   7.922   0.893  0.00  0.00    +0.500 C 
ATOM      2  N   LIG    1       11.144   6.677   0.428  0.00  0.00    -0.600 N 
ATOM      3  C   LIG    1       10.822   6.453  -0.988  0.00  0.00    +0.270 C 
ATOM      4  C   LIG    1        9.519   5.653  -1.076  0.00  0.00    +0.020 C 
ATOM      5  C   LIG    1        9.657   4.368  -0.256  0.00  0.00    +0.000 C 
ATOM      6  C   LIG    1        8.364   3.554  -0.361  0.00  0.00    +0.020 C 
ATOM      7  C   LIG    1        7.195   4.388   0.168  0.00  0.00    +0.230 C 
ATOM      8  C   LIG    1        7.449   4.753   1.632  0.00  0.00    +0.000 C 
ATOM      9  C   LIG    1        8.744   5.560   1.741  0.00  0.00    +0.030 C 
ATOM     10  C   LIG    1        9.910   4.723   1.212  0.00  0.00    -0.010 C 
ATOM     11  C   LIG    1       11.210   5.524   1.326  0.00  0.00    +0.280 C 
ATOM     12  O   LIG    1       11.636   8.093   2.064  0.00  0.00    -0.520 OA
ENDROOT
BRANCH   1  19
ATOM     13  C   LIG    1        6.648  12.275   2.335  0.00  0.00    +0.100 C 
ATOM     14  C   LIG    1        8.012  11.782   1.926  0.00  0.00    -0.110 A 
ATOM     15  C   LIG    1        9.144  12.274   2.549  0.00  0.00    +0.050 A 
ATOM     16  C   LIG    1       10.395  11.829   2.175  0.00  0.00    +0.000 A 
ATOM     17  C   LIG    1       10.529  10.880   1.165  0.00  0.00    +0.100 A 
ATOM     18  O   LIG    1       11.651  10.316   0.639  0.00  0.00    -0.270 OA
ATOM     19  C   LIG    1       11.296   9.101  -0.043  0.00  0.00    +0.200 C 
ATOM     20  C   LIG    1        9.834   9.365  -0.475  0.00  0.00    +0.110 C 
ATOM     21  C   LIG    1        9.383  10.387   0.551  0.00  0.00    -0.170 A 
ATOM     22  C   LIG    1        8.136  10.835   0.924  0.00  0.00    +0.060 A 
ENDBRANCH   1  19
BRANCH   7  23
ATOM     23  N   LIG    1        5.957   3.612   0.066  0.00  0.00    -0.720 N 
ATOM     24  H   LIG    1        5.990   2.643   0.061  0.00  0.00    +0.410 HD
ATOM     25  C   LIG    1        4.770   4.245  -0.021  0.00  0.00    +0.590 C 
ATOM     26  O   LIG    1        4.733   5.458  -0.109  0.00  0.00    -0.550 OA
BRANCH  25  27
ATOM     27  C   LIG    1        3.523   3.472  -0.010  0.00  0.00    -0.370 A 
ATOM     28  C   LIG    1        2.279   4.117   0.022  0.00  0.00    +0.460 A 
ATOM     29  N   LIG    1        1.172   3.405   0.031  0.00  0.00    -0.540 NA
ATOM     30  C   LIG    1        1.196   2.070   0.010  0.00  0.00    +0.400 A 
ATOM     31  C   LIG    1       -0.017   1.361   0.020  0.00  0.00    +0.030 A 
ATOM     32  C   LIG    1        0.001  -0.003  -0.001  0.00  0.00    +0.140 A 
ATOM     33  C   LIG    1        1.229  -0.677  -0.033  0.00  0.00    +0.010 A 
ATOM     34  C   LIG    1        2.386   0.024  -0.043  0.00  0.00    +0.290 A 
ATOM     35  N   LIG    1        2.377   1.385  -0.022  0.00  0.00    -0.420 N 
ATOM     36  C   LIG    1        3.549   2.056  -0.033  0.00  0.00    +0.530 A 
ATOM     37  O   LIG    1        4.609   1.455  -0.060  0.00  0.00    -0.520 OA
ENDBRANCH  25  27
ENDBRANCH   7  23
TORSDOF 3
