REMARK  Name = ZINCpe000000W0dC.0
REMARK                            x       y       z     vdW  Elec       q    Type
REMARK                         _______ _______ _______ _____ _____    ______ ____
ROOT
ATOM      1  C   LIG    1       -0.788   3.123  -1.209  0.00  0.00    +0.260 C 
ATOM      2  C   LIG    1       -0.752   1.593  -1.232  0.00  0.00    +0.040 C 
ATOM      3  C   LIG    1       -0.013   1.086   0.008  0.00  0.00    +0.230 C 
ATOM      4  N   LIG    1       -0.700   1.559   1.216  0.00  0.00    -0.470 N 
ATOM      5  C   LIG    1       -0.705   3.026   1.284  0.00  0.00    +0.230 C 
ATOM      6  C   LIG    1       -1.465   3.591   0.082  0.00  0.00    +0.050 C 
ENDROOT
BRANCH   1  11
ATOM      7  C   LIG    1       -2.168   4.659  -4.297  0.00  0.00    +0.120 C 
ATOM      8  N   LIG    1       -3.288   3.890  -3.728  0.00  0.00    -0.710 N 
ATOM      9  H   LIG    1       -4.183   3.812  -4.095  0.00  0.00    +0.440 HD
ATOM     10  C   LIG    1       -2.827   3.311  -2.605  0.00  0.00    +0.700 C 
ATOM     11  N   LIG    1       -1.546   3.612  -2.364  0.00  0.00    -0.570 N 
ATOM     12  O   LIG    1       -3.499   2.597  -1.888  0.00  0.00    -0.530 OA
ATOM     13  C   LIG    1       -2.512   6.148  -4.365  0.00  0.00    +0.100 C 
ATOM     14  C   LIG    1       -1.036   4.417  -3.317  0.00  0.00    +0.530 C 
ATOM     15  O   LIG    1        0.092   4.856  -3.379  0.00  0.00    -0.460 OA
BRANCH   7  16
ATOM     16  C   LIG    1       -1.800   4.129  -5.684  0.00  0.00    +0.210 C 
BRANCH  16  18
ATOM     17  C   LIG    1       -2.640   3.909  -7.919  0.00  0.00    +0.210 C 
ATOM     18  O   LIG    1       -2.882   4.369  -6.587  0.00  0.00    -0.380 OA
ENDBRANCH  16  18
ENDBRANCH   7  16
ENDBRANCH   1  11
BRANCH   4  19
ATOM     19  C   LIG    1       -0.133   1.012   2.357  0.00  0.00    +0.340 A 
ATOM     20  C   LIG    1       -0.646   1.347   3.608  0.00  0.00    -0.040 A 
ATOM     21  C   LIG    1       -0.087   0.800   4.732  0.00  0.00    +0.150 A 
ATOM     22  C   LIG    1        0.998  -0.077   4.581  0.00  0.00    -0.110 A 
ATOM     23  C   LIG    1        1.463  -0.364   3.297  0.00  0.00    +0.360 A 
ATOM     24  N   LIG    1        0.893   0.180   2.242  0.00  0.00    -0.520 NA
BRANCH  22  25
ATOM     25  C   LIG    1        1.618  -0.668   5.728  0.00  0.00    +0.260 C 
ATOM     26  N   LIG    1        2.111  -1.137   6.638  0.00  0.00    -0.410 NA
ENDBRANCH  22  25
ENDBRANCH   4  19
TORSDOF 5
