REMARK  Name = ZINCrH000004rqiS.0
REMARK                            x       y       z     vdW  Elec       q    Type
REMARK                         _______ _______ _______ _____ _____    ______ ____
ROOT
ATOM      1  C   LIG    1        2.417   1.215   0.065  0.00  0.00    -0.100 A 
ATOM      2  C   LIG    1        2.605  -0.171   0.054  0.00  0.00    +0.100 A 
ATOM      3  C   LIG    1        3.875  -0.690   0.158  0.00  0.00    +0.120 A 
ATOM      4  C   LIG    1        4.967   0.164   0.286  0.00  0.00    -0.070 A 
ATOM      5  C   LIG    1        4.777   1.544   0.303  0.00  0.00    +0.010 A 
ATOM      6  C   LIG    1        3.520   2.066   0.194  0.00  0.00    +0.170 A 
ENDROOT
BRANCH   1   9
ATOM      7  N   LIG    1       -0.002   0.957  -0.177  0.00  0.00    -0.660 N 
ATOM      8  H   LIG    1        0.132  -0.001  -0.259  0.00  0.00    +0.410 HD
ATOM      9  C   LIG    1        1.059   1.778  -0.053  0.00  0.00    +0.560 C 
ATOM     10  O   LIG    1        0.897   2.983  -0.038  0.00  0.00    -0.500 OA
BRANCH   7  15
ATOM     11  C   LIG    1       -5.253   3.101  -0.246  0.00  0.00    +0.090 C 
ATOM     12  C   LIG    1       -3.858   2.531  -0.228  0.00  0.00    -0.090 A 
ATOM     13  C   LIG    1       -2.817   3.239  -0.799  0.00  0.00    +0.020 A 
ATOM     14  C   LIG    1       -1.536   2.722  -0.779  0.00  0.00    +0.030 A 
ATOM     15  C   LIG    1       -1.297   1.485  -0.195  0.00  0.00    +0.130 A 
ATOM     16  C   LIG    1       -2.345   0.776   0.378  0.00  0.00    -0.100 A 
ATOM     17  C   LIG    1       -2.090  -0.564   1.018  0.00  0.00    +0.090 C 
ATOM     18  C   LIG    1       -3.623   1.301   0.360  0.00  0.00    +0.030 A 
ENDBRANCH   7  15
ENDBRANCH   1   9
BRANCH   5  19
ATOM     19  N   LIG    1        5.942   2.448   0.440  0.00  0.00    +0.020 N 
ATOM     20  O   LIG    1        7.064   1.984   0.537  0.00  0.00    -0.130 OA
ATOM     21  O   LIG    1        5.777   3.655   0.454  0.00  0.00    -0.150 OA
ENDBRANCH   5  19
BRANCH   4  22
ATOM     22  S   LIG    1        6.593  -0.501   0.427  0.00  0.00    +0.170 S 
BRANCH  22  23
ATOM     23  C   LIG    1        7.182  -0.216  -1.208  0.00  0.00    +0.140 A 
ATOM     24  N   LIG    1        6.487   0.254  -2.218  0.00  0.00    -0.290 NA
ATOM     25  N   LIG    1        7.234   0.337  -3.261  0.00  0.00    -0.290 NA
ATOM     26  C   LIG    1        8.437  -0.081  -2.984  0.00  0.00    +0.400 A 
ATOM     27  N   LIG    1        8.447  -0.448  -1.667  0.00  0.00    -0.460 N 
ATOM     28  C   LIG    1        9.581  -0.979  -0.906  0.00  0.00    +0.360 C 
ENDBRANCH  22  23
ENDBRANCH   4  22
TORSDOF 5
