REMARK  Name = ZINCnE00000h0za0.0
REMARK                            x       y       z     vdW  Elec       q    Type
REMARK                         _______ _______ _______ _____ _____    ______ ____
ROOT
ATOM      1  C   LIG    1       -2.478   3.847   0.045  0.00  0.00    -0.010 A 
ATOM      2  C   LIG    1       -2.426   5.237   0.051  0.00  0.00    -0.030 A 
ATOM      3  C   LIG    1       -1.194   5.876   0.042  0.00  0.00    +0.250 A 
ATOM      4  N   LIG    1       -0.065   5.204   0.029  0.00  0.00    -0.400 NA
ATOM      5  C   LIG    1       -0.039   3.871   0.022  0.00  0.00    +0.150 A 
ATOM      6  C   LIG    1        1.193   3.166   0.007  0.00  0.00    -0.090 A 
ATOM      7  C   LIG    1        1.184   1.776   0.000  0.00  0.00    +0.050 A 
ATOM      8  C   LIG    1       -0.013   1.076   0.008  0.00  0.00    +0.010 A 
ATOM      9  C   LIG    1       -1.218   1.738   0.017  0.00  0.00    +0.000 A 
ATOM     10  C   LIG    1       -1.249   3.138   0.030  0.00  0.00    -0.090 A 
ENDROOT
BRANCH   1  19
ATOM     11  C   LIG    1       -2.210   2.514   2.769  0.00  0.00    +0.350 C 
ATOM     12  N   LIG    1       -3.523   2.027   2.338  0.00  0.00    -0.390 N 
ATOM     13  N   LIG    1       -4.352   1.173   3.072  0.00  0.00    -0.250 NA
ATOM     14  C   LIG    1       -5.446   0.933   2.407  0.00  0.00    +0.270 A 
ATOM     15  C   LIG    1       -5.367   1.661   1.144  0.00  0.00    -0.180 A 
ATOM     16  C   LIG    1       -6.223   1.790   0.044  0.00  0.00    +0.090 A 
ATOM     17  C   LIG    1       -5.854   2.574  -1.026  0.00  0.00    -0.030 A 
ATOM     18  C   LIG    1       -4.640   3.242  -1.027  0.00  0.00    +0.080 A 
ATOM     19  C   LIG    1       -3.772   3.131   0.054  0.00  0.00    -0.060 A 
ATOM     20  C   LIG    1       -4.130   2.330   1.151  0.00  0.00    +0.150 A 
ENDBRANCH   1  19
BRANCH   6  21
ATOM     21  C   LIG    1        2.466   3.900  -0.001  0.00  0.00    +0.520 C 
ATOM     22  O   LIG    1        2.468   5.124   0.006  0.00  0.00    -0.650 OA
ATOM     23  O   LIG    1        3.526   3.287  -0.013  0.00  0.00    -0.690 OA
ENDBRANCH   6  21
TORSDOF 2
