REMARK  Name = ZINCpe000000W9VD.0
REMARK                            x       y       z     vdW  Elec       q    Type
REMARK                         _______ _______ _______ _____ _____    ______ ____
ROOT
ATOM      1  N   LIG    1       -3.133   1.070  -1.698  0.00  0.00    -0.720 N 
ATOM      2  H   LIG    1       -2.786   0.254  -2.091  0.00  0.00    +0.410 HD
ATOM      3  C   LIG    1       -4.400   1.453  -1.950  0.00  0.00    +0.710 C 
ATOM      4  N   LIG    1       -5.186   0.702  -2.747  0.00  0.00    -0.740 N 
ATOM      5  H   LIG    1       -4.838  -0.114  -3.140  0.00  0.00    +0.400 HD
ATOM      6  O   LIG    1       -4.835   2.476  -1.458  0.00  0.00    -0.580 OA
ENDROOT
BRANCH   1  13
ATOM      7  C   LIG    1       -0.821   1.627  -1.188  0.00  0.00    +0.190 C 
ATOM      8  C   LIG    1       -0.013   1.086   0.008  0.00  0.00    -0.320 C 
ATOM      9  S   LIG    1       -0.949   1.716   1.459  0.00  0.00    +2.380 S 
ATOM     10  C   LIG    1       -2.591   1.543   0.639  0.00  0.00    -0.300 C 
ATOM     11  O   LIG    1       -0.654   3.091   1.662  0.00  0.00    -0.920 OA
ATOM     12  O   LIG    1       -0.844   0.795   2.536  0.00  0.00    -0.920 OA
ATOM     13  C   LIG    1       -2.279   1.886  -0.831  0.00  0.00    +0.290 C 
BRANCH   7  15
ATOM     14  C   LIG    1        0.311   0.889  -3.168  0.00  0.00    +0.220 C 
ATOM     15  O   LIG    1       -0.766   0.676  -2.253  0.00  0.00    -0.370 OA
ENDBRANCH   7  15
ENDBRANCH   1  13
BRANCH   4  16
ATOM     16  C   LIG    1       -6.563   1.119  -3.021  0.00  0.00    +0.320 C 
BRANCH  16  17
ATOM     17  C   LIG    1       -7.014   0.532  -4.334  0.00  0.00    -0.100 A 
ATOM     18  C   LIG    1       -6.660  -0.761  -4.671  0.00  0.00    +0.010 A 
ATOM     19  C   LIG    1       -7.077  -1.300  -5.874  0.00  0.00    +0.000 A 
ATOM     20  C   LIG    1       -7.840  -0.544  -6.743  0.00  0.00    +0.000 A 
ATOM     21  C   LIG    1       -8.191   0.750  -6.408  0.00  0.00    +0.020 A 
ATOM     22  C   LIG    1       -7.777   1.289  -5.203  0.00  0.00    +0.020 A 
ENDBRANCH  16  17
BRANCH  16  23
ATOM     23  C   LIG    1       -7.478   0.622  -1.900  0.00  0.00    -0.040 C 
ATOM     24  C   LIG    1       -7.132   1.319  -0.555  0.00  0.00    +0.020 C 
ATOM     25  C   LIG    1       -8.504   1.268   0.164  0.00  0.00    +0.200 C 
ATOM     26  O   LIG    1       -9.478   1.469  -0.872  0.00  0.00    -0.380 OA
ATOM     27  C   LIG    1       -8.935   1.076  -2.138  0.00  0.00    +0.200 C 
ENDBRANCH  16  23
ENDBRANCH   4  16
TORSDOF 5
