REMARK  Name = ZINCrD000000ArUj.0
REMARK                            x       y       z     vdW  Elec       q    Type
REMARK                         _______ _______ _______ _____ _____    ______ ____
ROOT
ATOM      1  C   LIG    1       -3.411   3.782   0.043  0.00  0.00    +0.150 A 
ATOM      2  C   LIG    1       -2.871   3.354  -1.163  0.00  0.00    +0.020 A 
ATOM      3  C   LIG    1       -1.751   2.547  -1.169  0.00  0.00    +0.040 A 
ATOM      4  C   LIG    1       -1.165   2.163   0.029  0.00  0.00    +0.110 A 
ATOM      5  C   LIG    1       -1.708   2.586   1.235  0.00  0.00    +0.050 A 
ATOM      6  C   LIG    1       -2.825   3.397   1.242  0.00  0.00    +0.050 A 
ENDROOT
BRANCH   4   7
ATOM      7  N   LIG    1       -0.028   1.342   0.022  0.00  0.00    -0.450 N 
ATOM      8  C   LIG    1        0.123   0.176  -0.665  0.00  0.00    +0.490 A 
ATOM      9  N   LIG    1        1.306  -0.321  -0.449  0.00  0.00    -0.490 NA
ATOM     10  C   LIG    1        1.996   0.492   0.393  0.00  0.00    +0.050 A 
ATOM     11  C   LIG    1        3.280   0.441   0.943  0.00  0.00    +0.070 A 
ATOM     12  C   LIG    1        3.702   1.443   1.786  0.00  0.00    +0.000 A 
ATOM     13  C   LIG    1        2.864   2.506   2.093  0.00  0.00    +0.030 A 
ATOM     14  C   LIG    1        1.595   2.572   1.558  0.00  0.00    +0.010 A 
ATOM     15  C   LIG    1        1.152   1.570   0.707  0.00  0.00    +0.050 A 
ENDBRANCH   4   7
BRANCH   1  18
ATOM     16  O   LIG    1       -3.813   5.727   1.815  0.00  0.00    -0.500 OA
ATOM     17  C   LIG    1       -4.701   5.532   1.012  0.00  0.00    +0.540 C 
ATOM     18  N   LIG    1       -4.548   4.601   0.050  0.00  0.00    -0.660 N 
ATOM     19  H   LIG    1       -5.224   4.497  -0.637  0.00  0.00    +0.420 HD
BRANCH  17  20
ATOM     20  C   LIG    1       -5.976   6.331   1.091  0.00  0.00    -0.330 C 
BRANCH  20  21
ATOM     21  S   LIG    1       -5.877   7.493   2.480  0.00  0.00    +2.450 S 
ATOM     22  O   LIG    1       -4.856   8.442   2.205  0.00  0.00    -0.910 OA
ATOM     23  O   LIG    1       -5.826   6.749   3.690  0.00  0.00    -0.920 OA
BRANCH  21  24
ATOM     24  C   LIG    1       -7.484   8.330   2.384  0.00  0.00    -0.440 C 
ATOM     25  C   LIG    1       -7.662   8.975   0.994  0.00  0.00    +0.060 C 
ATOM     26  C   LIG    1       -8.405  10.303   1.285  0.00  0.00    +0.030 C 
ATOM     27  C   LIG    1       -7.757  10.774   2.611  0.00  0.00    +0.030 C 
ATOM     28  C   LIG    1       -7.545   9.473   3.412  0.00  0.00    +0.060 C 
ENDBRANCH  21  24
ENDBRANCH  20  21
ENDBRANCH  17  20
ENDBRANCH   1  18
TORSDOF 5
