REMARK  Name = ZINCpe00000cceHr.0
REMARK                            x       y       z     vdW  Elec       q    Type
REMARK                         _______ _______ _______ _____ _____    ______ ____
ROOT
ATOM      1  O   LIG    1        1.093   5.227  -2.406  0.00  0.00    -0.510 OA
ATOM      2  C   LIG    1        2.232   5.638  -2.476  0.00  0.00    +0.510 C 
ATOM      3  C   LIG    1        3.050   5.782  -1.219  0.00  0.00    +0.340 C 
ATOM      4  N   LIG    1        4.471   5.603  -1.548  0.00  0.00    -0.560 N 
ATOM      5  C   LIG    1        4.955   6.205  -2.720  0.00  0.00    +0.110 A 
ATOM      6  C   LIG    1        6.271   6.618  -2.822  0.00  0.00    +0.060 A 
ATOM      7  C   LIG    1        6.714   7.219  -3.987  0.00  0.00    +0.010 A 
ATOM      8  C   LIG    1        5.844   7.412  -5.044  0.00  0.00    +0.030 A 
ATOM      9  C   LIG    1        4.529   6.994  -4.952  0.00  0.00    +0.000 A 
ATOM     10  C   LIG    1        4.076   6.390  -3.790  0.00  0.00    +0.130 A 
ATOM     11  C   LIG    1        5.285   4.882  -0.751  0.00  0.00    +0.520 C 
ATOM     12  O   LIG    1        6.454   4.746  -1.042  0.00  0.00    -0.490 OA
ATOM     13  N   LIG    1        2.750   5.961  -3.676  0.00  0.00    -0.660 N 
ATOM     14  H   LIG    1        2.197   5.894  -4.471  0.00  0.00    +0.420 HD
ENDROOT
BRANCH  11  15
ATOM     15  C   LIG    1        4.740   4.246   0.502  0.00  0.00    +0.230 C 
BRANCH  15  16
ATOM     16  N   LIG    1        5.776   3.401   1.112  0.00  0.00    -0.510 NA
ATOM     17  C   LIG    1        6.092   2.251   0.251  0.00  0.00    +0.150 C 
ATOM     18  C   LIG    1        7.215   1.432   0.894  0.00  0.00    +0.230 C 
ATOM     19  O   LIG    1        6.814   1.031   2.207  0.00  0.00    -0.360 OA
ATOM     20  C   LIG    1        6.498   2.125   3.071  0.00  0.00    +0.090 C 
ATOM     21  C   LIG    1        7.737   3.006   3.253  0.00  0.00    +0.020 C 
ATOM     22  C   LIG    1        8.833   2.189   3.943  0.00  0.00    +0.000 C 
ATOM     23  C   LIG    1        8.298   1.652   5.273  0.00  0.00    +0.200 C 
ATOM     24  O   LIG    1        7.129   0.866   5.034  0.00  0.00    -0.370 OA
ATOM     25  C   LIG    1        6.053   1.589   4.433  0.00  0.00    +0.250 C 
ATOM     26  C   LIG    1        5.369   2.953   2.451  0.00  0.00    +0.170 C 
ENDBRANCH  15  16
ENDBRANCH  11  15
TORSDOF 2
