REMARK  Name = ZINCqH0000007GyJ.0
REMARK                            x       y       z     vdW  Elec       q    Type
REMARK                         _______ _______ _______ _____ _____    ______ ____
ROOT
ATOM      1  N   LIG    1       -3.622  -5.090  -1.479  0.00  0.00    -0.490 N 
ATOM      2  C   LIG    1       -4.314  -4.782  -0.220  0.00  0.00    +0.200 C 
ATOM      3  C   LIG    1       -4.660  -3.292  -0.183  0.00  0.00    +0.200 C 
ATOM      4  N   LIG    1       -3.428  -2.501  -0.310  0.00  0.00    -0.520 NA
ATOM      5  C   LIG    1       -2.736  -2.810  -1.569  0.00  0.00    +0.190 C 
ATOM      6  C   LIG    1       -2.389  -4.300  -1.606  0.00  0.00    +0.210 C 
ENDROOT
BRANCH   1  11
ATOM      7  C   LIG    1       -2.436  -8.313  -2.797  0.00  0.00    +0.150 A 
ATOM      8  C   LIG    1       -2.823  -9.169  -1.776  0.00  0.00    -0.100 A 
ATOM      9  C   LIG    1       -3.471  -8.671  -0.662  0.00  0.00    +0.080 A 
ATOM     10  C   LIG    1       -3.737  -7.319  -0.561  0.00  0.00    -0.080 A 
ATOM     11  C   LIG    1       -3.353  -6.457  -1.581  0.00  0.00    +0.150 A 
ATOM     12  C   LIG    1       -2.707  -6.956  -2.703  0.00  0.00    -0.040 A 
BRANCH   7  14
ATOM     13  C   LIG    1       -1.558 -10.212  -3.925  0.00  0.00    +0.250 C 
ATOM     14  O   LIG    1       -1.798  -8.804  -3.892  0.00  0.00    -0.320 OA
ENDBRANCH   7  14
ENDBRANCH   1  11
BRANCH   4  15
ATOM     15  C   LIG    1       -3.711  -1.064  -0.203  0.00  0.00    +0.220 C 
BRANCH  15  16
ATOM     16  C   LIG    1       -2.414  -0.304  -0.091  0.00  0.00    +0.520 C 
ATOM     17  N   LIG    1       -2.428   1.039   0.019  0.00  0.00    -0.670 N 
ATOM     18  H   LIG    1       -3.271   1.510   0.106  0.00  0.00    +0.420 HD
ATOM     19  O   LIG    1       -1.358  -0.901  -0.099  0.00  0.00    -0.490 OA
BRANCH  17  20
ATOM     20  C   LIG    1       -1.224   1.755   0.006  0.00  0.00    +0.180 A 
ATOM     21  C   LIG    1       -0.102   1.218  -0.610  0.00  0.00    +0.040 A 
ATOM     22  C   LIG    1        1.082   1.929  -0.626  0.00  0.00    +0.060 A 
ATOM     23  C   LIG    1        1.154   3.171  -0.025  0.00  0.00    +0.020 A 
ATOM     24  C   LIG    1        0.039   3.708   0.596  0.00  0.00    -0.010 A 
ATOM     25 CL   LIG    1        0.134   5.269   1.350  0.00  0.00    -0.040 Cl
ATOM     26  C   LIG    1       -1.149   3.002   0.616  0.00  0.00    -0.070 A 
ATOM     27 CL   LIG    1       -2.548   3.674   1.394  0.00  0.00    -0.040 Cl
ENDBRANCH  17  20
ENDBRANCH  15  16
ENDBRANCH   4  15
TORSDOF 5
