REMARK  Name = ZINCrm000000HlVO.0
REMARK                            x       y       z     vdW  Elec       q    Type
REMARK                         _______ _______ _______ _____ _____    ______ ____
ROOT
ATOM      1  N   LIG    1        0.248   3.664   6.192  0.00  0.00    -0.750 N 
ATOM      2  H   LIG    1        0.490   4.363   5.565  0.00  0.00    +0.400 HD
ATOM      3  C   LIG    1        1.115   3.291   7.154  0.00  0.00    +0.520 C 
ATOM      4  O   LIG    1        0.813   2.416   7.937  0.00  0.00    -0.500 OA
ENDROOT
BRANCH   3   5
ATOM      5  C   LIG    1        2.462   3.960   7.255  0.00  0.00    +0.000 C 
ATOM      6  C   LIG    1        3.511   3.382   6.288  0.00  0.00    +0.130 C 
ATOM      7  C   LIG    1        4.519   3.513   7.436  0.00  0.00    -0.580 C 
ATOM      8  C   LIG    1        5.242   4.857   7.473  0.00  0.00    +0.120 C 
ATOM      9  C   LIG    1        6.014   4.992   8.784  0.00  0.00    +0.160 C 
ATOM     10  C   LIG    1        7.165   3.992   8.837  0.00  0.00    +0.090 C 
ATOM     11  C   LIG    1        6.625   2.573   9.029  0.00  0.00    -0.300 C 
ATOM     12  S   LIG    1        5.661   2.110   7.558  0.00  0.00    +2.420 S 
ATOM     13  O   LIG    1        6.522   2.122   6.427  0.00  0.00    -0.910 OA
ATOM     14  O   LIG    1        4.914   0.938   7.854  0.00  0.00    -0.900 OA
ATOM     15  C   LIG    1        3.333   3.421   8.403  0.00  0.00    +0.140 C 
BRANCH   9  16
ATOM     16  N   LIG    1        6.552   6.355   8.891  0.00  0.00    -0.630 N 
ATOM     17  H   LIG    1        7.170   6.534   8.114  0.00  0.00    +0.440 HD
ATOM     18  H   LIG    1        7.063   6.448   9.756  0.00  0.00    +0.440 HD
ATOM     19  H   LIG    1        5.792   7.018   8.876  0.00  0.00    +0.440 HD
ENDBRANCH   9  16
ENDBRANCH   3   5
BRANCH   1  20
ATOM     20  C   LIG    1       -1.061   3.013   6.094  0.00  0.00    +0.320 C 
BRANCH  20  21
ATOM     21  C   LIG    1       -1.894   3.703   5.012  0.00  0.00    +0.050 C 
ATOM     22  C   LIG    1       -1.212   3.527   3.654  0.00  0.00    +0.100 C 
ATOM     23  C   LIG    1       -3.289   3.077   4.966  0.00  0.00    +0.110 C 
BRANCH  21  28
ATOM     24  C   LIG    1       -2.886   7.294   4.565  0.00  0.00    +0.010 C 
ATOM     25  C   LIG    1       -3.505   7.535   5.945  0.00  0.00    +0.050 C 
ATOM     26  C   LIG    1       -2.685   6.786   7.000  0.00  0.00    +0.050 C 
ATOM     27  C   LIG    1       -2.635   5.300   6.638  0.00  0.00    +0.250 C 
ATOM     28  N   LIG    1       -2.009   5.134   5.321  0.00  0.00    -0.380 N 
ATOM     29  H   LIG    1       -1.090   5.550   5.332  0.00  0.00    +0.410 HD
ATOM     30  C   LIG    1       -2.829   5.789   4.294  0.00  0.00    +0.260 C 
BRANCH  24  32
ATOM     31  C   LIG    1       -1.539   9.395   4.684  0.00  0.00    +0.030 C 
ATOM     32  C   LIG    1       -1.471   7.874   4.532  0.00  0.00    +0.000 C 
ENDBRANCH  24  32
ENDBRANCH  21  28
ENDBRANCH  20  21
ENDBRANCH   1  20
TORSDOF 6
