REMARK  Name = ZINCrm000000HlVO.1
REMARK                            x       y       z     vdW  Elec       q    Type
REMARK                         _______ _______ _______ _____ _____    ______ ____
ROOT
ATOM      1  N   LIG    1       -5.890   4.707   1.165  0.00  0.00    -0.750 N 
ATOM      2  H   LIG    1       -5.269   4.990   0.476  0.00  0.00    +0.390 HD
ATOM      3  C   LIG    1       -5.695   3.538   1.809  0.00  0.00    +0.520 C 
ATOM      4  O   LIG    1       -6.472   3.184   2.671  0.00  0.00    -0.500 OA
ENDROOT
BRANCH   3   5
ATOM      5  C   LIG    1       -4.512   2.673   1.458  0.00  0.00    +0.010 C 
ATOM      6  C   LIG    1       -4.433   1.376   2.282  0.00  0.00    +0.150 C 
ATOM      7  C   LIG    1       -2.920   1.611   2.353  0.00  0.00    -0.580 C 
ATOM      8  C   LIG    1       -2.140   0.972   1.206  0.00  0.00    +0.120 C 
ATOM      9  C   LIG    1       -0.699   1.479   1.216  0.00  0.00    +0.160 C 
ATOM     10  C   LIG    1        0.043   0.970   2.448  0.00  0.00    +0.090 C 
ATOM     11  C   LIG    1       -0.464   1.685   3.703  0.00  0.00    -0.300 C 
ATOM     12  S   LIG    1       -2.203   1.228   3.975  0.00  0.00    +2.420 S 
ATOM     13  O   LIG    1       -2.761   2.109   4.939  0.00  0.00    -0.900 OA
ATOM     14  O   LIG    1       -2.278  -0.176   4.185  0.00  0.00    -0.910 OA
ATOM     15  C   LIG    1       -3.207   3.103   2.150  0.00  0.00    +0.120 C 
BRANCH   9  16
ATOM     16  N   LIG    1       -0.012   1.005   0.008  0.00  0.00    -0.630 N 
ATOM     17  H   LIG    1       -0.500   1.339  -0.810  0.00  0.00    +0.440 HD
ATOM     18  H   LIG    1        0.935   1.354   0.000  0.00  0.00    +0.440 HD
ATOM     19  H   LIG    1        0.002  -0.004   0.002  0.00  0.00    +0.440 HD
ENDBRANCH   9  16
ENDBRANCH   3   5
BRANCH   1  20
ATOM     20  C   LIG    1       -7.040   5.548   1.506  0.00  0.00    +0.320 C 
BRANCH  20  21
ATOM     21  C   LIG    1       -7.027   6.806   0.636  0.00  0.00    +0.050 C 
ATOM     22  C   LIG    1       -5.734   7.585   0.884  0.00  0.00    +0.100 C 
ATOM     23  C   LIG    1       -8.228   7.685   0.992  0.00  0.00    +0.110 C 
BRANCH  21  28
ATOM     24  C   LIG    1       -7.087   7.234  -3.092  0.00  0.00    -0.010 C 
ATOM     25  C   LIG    1       -8.345   6.417  -3.398  0.00  0.00    +0.050 C 
ATOM     26  C   LIG    1       -8.389   5.199  -2.470  0.00  0.00    +0.050 C 
ATOM     27  C   LIG    1       -8.344   5.672  -1.016  0.00  0.00    +0.250 C 
ATOM     28  N   LIG    1       -7.104   6.422  -0.780  0.00  0.00    -0.380 N 
ATOM     29  H   LIG    1       -6.312   5.843  -1.014  0.00  0.00    +0.410 HD
ATOM     30  C   LIG    1       -7.088   7.630  -1.614  0.00  0.00    +0.250 C 
BRANCH  24  32
ATOM     31  C   LIG    1       -6.945   8.099  -5.432  0.00  0.00    +0.030 C 
ATOM     32  C   LIG    1       -7.073   8.494  -3.959  0.00  0.00    +0.030 C 
ENDBRANCH  24  32
ENDBRANCH  21  28
ENDBRANCH  20  21
ENDBRANCH   1  20
TORSDOF 6
