REMARK  Name = ZINCtV00000tRR0Q.0
REMARK                            x       y       z     vdW  Elec       q    Type
REMARK                         _______ _______ _______ _____ _____    ______ ____
ROOT
ATOM      1  C   LIG    1       -1.688  -0.188   0.777  0.00  0.00    +0.100 C 
ATOM      2  C   LIG    1       -0.309   0.381   0.563  0.00  0.00    -0.060 A 
ATOM      3  C   LIG    1       -0.160   1.720   0.365  0.00  0.00    +0.040 A 
ATOM      4  C   LIG    1        1.122   2.259   0.165  0.00  0.00    +0.150 A 
ATOM      5  N   LIG    1        1.290   3.572  -0.031  0.00  0.00    -0.470 NA
ATOM      6  C   LIG    1        2.472   4.101  -0.220  0.00  0.00    +0.200 A 
ATOM      7  C   LIG    1        3.637   3.317  -0.227  0.00  0.00    -0.190 A 
ATOM      8  C   LIG    1        3.534   1.931  -0.027  0.00  0.00    +0.060 A 
ATOM      9  C   LIG    1        2.586   5.588  -0.435  0.00  0.00    +0.150 C 
ATOM     10  C   LIG    1        2.240   1.389   0.174  0.00  0.00    -0.100 A 
ATOM     11  C   LIG    1        2.052   0.016   0.381  0.00  0.00    +0.050 A 
ATOM     12  C   LIG    1        0.793  -0.470   0.572  0.00  0.00    +0.010 A 
ENDROOT
BRANCH   8  13
ATOM     13  C   LIG    1        4.733   1.067  -0.026  0.00  0.00    -0.070 A 
ATOM     14  C   LIG    1        5.117   0.400   1.139  0.00  0.00    +0.030 A 
ATOM     15  C   LIG    1        6.233  -0.409   1.131  0.00  0.00    +0.010 A 
ATOM     16  C   LIG    1        6.979  -0.553  -0.026  0.00  0.00    +0.020 A 
ATOM     17  C   LIG    1        6.608   0.109  -1.183  0.00  0.00    +0.010 A 
ATOM     18  C   LIG    1        5.490   0.917  -1.190  0.00  0.00    +0.040 A 
ENDBRANCH   8  13
BRANCH   7  19
ATOM     19  C   LIG    1        4.956   3.943  -0.441  0.00  0.00    +0.450 C 
ATOM     20  O   LIG    1        5.357   4.146  -1.573  0.00  0.00    -0.440 OA
BRANCH  19  21
ATOM     21  C   LIG    1        5.781   4.321   0.706  0.00  0.00    -0.110 C 
ATOM     22  C   LIG    1        6.937   4.992   0.514  0.00  0.00    +0.130 C 
BRANCH  22  23
ATOM     23  C   LIG    1        7.768   5.372   1.667  0.00  0.00    -0.090 A 
ATOM     24  C   LIG    1        7.361   5.045   2.965  0.00  0.00    +0.040 A 
ATOM     25  C   LIG    1        8.147   5.401   4.040  0.00  0.00    +0.000 A 
ATOM     26  C   LIG    1        9.331   6.088   3.839  0.00  0.00    +0.030 A 
ATOM     27  C   LIG    1        9.738   6.420   2.558  0.00  0.00    +0.000 A 
ATOM     28  C   LIG    1        8.966   6.067   1.472  0.00  0.00    -0.060 A 
ATOM     29  C   LIG    1        9.412   6.429   0.079  0.00  0.00    +0.090 C 
ENDBRANCH  22  23
ENDBRANCH  19  21
ENDBRANCH   7  19
TORSDOF 4
