REMARK  Name = ZINCrH000004tZeu.0
REMARK                            x       y       z     vdW  Elec       q    Type
REMARK                         _______ _______ _______ _____ _____    ______ ____
ROOT
ATOM      1  O   LIG    1        5.387  -0.248  -2.464  0.00  0.00    -0.510 OA
ATOM      2  C   LIG    1        5.566   0.585  -1.601  0.00  0.00    +0.500 C 
ATOM      3  N   LIG    1        6.407   1.615  -1.821  0.00  0.00    -0.720 N 
ATOM      4  H   LIG    1        6.500   2.316  -1.158  0.00  0.00    +0.400 HD
ENDROOT
BRANCH   3   5
ATOM      5  C   LIG    1        7.181   1.674  -3.064  0.00  0.00    +0.300 C 
BRANCH   5   6
ATOM      6  C   LIG    1        8.396   0.790  -2.942  0.00  0.00    -0.120 A 
ATOM      7  C   LIG    1        8.929   0.517  -1.697  0.00  0.00    +0.050 A 
ATOM      8  C   LIG    1       10.044  -0.293  -1.585  0.00  0.00    +0.000 A 
ATOM      9  C   LIG    1       10.625  -0.831  -2.717  0.00  0.00    +0.040 A 
ATOM     10  C   LIG    1       10.093  -0.560  -3.964  0.00  0.00    -0.010 A 
ATOM     11  C   LIG    1        8.974   0.247  -4.077  0.00  0.00    +0.110 A 
ATOM     12  F   LIG    1        8.449   0.509  -5.294  0.00  0.00    -0.140 F 
ENDBRANCH   5   6
BRANCH   5  13
ATOM     13  C   LIG    1        7.624   3.116  -3.320  0.00  0.00    +0.000 C 
ATOM     14  C   LIG    1        8.403   3.654  -2.102  0.00  0.00    +0.020 C 
ATOM     15  C   LIG    1        7.969   5.138  -1.999  0.00  0.00    +0.010 C 
ATOM     16  C   LIG    1        6.466   5.081  -2.369  0.00  0.00    +0.000 C 
ATOM     17  C   LIG    1        6.392   4.023  -3.490  0.00  0.00    +0.020 C 
ENDBRANCH   5  13
ENDBRANCH   3   5
BRANCH   2  18
ATOM     18  C   LIG    1        4.847   0.469  -0.281  0.00  0.00    +0.370 C 
BRANCH  18  19
ATOM     19  N   LIG    1        3.999  -0.726  -0.291  0.00  0.00    -0.530 N 
ATOM     20  C   LIG    1        2.714  -0.788  -0.692  0.00  0.00    +0.640 A 
ATOM     21  O   LIG    1        2.264  -2.045  -0.558  0.00  0.00    -0.230 OA
ATOM     22  C   LIG    1        3.257  -2.824  -0.065  0.00  0.00    +0.040 A 
ATOM     23  C   LIG    1        3.332  -4.169   0.259  0.00  0.00    +0.060 A 
ATOM     24  C   LIG    1        4.509  -4.694   0.756  0.00  0.00    +0.030 A 
ATOM     25  C   LIG    1        5.616  -3.883   0.933  0.00  0.00    +0.040 A 
ATOM     26  C   LIG    1        5.551  -2.540   0.614  0.00  0.00    +0.030 A 
ATOM     27  O   LIG    1        2.063   0.150  -1.111  0.00  0.00    -0.480 OA
ATOM     28  C   LIG    1        4.373  -2.006   0.115  0.00  0.00    +0.080 A 
ENDBRANCH  18  19
ENDBRANCH   2  18
TORSDOF 5
