REMARK  Name = ZINCbw0000000HpE.0
REMARK                            x       y       z     vdW  Elec       q    Type
REMARK                         _______ _______ _______ _____ _____    ______ ____
ROOT
ATOM      1  O   LIG    1        2.753   2.156  -1.959  0.00  0.00    -0.450 OA
ATOM      2  C   LIG    1        2.143   1.456  -1.187  0.00  0.00    +0.370 C 
ATOM      3  C   LIG    1        1.418   2.057  -0.000  0.00  0.00    +0.020 C 
ATOM      4  C   LIG    1       -0.019   1.525   0.010  0.00  0.00    +0.040 C 
ATOM      5  C   LIG    1        0.002  -0.004   0.002  0.00  0.00    +0.010 C 
ATOM      6  C   LIG    1        0.630  -0.507  -1.300  0.00  0.00    +0.050 C 
ATOM      7  C   LIG    1        2.082  -0.038  -1.377  0.00  0.00    -0.110 C 
ATOM      8  C   LIG    1        2.687  -0.416  -2.740  0.00  0.00    +0.040 C 
ATOM      9  C   LIG    1        4.152  -0.800  -2.410  0.00  0.00    +0.010 C 
ATOM     10  C   LIG    1        4.017  -1.531  -1.051  0.00  0.00    +0.010 C 
ATOM     11  C   LIG    1        2.923  -0.740  -0.302  0.00  0.00    +0.030 C 
ENDROOT
TORSDOF 0
