REMARK  Name = ZINCrD0000075EoP.0
REMARK                            x       y       z     vdW  Elec       q    Type
REMARK                         _______ _______ _______ _____ _____    ______ ____
ROOT
ATOM      1  C   LIG    1        1.643   9.453   0.178  0.00  0.00    +0.320 C 
ENDROOT
BRANCH   1   2
ATOM      2  C   LIG    1        1.825   7.958   0.130  0.00  0.00    -0.110 A 
ATOM      3  C   LIG    1        3.096   7.420   0.043  0.00  0.00    +0.060 A 
ATOM      4  C   LIG    1        3.266   6.050  -0.001  0.00  0.00    +0.020 A 
ATOM      5  C   LIG    1        2.160   5.213   0.043  0.00  0.00    +0.090 A 
ATOM      6  C   LIG    1        0.885   5.756   0.124  0.00  0.00    +0.020 A 
ATOM      7  C   LIG    1        0.721   7.126   0.173  0.00  0.00    +0.060 A 
BRANCH   5   8
ATOM      8  O   LIG    1        2.324   3.865   0.000  0.00  0.00    -0.250 OA
BRANCH   8   9
ATOM      9  C   LIG    1        2.471   3.203   1.178  0.00  0.00    +0.150 A 
ATOM     10  C   LIG    1        2.653   1.827   1.183  0.00  0.00    -0.020 A 
ATOM     11  C   LIG    1        2.802   1.155   2.381  0.00  0.00    +0.090 A 
ATOM     12  C   LIG    1        2.764   1.850   3.575  0.00  0.00    -0.050 A 
ATOM     13  C   LIG    1        2.588   3.224   3.573  0.00  0.00    +0.140 A 
ATOM     14  F   LIG    1        2.556   3.902   4.741  0.00  0.00    -0.130 F 
ATOM     15  C   LIG    1        2.438   3.901   2.376  0.00  0.00    -0.090 A 
ENDBRANCH   8   9
ENDBRANCH   5   8
ENDBRANCH   1   2
BRANCH   1  18
ATOM     16  O   LIG    1        1.287  12.052  -0.444  0.00  0.00    -0.520 OA
ATOM     17  C   LIG    1        1.329  11.293  -1.389  0.00  0.00    +0.510 C 
ATOM     18  N   LIG    1        1.503   9.972  -1.185  0.00  0.00    -0.720 N 
ATOM     19  H   LIG    1        1.537   9.365  -1.941  0.00  0.00    +0.400 HD
BRANCH  17  20
ATOM     20  C   LIG    1        1.185  11.826  -2.791  0.00  0.00    +0.230 C 
ATOM     21  C   LIG    1       -0.096  11.266  -3.448  0.00  0.00    +0.070 C 
ATOM     22  C   LIG    1       -0.564  12.467  -4.301  0.00  0.00    +0.070 C 
ATOM     23  C   LIG    1        0.034  13.671  -3.607  0.00  0.00    +0.520 C 
ATOM     24  O   LIG    1       -0.313  14.819  -3.786  0.00  0.00    -0.520 OA
ATOM     25  N   LIG    1        1.006  13.283  -2.764  0.00  0.00    -0.570 N 
BRANCH  25  26
ATOM     26  C   LIG    1        1.788  14.196  -1.926  0.00  0.00    +0.230 C 
ATOM     27  C   LIG    1        1.339  15.658  -1.866  0.00  0.00    +0.040 C 
ATOM     28  C   LIG    1        2.607  15.277  -2.634  0.00  0.00    -0.010 C 
ENDBRANCH  25  26
ENDBRANCH  17  20
ENDBRANCH   1  18
TORSDOF 6
