REMARK  Name = ZINCrD00000755hX.0
REMARK                            x       y       z     vdW  Elec       q    Type
REMARK                         _______ _______ _______ _____ _____    ______ ____
ROOT
ATOM      1  C   LIG    1        3.550   0.735  -0.028  0.00  0.00    +0.560 C 
ATOM      2  O   LIG    1        4.147   0.743  -1.086  0.00  0.00    -0.490 OA
ENDROOT
BRANCH   1   9
ATOM      3  C   LIG    1        1.702  -1.845  -0.024  0.00  0.00    +0.180 C 
ATOM      4  C   LIG    1        1.242  -0.411  -0.012  0.00  0.00    +0.130 A 
ATOM      5  N   LIG    1        0.002  -0.004   0.002  0.00  0.00    -0.280 NA
ATOM      6  N   LIG    1       -0.017   1.395   0.010  0.00  0.00    -0.310 N 
ATOM      7  C   LIG    1        1.253   1.839   0.000  0.00  0.00    +0.150 A 
ATOM      8  C   LIG    1        1.695   3.279   0.004  0.00  0.00    +0.170 C 
ATOM      9  C   LIG    1        2.077   0.730  -0.014  0.00  0.00    -0.270 A 
BRANCH   6  10
ATOM     10  C   LIG    1       -1.165   2.199   0.020  0.00  0.00    +0.140 A 
ATOM     11  C   LIG    1       -1.169   3.398   0.720  0.00  0.00    +0.000 A 
ATOM     12  C   LIG    1       -2.300   4.190   0.723  0.00  0.00    +0.040 A 
ATOM     13  C   LIG    1       -3.432   3.785   0.039  0.00  0.00    +0.020 A 
ATOM     14  C   LIG    1       -3.433   2.588  -0.654  0.00  0.00    +0.040 A 
ATOM     15  C   LIG    1       -2.303   1.794  -0.666  0.00  0.00    +0.040 A 
ENDBRANCH   6  10
ENDBRANCH   1   9
BRANCH   1  16
ATOM     16  O   LIG    1        4.234   0.732   1.133  0.00  0.00    -0.320 OA
BRANCH  16  17
ATOM     17  C   LIG    1        5.684   0.738   1.043  0.00  0.00    +0.240 C 
BRANCH  17  18
ATOM     18  C   LIG    1        6.273   0.733   2.430  0.00  0.00    +0.520 C 
ATOM     19  N   LIG    1        7.611   0.737   2.594  0.00  0.00    -0.720 N 
ATOM     20  H   LIG    1        8.194   0.743   1.819  0.00  0.00    +0.400 HD
ATOM     21  O   LIG    1        5.543   0.725   3.399  0.00  0.00    -0.510 OA
BRANCH  19  22
ATOM     22  C   LIG    1        8.184   0.732   3.942  0.00  0.00    +0.240 C 
ATOM     23  C   LIG    1        8.262   2.167   4.468  0.00  0.00    +0.010 C 
ATOM     24  C   LIG    1        9.147   3.002   3.541  0.00  0.00    +0.010 C 
ATOM     25  C   LIG    1       10.552   2.398   3.496  0.00  0.00    -0.020 C 
ATOM     26  C   LIG    1       10.474   0.963   2.970  0.00  0.00    +0.010 C 
ATOM     27  C   LIG    1       11.437   3.233   2.568  0.00  0.00    +0.020 C 
ATOM     28  C   LIG    1        9.588   0.128   3.897  0.00  0.00    +0.020 C 
ENDBRANCH  19  22
ENDBRANCH  17  18
ENDBRANCH  16  17
ENDBRANCH   1  16
TORSDOF 6
