REMARK  Name = ZINCrH00000tj1j6.0
REMARK                            x       y       z     vdW  Elec       q    Type
REMARK                         _______ _______ _______ _____ _____    ______ ____
ROOT
ATOM      1  N   LIG    1        1.347  11.782   7.371  0.00  0.00    -0.320 N 
ATOM      2  N   LIG    1        0.450  10.951   8.056  0.00  0.00    -0.280 NA
ATOM      3  C   LIG    1        0.047  10.015   7.236  0.00  0.00    +0.100 A 
ATOM      4  C   LIG    1        0.680  10.207   5.999  0.00  0.00    +0.000 A 
ATOM      5  C   LIG    1       -0.928   8.914   7.566  0.00  0.00    +0.160 C 
ATOM      6  C   LIG    1        1.474  11.304   6.103  0.00  0.00    +0.070 A 
ATOM      7  C   LIG    1        2.338  11.885   5.015  0.00  0.00    +0.160 C 
ENDROOT
BRANCH   1  12
ATOM      8  C   LIG    1        3.984  16.331   9.506  0.00  0.00    +0.090 C 
ATOM      9  C   LIG    1        3.283  15.123   8.939  0.00  0.00    -0.080 A 
ATOM     10  C   LIG    1        2.754  15.168   7.663  0.00  0.00    +0.030 A 
ATOM     11  C   LIG    1        2.111  14.063   7.140  0.00  0.00    +0.010 A 
ATOM     12  C   LIG    1        1.998  12.905   7.898  0.00  0.00    +0.150 A 
ATOM     13  C   LIG    1        2.526  12.865   9.182  0.00  0.00    +0.030 A 
ATOM     14  C   LIG    1        3.172  13.972   9.697  0.00  0.00    +0.030 A 
ENDBRANCH   1  12
BRANCH   4  15
ATOM     15  N   LIG    1        0.517   9.409   4.851  0.00  0.00    -0.630 N 
ATOM     16  H   LIG    1        0.600   9.804   3.969  0.00  0.00    +0.410 HD
ATOM     17  C   LIG    1        0.247   8.094   4.977  0.00  0.00    +0.530 C 
ATOM     18  O   LIG    1        0.251   7.577   6.075  0.00  0.00    -0.500 OA
BRANCH  17  19
ATOM     19  C   LIG    1       -0.059   7.267   3.756  0.00  0.00    +0.100 C 
BRANCH  19  20
ATOM     20  S   LIG    1       -0.377   5.555   4.250  0.00  0.00    +0.160 S 
BRANCH  20  21
ATOM     21  C   LIG    1       -0.697   4.836   2.674  0.00  0.00    +0.110 A 
ATOM     22  N   LIG    1       -0.684   5.457   1.518  0.00  0.00    -0.290 NA
ATOM     23  N   LIG    1       -0.957   4.618   0.582  0.00  0.00    -0.280 NA
ATOM     24  C   LIG    1       -1.163   3.441   1.097  0.00  0.00    +0.200 A 
ATOM     25  O   LIG    1       -1.000   3.547   2.431  0.00  0.00    -0.200 OA
BRANCH  24  26
ATOM     26  C   LIG    1       -1.513   2.186   0.340  0.00  0.00    +0.050 C 
ATOM     27  C   LIG    1       -0.520   1.699  -0.718  0.00  0.00    +0.060 C 
ATOM     28  C   LIG    1       -1.846   2.329  -1.147  0.00  0.00    +0.080 C 
ENDBRANCH  24  26
ENDBRANCH  20  21
ENDBRANCH  19  20
ENDBRANCH  17  19
ENDBRANCH   4  15
TORSDOF 6
