REMARK  Name = ZINCrH000004jULg.0
REMARK                            x       y       z     vdW  Elec       q    Type
REMARK                         _______ _______ _______ _____ _____    ______ ____
ROOT
ATOM      1  C   LIG    1        1.666   1.651   2.261  0.00  0.00    -0.270 A 
ATOM      2  C   LIG    1        2.506   1.252   1.240  0.00  0.00    +0.270 A 
ATOM      3  N   LIG    1        3.645   0.814   1.806  0.00  0.00    -0.310 N 
ATOM      4  N   LIG    1        3.526   0.936   3.195  0.00  0.00    -0.280 NA
ATOM      5  C   LIG    1        2.355   1.438   3.476  0.00  0.00    +0.150 A 
ENDROOT
BRANCH   3   6
ATOM      6  C   LIG    1        4.763   0.318   1.121  0.00  0.00    +0.150 A 
ATOM      7  C   LIG    1        4.751   0.243  -0.266  0.00  0.00    -0.010 A 
ATOM      8  C   LIG    1        5.856  -0.240  -0.939  0.00  0.00    +0.040 A 
ATOM      9  C   LIG    1        6.969  -0.660  -0.233  0.00  0.00    +0.010 A 
ATOM     10  C   LIG    1        6.981  -0.592   1.148  0.00  0.00    +0.040 A 
ATOM     11  C   LIG    1        5.881  -0.104   1.827  0.00  0.00    +0.030 A 
ENDBRANCH   3   6
BRANCH   1  14
ATOM     12  C   LIG    1        1.204   3.842   0.548  0.00  0.00    +0.280 C 
ATOM     13  N   LIG    1        0.099   3.277   1.325  0.00  0.00    -0.610 N 
ATOM     14  C   LIG    1        0.307   2.201   2.110  0.00  0.00    +0.600 C 
ATOM     15  O   LIG    1       -0.627   1.685   2.694  0.00  0.00    -0.520 OA
BRANCH  13  16
ATOM     16  C   LIG    1       -1.233   3.883   1.251  0.00  0.00    +0.290 C 
BRANCH  16  17
ATOM     17  C   LIG    1       -2.030   3.225   0.122  0.00  0.00    -0.010 C 
ATOM     18  C   LIG    1       -2.272   1.753   0.460  0.00  0.00    +0.040 C 
ATOM     19  C   LIG    1       -3.069   1.095  -0.669  0.00  0.00    +0.000 C 
ATOM     20  C   LIG    1       -4.412   1.810  -0.830  0.00  0.00    +0.000 C 
ATOM     21  C   LIG    1       -4.169   3.282  -1.167  0.00  0.00    -0.020 C 
ATOM     22  C   LIG    1       -3.373   3.940  -0.038  0.00  0.00    +0.170 C 
BRANCH  22  23
ATOM     23  O   LIG    1       -3.146   5.315  -0.354  0.00  0.00    -0.570 OA
ATOM     24  H   LIG    1       -3.956   5.831  -0.470  0.00  0.00    +0.380 HD
ENDBRANCH  22  23
ENDBRANCH  16  17
ENDBRANCH  13  16
ENDBRANCH   1  14
BRANCH   5  25
ATOM     25  C   LIG    1        1.828   1.736   4.856  0.00  0.00    +0.010 C 
ATOM     26  C   LIG    1        1.272   3.161   4.893  0.00  0.00    +0.040 C 
ATOM     27  C   LIG    1        2.962   1.605   5.875  0.00  0.00    +0.040 C 
ATOM     28  C   LIG    1        0.715   0.745   5.202  0.00  0.00    +0.050 C 
ENDBRANCH   5  25
TORSDOF 6
