REMARK  Name = ZINC9H0000000CDr.0
REMARK                            x       y       z     vdW  Elec       q    Type
REMARK                         _______ _______ _______ _____ _____    ______ ____
ROOT
ATOM      1 CL   LIG    1       -1.532   2.228   0.021  0.00  0.00    -0.030 Cl
ATOM      2  C   LIG    1       -0.017   1.380   0.010  0.00  0.00    -0.010 A 
ATOM      3  C   LIG    1        1.172   2.087   0.002  0.00  0.00    +0.050 A 
ATOM      4  C   LIG    1        2.378   1.413  -0.013  0.00  0.00    +0.070 A 
ATOM      5  C   LIG    1        2.398   0.030  -0.021  0.00  0.00    +0.050 A 
ATOM      6  C   LIG    1        1.210  -0.679  -0.013  0.00  0.00    -0.010 A 
ATOM      7 CL   LIG    1        1.236  -2.415  -0.022  0.00  0.00    -0.030 Cl
ATOM      8  C   LIG    1        0.002  -0.004   0.002  0.00  0.00    -0.090 A 
ATOM      9 BR   LIG    1       -1.622  -0.972   0.013  0.00  0.00    -0.000 Br
ENDROOT
TORSDOF 0
