REMARK  Name = ZINCrD000000AgGK.0
REMARK                            x       y       z     vdW  Elec       q    Type
REMARK                         _______ _______ _______ _____ _____    ______ ____
ROOT
ATOM      1  O   LIG    1        2.907  11.825  -0.069  0.00  0.00    -0.510 OA
ATOM      2  C   LIG    1        3.909  11.142  -0.080  0.00  0.00    +0.520 C 
ATOM      3  N   LIG    1        3.811   9.801   0.016  0.00  0.00    -0.670 N 
ATOM      4  H   LIG    1        4.613   9.260   0.084  0.00  0.00    +0.420 HD
ENDROOT
BRANCH   3   5
ATOM      5  C   LIG    1        2.553   9.190   0.018  0.00  0.00    +0.180 A 
ATOM      6  C   LIG    1        2.342   8.034   0.759  0.00  0.00    -0.050 A 
ATOM      7  C   LIG    1        1.100   7.430   0.761  0.00  0.00    +0.070 A 
ATOM      8  C   LIG    1        0.062   7.976   0.031  0.00  0.00    -0.090 A 
ATOM      9  C   LIG    1        0.268   9.129  -0.715  0.00  0.00    +0.150 A 
ATOM     10  C   LIG    1        1.513   9.737  -0.720  0.00  0.00    -0.010 A 
BRANCH   9  11
ATOM     11  O   LIG    1       -0.753   9.662  -1.437  0.00  0.00    -0.310 OA
BRANCH  11  12
ATOM     12  C   LIG    1       -2.009   8.982  -1.386  0.00  0.00    +0.290 C 
BRANCH  12  13
ATOM     13  C   LIG    1       -3.011   9.714  -2.241  0.00  0.00    +0.120 A 
ATOM     14  C   LIG    1       -2.628  10.858  -2.914  0.00  0.00    -0.010 A 
ATOM     15  C   LIG    1       -3.558  11.524  -3.698  0.00  0.00    +0.070 A 
ATOM     16  C   LIG    1       -4.844  11.012  -3.775  0.00  0.00    -0.030 A 
ATOM     17  C   LIG    1       -5.156   9.865  -3.068  0.00  0.00    +0.260 A 
ATOM     18  N   LIG    1       -4.244   9.255  -2.337  0.00  0.00    -0.480 NA
ENDBRANCH  12  13
ENDBRANCH  11  12
ENDBRANCH   9  11
ENDBRANCH   3   5
BRANCH   2  19
ATOM     19  C   LIG    1        5.263  11.792  -0.203  0.00  0.00    +0.110 C 
BRANCH  19  20
ATOM     20  C   LIG    1        5.094  13.310  -0.296  0.00  0.00    -0.320 C 
BRANCH  20  21
ATOM     21  S   LIG    1        6.723  14.092  -0.443  0.00  0.00    +2.410 S 
ATOM     22  O   LIG    1        7.303  13.702  -1.681  0.00  0.00    -0.930 OA
ATOM     23  O   LIG    1        7.444  13.868   0.761  0.00  0.00    -0.940 OA
BRANCH  21  24
ATOM     24  C   LIG    1        6.288  15.851  -0.537  0.00  0.00    -0.430 C 
ATOM     25  C   LIG    1        5.328  16.095  -1.719  0.00  0.00    +0.060 C 
ATOM     26  C   LIG    1        5.767  17.468  -2.287  0.00  0.00    +0.030 C 
ATOM     27  C   LIG    1        7.309  17.418  -2.151  0.00  0.00    +0.030 C 
ATOM     28  C   LIG    1        7.547  16.692  -0.810  0.00  0.00    +0.060 C 
ENDBRANCH  21  24
ENDBRANCH  20  21
ENDBRANCH  19  20
ENDBRANCH   2  19
TORSDOF 8
