REMARK  Name = ZINCwl0000000zef.1
REMARK                            x       y       z     vdW  Elec       q    Type
REMARK                         _______ _______ _______ _____ _____    ______ ____
ROOT
ATOM      1  C   LIG    1       -0.013   1.086   0.008  0.00  0.00    +0.160 C 
ATOM      2  C   LIG    1       -0.816   1.624   1.221  0.00  0.00    +0.090 C 
ATOM      3  C   LIG    1       -2.277   1.550   0.729  0.00  0.00    +0.260 C 
ATOM      4  N   LIG    1       -2.243   1.544  -0.741  0.00  0.00    -0.620 N 
ATOM      5  C   LIG    1       -3.317   1.467  -1.551  0.00  0.00    +0.610 C 
ATOM      6  O   LIG    1       -3.169   1.470  -2.759  0.00  0.00    -0.490 OA
ATOM      7  C   LIG    1       -0.838   1.637  -1.182  0.00  0.00    +0.310 C 
ENDROOT
BRANCH   5   8
ATOM      8  C   LIG    1       -4.667   1.379  -0.976  0.00  0.00    +0.000 A 
ATOM      9  C   LIG    1       -5.822   1.296  -1.687  0.00  0.00    +0.100 A 
ATOM     10  C   LIG    1       -6.893   1.229  -0.763  0.00  0.00    -0.130 A 
ATOM     11  C   LIG    1       -8.283   1.134  -0.906  0.00  0.00    +0.160 A 
ATOM     12  C   LIG    1       -9.078   1.087   0.202  0.00  0.00    +0.010 A 
ATOM     13  C   LIG    1       -8.523   1.132   1.474  0.00  0.00    +0.180 A 
ATOM     14  C   LIG    1       -7.159   1.225   1.641  0.00  0.00    -0.070 A 
ATOM     15  C   LIG    1       -6.327   1.275   0.526  0.00  0.00    +0.160 A 
ATOM     16  N   LIG    1       -4.963   1.360   0.373  0.00  0.00    -0.570 N 
ATOM     17  H   LIG    1       -4.315   1.403   1.094  0.00  0.00    +0.430 HD
BRANCH  14  18
ATOM     18  N   LIG    1       -6.580   1.273   3.002  0.00  0.00    +0.040 N 
ATOM     19  O   LIG    1       -5.373   1.355   3.148  0.00  0.00    -0.200 OA
ATOM     20  O   LIG    1       -7.309   1.229   3.977  0.00  0.00    -0.140 OA
ENDBRANCH  14  18
ENDBRANCH   5   8
BRANCH   1  21
ATOM     21  N   LIG    1        1.353   1.628  -0.002  0.00  0.00    -0.370 N 
ATOM     22  C   LIG    1        2.069   1.173   1.196  0.00  0.00    +0.330 C 
ATOM     23  H   LIG    1        1.314   2.636  -0.008  0.00  0.00    +0.430 HD
BRANCH  21  24
ATOM     24  C   LIG    1        2.057   1.158  -1.202  0.00  0.00    +0.350 C 
BRANCH  24  27
ATOM     25  C   LIG    1        4.680   3.728  -1.514  0.00  0.00    +0.660 A 
ATOM     26  N   LIG    1        3.509   3.127  -1.450  0.00  0.00    -0.610 NA
ATOM     27  C   LIG    1        3.413   1.811  -1.276  0.00  0.00    +0.170 A 
ATOM     28  C   LIG    1        4.542   1.051  -1.171  0.00  0.00    -0.140 A 
ATOM     29  C   LIG    1        5.796   1.683  -1.243  0.00  0.00    +0.540 A 
ATOM     30  O   LIG    1        6.825   1.035  -1.153  0.00  0.00    -0.510 OA
ATOM     31  N   LIG    1        5.839   3.022  -1.415  0.00  0.00    -0.650 N 
ATOM     32  H   LIG    1        6.693   3.479  -1.468  0.00  0.00    +0.420 HD
BRANCH  25  34
ATOM     33  C   LIG    1        3.492   5.857  -1.796  0.00  0.00    +0.340 C 
ATOM     34  N   LIG    1        4.732   5.085  -1.688  0.00  0.00    -0.580 N 
ATOM     35  C   LIG    1        6.028   5.764  -1.766  0.00  0.00    +0.320 C 
ENDBRANCH  25  34
ENDBRANCH  24  27
ENDBRANCH  21  24
ENDBRANCH   1  21
TORSDOF 6
