REMARK  Name = ZINCwl0000000zef.2
REMARK                            x       y       z     vdW  Elec       q    Type
REMARK                         _______ _______ _______ _____ _____    ______ ____
ROOT
ATOM      1  C   LIG    1       -7.227   5.176  -0.475  0.00  0.00    +0.160 C 
ATOM      2  C   LIG    1       -6.037   5.986   0.102  0.00  0.00    +0.090 C 
ATOM      3  C   LIG    1       -4.893   4.951   0.131  0.00  0.00    +0.260 C 
ATOM      4  N   LIG    1       -5.511   3.617   0.130  0.00  0.00    -0.620 N 
ATOM      5  C   LIG    1       -4.848   2.444   0.129  0.00  0.00    +0.610 C 
ATOM      6  O   LIG    1       -5.465   1.396   0.135  0.00  0.00    -0.490 OA
ATOM      7  C   LIG    1       -6.977   3.776   0.138  0.00  0.00    +0.300 C 
ENDROOT
BRANCH   5   8
ATOM      8  C   LIG    1       -3.377   2.431   0.122  0.00  0.00    +0.000 A 
ATOM      9  C   LIG    1       -2.600   1.317   0.119  0.00  0.00    +0.100 A 
ATOM     10  C   LIG    1       -1.247   1.735   0.105  0.00  0.00    -0.130 A 
ATOM     11  C   LIG    1       -0.027   1.046   0.105  0.00  0.00    +0.160 A 
ATOM     12  C   LIG    1        1.146   1.744   0.098  0.00  0.00    +0.010 A 
ATOM     13  C   LIG    1        1.143   3.133   0.096  0.00  0.00    +0.180 A 
ATOM     14  C   LIG    1       -0.043   3.832   0.100  0.00  0.00    -0.070 A 
ATOM     15  C   LIG    1       -1.252   3.144   0.108  0.00  0.00    +0.160 A 
ATOM     16  N   LIG    1       -2.566   3.549   0.115  0.00  0.00    -0.570 N 
ATOM     17  H   LIG    1       -2.873   4.469   0.115  0.00  0.00    +0.430 HD
BRANCH  14  18
ATOM     18  N   LIG    1       -0.032   5.312   0.097  0.00  0.00    +0.040 N 
ATOM     19  O   LIG    1       -1.082   5.929   0.101  0.00  0.00    -0.200 OA
ATOM     20  O   LIG    1        1.028   5.913   0.090  0.00  0.00    -0.140 OA
ENDBRANCH  14  18
ENDBRANCH   5   8
BRANCH   1  21
ATOM     21  N   LIG    1       -8.510   5.728  -0.020  0.00  0.00    -0.370 N 
ATOM     22  C   LIG    1       -9.604   4.851  -0.458  0.00  0.00    +0.330 C 
ATOM     23  H   LIG    1       -8.511   5.789   0.987  0.00  0.00    +0.430 HD
BRANCH  21  24
ATOM     24  C   LIG    1       -8.697   7.068  -0.593  0.00  0.00    +0.360 C 
BRANCH  24  27
ATOM     25  C   LIG    1      -12.253   7.657   0.178  0.00  0.00    +0.650 A 
ATOM     26  N   LIG    1      -11.138   7.145  -0.304  0.00  0.00    -0.610 NA
ATOM     27  C   LIG    1       -9.953   7.684  -0.030  0.00  0.00    +0.160 A 
ATOM     28  C   LIG    1       -9.872   8.796   0.756  0.00  0.00    -0.130 A 
ATOM     29  C   LIG    1      -11.057   9.353   1.270  0.00  0.00    +0.540 A 
ATOM     30  O   LIG    1      -11.022  10.347   1.976  0.00  0.00    -0.510 OA
ATOM     31  N   LIG    1      -12.234   8.765   0.967  0.00  0.00    -0.650 N 
ATOM     32  H   LIG    1      -13.064   9.133   1.310  0.00  0.00    +0.420 HD
BRANCH  25  34
ATOM     33  C   LIG    1      -13.498   5.952  -1.074  0.00  0.00    +0.340 C 
ATOM     34  N   LIG    1      -13.450   7.067  -0.125  0.00  0.00    -0.580 N 
ATOM     35  C   LIG    1      -14.684   7.551   0.499  0.00  0.00    +0.320 C 
ENDBRANCH  25  34
ENDBRANCH  24  27
ENDBRANCH  21  24
ENDBRANCH   1  21
TORSDOF 6
