REMARK  Name = ZINCrD0000075WHY.0
REMARK                            x       y       z     vdW  Elec       q    Type
REMARK                         _______ _______ _______ _____ _____    ______ ____
ROOT
ATOM      1  O   LIG    1        2.887  12.991  -1.469  0.00  0.00    -0.510 OA
ATOM      2  C   LIG    1        3.941  12.743  -0.922  0.00  0.00    +0.510 C 
ATOM      3  C   LIG    1        4.031  11.573   0.023  0.00  0.00    +0.340 C 
ATOM      4  N   LIG    1        5.405  11.049   0.008  0.00  0.00    -0.560 N 
ATOM      5  C   LIG    1        6.460  11.975   0.009  0.00  0.00    +0.110 A 
ATOM      6  C   LIG    1        7.683  11.667   0.571  0.00  0.00    +0.060 A 
ATOM      7  C   LIG    1        8.703  12.602   0.554  0.00  0.00    +0.010 A 
ATOM      8  C   LIG    1        8.501  13.840  -0.029  0.00  0.00    +0.030 A 
ATOM      9  C   LIG    1        7.281  14.153  -0.601  0.00  0.00    +0.010 A 
ATOM     10  C   LIG    1        6.255  13.222  -0.590  0.00  0.00    +0.130 A 
ATOM     11  C   LIG    1        5.644   9.723  -0.001  0.00  0.00    +0.520 C 
ATOM     12  O   LIG    1        6.785   9.312  -0.013  0.00  0.00    -0.480 OA
ATOM     13  N   LIG    1        5.015  13.516  -1.168  0.00  0.00    -0.650 N 
ATOM     14  H   LIG    1        4.929  14.286  -1.752  0.00  0.00    +0.420 HD
ENDROOT
BRANCH  11  15
ATOM     15  C   LIG    1        4.493   8.750   0.005  0.00  0.00    +0.270 C 
BRANCH  15  16
ATOM     16  O   LIG    1        5.006   7.392  -0.007  0.00  0.00    -0.330 OA
BRANCH  16  17
ATOM     17  C   LIG    1        4.104   6.399  -0.004  0.00  0.00    +0.470 C 
ATOM     18  O   LIG    1        2.923   6.655   0.008  0.00  0.00    -0.500 OA
BRANCH  17  19
ATOM     19  C   LIG    1        4.562   4.963  -0.015  0.00  0.00    +0.140 C 
BRANCH  19  20
ATOM     20  C   LIG    1        3.344   4.038  -0.009  0.00  0.00    +0.090 C 
BRANCH  20  21
ATOM     21  S   LIG    1        3.896   2.310  -0.022  0.00  0.00    -0.070 S 
BRANCH  21  22
ATOM     22  C   LIG    1        2.381   1.410  -0.013  0.00  0.00    -0.080 A 
ATOM     23  C   LIG    1        1.169   2.087   0.002  0.00  0.00    +0.010 A 
ATOM     24  C   LIG    1       -0.017   1.378   0.010  0.00  0.00    +0.040 A 
ATOM     25  C   LIG    1        0.002  -0.004   0.002  0.00  0.00    +0.030 A 
ATOM     26  C   LIG    1        1.207  -0.683  -0.013  0.00  0.00    +0.050 A 
ATOM     27  C   LIG    1        2.397   0.019  -0.020  0.00  0.00    -0.020 A 
ATOM     28 CL   LIG    1        3.909  -0.833  -0.039  0.00  0.00    -0.050 Cl
ENDBRANCH  21  22
ENDBRANCH  20  21
ENDBRANCH  19  20
ENDBRANCH  17  19
ENDBRANCH  16  17
ENDBRANCH  15  16
ENDBRANCH  11  15
TORSDOF 7
