REMARK  Name = ZINCqH0000032DMw.0
REMARK                            x       y       z     vdW  Elec       q    Type
REMARK                         _______ _______ _______ _____ _____    ______ ____
ROOT
ATOM      1  C   LIG    1       -2.424   5.071   0.985  0.00  0.00    +0.200 A 
ATOM      2  N   LIG    1       -2.549   6.339   0.683  0.00  0.00    -0.470 NA
ATOM      3  C   LIG    1       -2.371   7.008   1.845  0.00  0.00    +0.210 A 
ATOM      4  N   LIG    1       -2.152   6.115   2.775  0.00  0.00    -0.370 NA
ATOM      5  O   LIG    1       -2.185   5.000   2.298  0.00  0.00    +0.090 OA
ENDROOT
BRANCH   1   9
ATOM      6  C   LIG    1       -3.576   1.994  -1.836  0.00  0.00    +0.040 C 
ATOM      7  C   LIG    1       -3.587   1.686  -0.337  0.00  0.00    +0.120 C 
ATOM      8  C   LIG    1       -3.683   2.995   0.458  0.00  0.00    +0.040 C 
ATOM      9  C   LIG    1       -2.537   3.909   0.032  0.00  0.00    +0.180 C 
ATOM     10  C   LIG    1       -1.242   3.137   0.027  0.00  0.00    -0.170 A 
ATOM     11  C   LIG    1       -0.048   3.838   0.022  0.00  0.00    +0.050 A 
ATOM     12  C   LIG    1        1.157   3.162   0.008  0.00  0.00    -0.020 A 
ATOM     13  C   LIG    1        1.174   1.780   0.000  0.00  0.00    +0.060 A 
ATOM     14  C   LIG    1       -0.013   1.076   0.008  0.00  0.00    -0.010 A 
ATOM     15  C   LIG    1       -1.228   1.753   0.017  0.00  0.00    +0.150 A 
ATOM     16  C   LIG    1       -4.783   0.791  -0.004  0.00  0.00    +0.080 C 
ATOM     17  O   LIG    1       -2.375   1.025   0.028  0.00  0.00    -0.300 OA
ENDBRANCH   1   9
BRANCH   3  18
ATOM     18  C   LIG    1       -2.417   8.479   2.030  0.00  0.00    +0.000 A 
ATOM     19  C   LIG    1       -2.220   9.009   3.289  0.00  0.00    +0.140 A 
ATOM     20  C   LIG    1       -2.257  10.401   3.462  0.00  0.00    +0.020 A 
ATOM     21  N   LIG    1       -2.116  11.245   4.473  0.00  0.00    -0.260 NA
ATOM     22  N   LIG    1       -2.261  12.447   4.035  0.00  0.00    -0.190 N 
ATOM     23  H   LIG    1       -2.200  13.234   4.598  0.00  0.00    +0.480 HD
ATOM     24  N   LIG    1       -2.497  12.491   2.770  0.00  0.00    -0.270 NA
ATOM     25  C   LIG    1       -2.518  11.257   2.294  0.00  0.00    +0.040 A 
ATOM     26  C   LIG    1       -2.716  10.656   1.038  0.00  0.00    +0.090 A 
ATOM     27  C   LIG    1       -2.665   9.306   0.921  0.00  0.00    +0.080 A 
ENDBRANCH   3  18
TORSDOF 2
