REMARK  Name = ZINCrD000000fO4j.0
REMARK                            x       y       z     vdW  Elec       q    Type
REMARK                         _______ _______ _______ _____ _____    ______ ____
ROOT
ATOM      1  C   LIG    1       -3.609   2.753   3.113  0.00  0.00    +0.590 C 
ATOM      2  N   LIG    1       -4.666   2.793   2.278  0.00  0.00    -0.660 N 
ATOM      3  H   LIG    1       -4.579   2.466   1.369  0.00  0.00    +0.420 HD
ATOM      4  O   LIG    1       -3.744   3.069   4.281  0.00  0.00    -0.500 OA
ENDROOT
BRANCH   1   9
ATOM      5  C   LIG    1       -0.130   1.800   2.479  0.00  0.00    -0.260 A 
ATOM      6  C   LIG    1       -0.708   1.629   1.232  0.00  0.00    +0.110 A 
ATOM      7  N   LIG    1       -2.006   1.955   1.320  0.00  0.00    -0.520 N 
ATOM      8  H   LIG    1       -2.643   1.929   0.588  0.00  0.00    +0.420 HD
ATOM      9  C   LIG    1       -2.295   2.330   2.615  0.00  0.00    -0.070 A 
ATOM     10  C   LIG    1        0.001   1.163  -0.014  0.00  0.00    +0.160 C 
ATOM     11  C   LIG    1       -1.151   2.247   3.351  0.00  0.00    -0.020 A 
ATOM     12  C   LIG    1       -1.003   2.569   4.816  0.00  0.00    +0.130 C 
BRANCH   5  14
ATOM     13  C   LIG    1        1.733   0.175   3.204  0.00  0.00    +0.070 C 
ATOM     14  C   LIG    1        1.274   1.562   2.830  0.00  0.00    +0.440 C 
ATOM     15  O   LIG    1        2.066   2.481   2.820  0.00  0.00    -0.450 OA
ENDBRANCH   5  14
ENDBRANCH   1   9
BRANCH   2  16
ATOM     16  C   LIG    1       -5.883   3.304   2.720  0.00  0.00    +0.220 A 
ATOM     17  C   LIG    1       -5.918   4.220   3.763  0.00  0.00    +0.020 A 
ATOM     18  C   LIG    1       -7.126   4.725   4.199  0.00  0.00    +0.080 A 
ATOM     19  C   LIG    1       -8.311   4.324   3.603  0.00  0.00    -0.020 A 
ATOM     20  C   LIG    1       -8.295   3.415   2.567  0.00  0.00    +0.070 A 
ATOM     21  C   LIG    1       -7.080   2.900   2.110  0.00  0.00    -0.190 A 
BRANCH  21  22
ATOM     22  C   LIG    1       -7.056   1.932   0.997  0.00  0.00    +0.580 C 
ATOM     23  N   LIG    1       -8.195   1.627   0.344  0.00  0.00    -0.720 N 
ATOM     24  H   LIG    1       -9.031   2.044   0.607  0.00  0.00    +0.410 HD
ATOM     25  O   LIG    1       -6.009   1.410   0.668  0.00  0.00    -0.540 OA
BRANCH  23  26
ATOM     26  C   LIG    1       -8.171   0.666  -0.761  0.00  0.00    +0.320 C 
BRANCH  26  27
ATOM     27  C   LIG    1       -9.585   0.500  -1.324  0.00  0.00    +0.450 C 
ATOM     28  F   LIG    1      -10.436   0.032  -0.317  0.00  0.00    -0.180 F 
ATOM     29  F   LIG    1       -9.562  -0.417  -2.380  0.00  0.00    -0.170 F 
ATOM     30  F   LIG    1      -10.049   1.735  -1.790  0.00  0.00    -0.180 F 
ENDBRANCH  26  27
ENDBRANCH  23  26
ENDBRANCH  21  22
ENDBRANCH   2  16
TORSDOF 6
