REMARK  Name = ZINCqH0000051pbY.0
REMARK                            x       y       z     vdW  Elec       q    Type
REMARK                         _______ _______ _______ _____ _____    ______ ____
ROOT
ATOM      1  O   LIG    1        3.260   4.295   2.627  0.00  0.00    -0.520 OA
ATOM      2  C   LIG    1        2.518   3.510   2.075  0.00  0.00    +0.530 C 
ATOM      3  N   LIG    1        2.856   2.209   1.989  0.00  0.00    -0.730 N 
ATOM      4  H   LIG    1        2.231   1.569   1.613  0.00  0.00    +0.400 HD
ENDROOT
BRANCH   3   5
ATOM      5  C   LIG    1        4.167   1.760   2.464  0.00  0.00    +0.240 C 
ATOM      6  C   LIG    1        4.560   0.474   1.733  0.00  0.00    +0.030 C 
ATOM      7  C   LIG    1        6.037   0.158   1.998  0.00  0.00    +0.150 C 
ATOM      8  C   LIG    1        6.271   0.210   3.489  0.00  0.00    +0.080 A 
ATOM      9  N   LIG    1        7.273  -0.269   4.165  0.00  0.00    -0.290 NA
ATOM     10  N   LIG    1        7.060   0.015   5.523  0.00  0.00    -0.480 N 
ATOM     11  H   LIG    1        7.648  -0.227   6.255  0.00  0.00    +0.440 HD
ATOM     12  C   LIG    1        5.890   0.685   5.630  0.00  0.00    +0.250 A 
ATOM     13  C   LIG    1        5.383   0.820   4.391  0.00  0.00    -0.230 A 
ATOM     14  C   LIG    1        4.101   1.497   3.974  0.00  0.00    +0.100 C 
ENDBRANCH   3   5
BRANCH   2  15
ATOM     15  C   LIG    1        1.217   3.992   1.486  0.00  0.00    -0.070 C 
ATOM     16  C   LIG    1        0.067   3.139   2.026  0.00  0.00    +0.040 C 
ATOM     17  C   LIG    1        0.012   3.262   3.550  0.00  0.00    +0.010 C 
ATOM     18  C   LIG    1       -0.212   4.725   3.936  0.00  0.00    +0.000 C 
ATOM     19  C   LIG    1        0.938   5.577   3.397  0.00  0.00    +0.010 C 
ATOM     20  C   LIG    1        0.992   5.455   1.872  0.00  0.00    +0.040 C 
BRANCH  15  21
ATOM     21  C   LIG    1        1.271   3.869  -0.038  0.00  0.00    +0.100 C 
BRANCH  21  22
ATOM     22  C   LIG    1        2.410   4.702  -0.569  0.00  0.00    -0.050 A 
ATOM     23  C   LIG    1        3.674   4.153  -0.681  0.00  0.00    +0.010 A 
ATOM     24  C   LIG    1        4.719   4.916  -1.168  0.00  0.00    +0.040 A 
ATOM     25  C   LIG    1        4.502   6.228  -1.543  0.00  0.00    -0.030 A 
ATOM     26  C   LIG    1        3.236   6.778  -1.431  0.00  0.00    +0.100 A 
ATOM     27  F   LIG    1        3.022   8.061  -1.799  0.00  0.00    -0.140 F 
ATOM     28  C   LIG    1        2.190   6.014  -0.944  0.00  0.00    -0.020 A 
ENDBRANCH  21  22
ENDBRANCH  15  21
ENDBRANCH   2  15
TORSDOF 4
