REMARK  Name = ZINCkj000005gtSJ.1
REMARK                            x       y       z     vdW  Elec       q    Type
REMARK                         _______ _______ _______ _____ _____    ______ ____
ROOT
ATOM      1  N   LIG    1        0.728   3.791   1.581  0.00  0.00    -0.380 N 
ATOM      2  C   LIG    1        0.625   5.234   1.831  0.00  0.00    +0.280 C 
ATOM      3  C   LIG    1        1.994   5.776   2.256  0.00  0.00    +0.350 C 
ATOM      4  N   LIG    1        2.979   5.408   1.227  0.00  0.00    -0.640 N 
ATOM      5  C   LIG    1        3.038   4.003   0.794  0.00  0.00    +0.320 C 
ATOM      6  C   LIG    1        3.805   6.331   0.697  0.00  0.00    +0.710 C 
ATOM      7  N   LIG    1        4.630   5.996  -0.316  0.00  0.00    -0.630 N 
ATOM      8  H   LIG    1        4.577   5.112  -0.712  0.00  0.00    +0.410 HD
ATOM      9  O   LIG    1        3.807   7.467   1.132  0.00  0.00    -0.530 OA
ATOM     10  C   LIG    1        1.619   3.545   0.441  0.00  0.00    +0.260 C 
ATOM     11  H   LIG    1        1.098   3.334   2.401  0.00  0.00    +0.420 HD
ENDROOT
BRANCH   7  12
ATOM     12  C   LIG    1        5.558   6.920  -0.794  0.00  0.00    +0.040 A 
ATOM     13  C   LIG    1        6.454   6.742  -1.800  0.00  0.00    -0.090 A 
ATOM     14  C   LIG    1        7.250   7.835  -2.059  0.00  0.00    +0.140 A 
ATOM     15  N   LIG    1        7.058   8.892  -1.326  0.00  0.00    -0.480 NA
ATOM     16  C   LIG    1        8.297   7.808  -3.143  0.00  0.00    +0.160 C 
ATOM     17  S   LIG    1        5.806   8.530  -0.240  0.00  0.00    +0.350 S 
ENDBRANCH   7  12
BRANCH   1  18
ATOM     18  C   LIG    1       -0.606   3.252   1.283  0.00  0.00    +0.180 C 
BRANCH  18  20
ATOM     19  C   LIG    1       -1.031   2.681   3.678  0.00  0.00    +0.040 C 
ATOM     20  C   LIG    1       -1.531   3.489   2.479  0.00  0.00    +0.070 C 
ENDBRANCH  18  20
BRANCH  18  21
ATOM     21  C   LIG    1       -1.176   3.954   0.050  0.00  0.00    +0.220 C 
BRANCH  21  22
ATOM     22  O   LIG    1       -1.441   5.324   0.361  0.00  0.00    -0.570 OA
ATOM     23  H   LIG    1       -1.805   5.832  -0.377  0.00  0.00    +0.410 HD
ENDBRANCH  21  22
ENDBRANCH  18  21
ENDBRANCH   1  18
TORSDOF 5
