REMARK  Name = ZINCvU00000005S6.0
REMARK                            x       y       z     vdW  Elec       q    Type
REMARK                         _______ _______ _______ _____ _____    ______ ____
ROOT
ATOM      1  C   LIG    1        0.503  -2.215   1.391  0.00  0.00    +0.310 C 
ATOM      2  N   LIG    1       -0.046  -2.826   0.373  0.00  0.00    -0.480 NA
ATOM      3  C   LIG    1       -0.157  -4.159   0.655  0.00  0.00    -0.050 C 
ATOM      4  C   LIG    1        0.392  -4.332   2.014  0.00  0.00    +0.520 C 
ATOM      5  O   LIG    1        0.479  -5.368   2.647  0.00  0.00    -0.460 OA
ATOM      6  C   LIG    1       -0.675  -5.130  -0.153  0.00  0.00    +0.230 C 
ATOM      7  N   LIG    1        0.779  -3.099   2.406  0.00  0.00    -0.510 N 
ENDROOT
BRANCH   7   8
ATOM      8  C   LIG    1        1.363  -2.775   3.640  0.00  0.00    +0.110 A 
ATOM      9  C   LIG    1        2.671  -2.313   3.690  0.00  0.00    +0.060 A 
ATOM     10  C   LIG    1        3.242  -1.989   4.905  0.00  0.00    +0.010 A 
ATOM     11  C   LIG    1        2.514  -2.135   6.074  0.00  0.00    +0.120 A 
ATOM     12  C   LIG    1        1.211  -2.601   6.027  0.00  0.00    +0.010 A 
ATOM     13  F   LIG    1        3.076  -1.823   7.263  0.00  0.00    -0.130 F 
ATOM     14  C   LIG    1        0.635  -2.921   4.813  0.00  0.00    +0.070 A 
ENDBRANCH   7   8
BRANCH   6  15
ATOM     15  C   LIG    1       -0.565  -6.541   0.233  0.00  0.00    -0.100 A 
ATOM     16  C   LIG    1        0.617  -7.024   0.809  0.00  0.00    +0.070 A 
ATOM     17  C   LIG    1        0.709  -8.350   1.174  0.00  0.00    +0.000 A 
ATOM     18  C   LIG    1       -0.357  -9.206   0.962  0.00  0.00    +0.030 A 
ATOM     19  C   LIG    1       -1.527  -8.739   0.388  0.00  0.00    +0.000 A 
ATOM     20  C   LIG    1       -1.639  -7.415   0.022  0.00  0.00    +0.050 A 
ENDBRANCH   6  15
BRANCH   1  21
ATOM     21  S   LIG    1        0.837  -0.487   1.454  0.00  0.00    +0.060 S 
BRANCH  21  22
ATOM     22  C   LIG    1        0.230   0.011  -0.177  0.00  0.00    +0.160 C 
ATOM     23  C   LIG    1        1.092  -0.638  -1.262  0.00  0.00    +0.110 C 
BRANCH  22  27
ATOM     24  C   LIG    1       -0.119   3.545  -0.705  0.00  0.00    +0.180 A 
ATOM     25  N   LIG    1        1.069   3.449  -0.188  0.00  0.00    -0.370 NA
ATOM     26  O   LIG    1        1.332   2.289   0.049  0.00  0.00    +0.090 OA
ATOM     27  C   LIG    1        0.305   1.510  -0.305  0.00  0.00    +0.190 A 
ATOM     28  N   LIG    1       -0.622   2.300  -0.791  0.00  0.00    -0.460 NA
BRANCH  24  29
ATOM     29  C   LIG    1       -0.805   4.816  -1.135  0.00  0.00    +0.160 C 
BRANCH  29  31
ATOM     30  C   LIG    1       -1.171   6.394  -3.037  0.00  0.00    +0.030 C 
ATOM     31  C   LIG    1       -0.474   5.104  -2.600  0.00  0.00    +0.020 C 
ENDBRANCH  29  31
ENDBRANCH  24  29
ENDBRANCH  22  27
ENDBRANCH  21  22
ENDBRANCH   1  21
TORSDOF 7
