REMARK  Name = ZINCvU00000009in.0
REMARK                            x       y       z     vdW  Elec       q    Type
REMARK                         _______ _______ _______ _____ _____    ______ ____
ROOT
ATOM      1  N   LIG    1       -0.031   4.236   0.131  0.00  0.00    -0.510 N 
ATOM      2  C   LIG    1        1.149   3.599   0.075  0.00  0.00    +0.570 C 
ATOM      3  C   LIG    1        1.217   2.134  -0.004  0.00  0.00    -0.160 A 
ATOM      4  C   LIG    1        2.440   1.465  -0.062  0.00  0.00    +0.110 A 
ATOM      5  C   LIG    1        2.462   0.089  -0.135  0.00  0.00    -0.010 A 
ATOM      6  C   LIG    1        1.282  -0.639  -0.152  0.00  0.00    +0.060 A 
ATOM      7  C   LIG    1        0.061   0.003  -0.095  0.00  0.00    -0.010 A 
ATOM      8  C   LIG    1        0.019   1.390  -0.021  0.00  0.00    +0.050 A 
ATOM      9  C   LIG    1       -1.261   2.127   0.048  0.00  0.00    -0.300 C 
ATOM     10  C   LIG    1       -2.465   1.459   0.041  0.00  0.00    +0.430 C 
ATOM     11  O   LIG    1        2.179   4.245   0.090  0.00  0.00    -0.490 OA
ATOM     12  C   LIG    1       -1.209   3.592   0.119  0.00  0.00    +0.590 C 
ATOM     13  O   LIG    1       -2.245   4.229   0.173  0.00  0.00    -0.520 OA
ENDROOT
BRANCH   1  19
ATOM     14  C   LIG    1       -0.208   8.167   2.865  0.00  0.00    +0.130 C 
ATOM     15  C   LIG    1       -0.118   7.539   1.498  0.00  0.00    +0.150 A 
ATOM     16  C   LIG    1       -0.042   8.347   0.380  0.00  0.00    -0.020 A 
ATOM     17  C   LIG    1        0.041   7.763  -0.876  0.00  0.00    +0.090 A 
ATOM     18  C   LIG    1        0.045   6.382  -0.963  0.00  0.00    -0.010 A 
ATOM     19  C   LIG    1       -0.034   5.631   0.204  0.00  0.00    +0.340 A 
ATOM     20  N   LIG    1       -0.117   6.225   1.384  0.00  0.00    -0.470 NA
ENDBRANCH   1  19
BRANCH  10  21
ATOM     21  N   LIG    1       -3.629   2.157  -0.043  0.00  0.00    -0.620 N 
ATOM     22  H   LIG    1       -3.610   3.116  -0.183  0.00  0.00    +0.430 HD
BRANCH  21  23
ATOM     23  C   LIG    1       -4.853   1.491   0.073  0.00  0.00    +0.150 A 
ATOM     24  C   LIG    1       -4.881   0.116   0.268  0.00  0.00    +0.000 A 
ATOM     25  C   LIG    1       -6.092  -0.537   0.388  0.00  0.00    +0.070 A 
ATOM     26  C   LIG    1       -7.275   0.174   0.302  0.00  0.00    +0.050 A 
ATOM     27  C   LIG    1       -7.250   1.542   0.102  0.00  0.00    -0.140 A 
ATOM     28  C   LIG    1       -6.043   2.203  -0.013  0.00  0.00    +0.040 A 
BRANCH  27  29
ATOM     29  C   LIG    1       -8.542   2.313   0.009  0.00  0.00    +0.510 C 
ATOM     30  F   LIG    1       -8.343   3.615   0.482  0.00  0.00    -0.170 F 
ATOM     31  F   LIG    1       -9.520   1.680   0.783  0.00  0.00    -0.170 F 
ATOM     32  F   LIG    1       -8.961   2.361  -1.325  0.00  0.00    -0.170 F 
ENDBRANCH  27  29
ENDBRANCH  21  23
ENDBRANCH  10  21
TORSDOF 4
