REMARK  Name = ZINCpe000000XuuQ.0
REMARK                            x       y       z     vdW  Elec       q    Type
REMARK                         _______ _______ _______ _____ _____    ______ ____
ROOT
ATOM      1  C   LIG    1       -2.529  -1.445  -4.009  0.00  0.00    -0.100 A 
ATOM      2  C   LIG    1       -1.718  -2.364  -3.370  0.00  0.00    +0.030 A 
ATOM      3  C   LIG    1       -1.307  -2.138  -2.070  0.00  0.00    +0.040 A 
ATOM      4  C   LIG    1       -1.708  -0.992  -1.408  0.00  0.00    -0.110 A 
ATOM      5  C   LIG    1       -2.523  -0.075  -2.045  0.00  0.00    +0.030 A 
ATOM      6  C   LIG    1       -2.929  -0.299  -3.348  0.00  0.00    +0.030 A 
ENDROOT
BRANCH   1   7
ATOM      7  C   LIG    1       -2.976  -1.692  -5.427  0.00  0.00    +0.320 C 
BRANCH   7   9
ATOM      8  C   LIG    1       -4.832  -2.768  -6.582  0.00  0.00    +0.520 C 
ATOM      9  N   LIG    1       -4.239  -2.433  -5.418  0.00  0.00    -0.730 N 
ATOM     10  H   LIG    1       -4.649  -2.683  -4.575  0.00  0.00    +0.400 HD
ATOM     11  O   LIG    1       -4.319  -2.456  -7.635  0.00  0.00    -0.510 OA
BRANCH   8  19
ATOM     12  C   LIG    1       -5.219  -5.207  -4.957  0.00  0.00    +0.070 C 
ATOM     13  C   LIG    1       -5.850  -5.018  -6.338  0.00  0.00    +0.170 C 
ATOM     14  O   LIG    1       -7.078  -5.747  -6.405  0.00  0.00    -0.380 OA
ATOM     15  C   LIG    1       -7.763  -5.607  -7.653  0.00  0.00    +0.220 C 
ATOM     16  C   LIG    1       -8.064  -4.127  -7.901  0.00  0.00    +0.150 C 
ATOM     17  N   LIG    1       -6.807  -3.364  -7.867  0.00  0.00    -0.670 NA
ATOM     18  H   LIG    1       -6.971  -2.389  -8.067  0.00  0.00    +0.350 HD
ATOM     19  C   LIG    1       -6.131  -3.531  -6.573  0.00  0.00    +0.110 C 
ENDBRANCH   8  19
ENDBRANCH   7   9
ENDBRANCH   1   7
BRANCH   4  20
ATOM     20  C   LIG    1       -1.261  -0.746   0.010  0.00  0.00    +0.340 C 
BRANCH  20  21
ATOM     21  N   LIG    1        0.002  -0.004   0.002  0.00  0.00    -0.490 N 
ATOM     22  C   LIG    1       -0.016   1.353   0.009  0.00  0.00    +0.290 A 
ATOM     23  C   LIG    1        1.138   2.060   0.002  0.00  0.00    -0.080 A 
ATOM     24  C   LIG    1        2.369   1.390  -0.013  0.00  0.00    +0.120 A 
ATOM     25  C   LIG    1        2.386   0.026  -0.020  0.00  0.00    -0.090 A 
ATOM     26  C   LIG    1        1.169  -0.677  -0.012  0.00  0.00    +0.510 A 
ATOM     27  O   LIG    1        1.169  -1.897  -0.019  0.00  0.00    -0.550 OA
ENDBRANCH  20  21
ENDBRANCH   4  20
TORSDOF 5
