REMARK  Name = ZINCrH00000tj1fY.0
REMARK                            x       y       z     vdW  Elec       q    Type
REMARK                         _______ _______ _______ _____ _____    ______ ____
ROOT
ATOM      1  C   LIG    1        2.486   1.291  -0.013  0.00  0.00    +0.190 C 
ATOM      2  C   LIG    1        2.355  -0.221  -0.017  0.00  0.00    -0.360 C 
ATOM      3  C   LIG    1        1.087  -0.766  -0.011  0.00  0.00    +0.290 C 
ATOM      4  N   LIG    1        0.002  -0.004   0.002  0.00  0.00    -0.640 NA
ATOM      5  C   LIG    1       -0.016   1.317   0.009  0.00  0.00    +0.480 A 
ATOM      6  N   LIG    1       -1.047   2.229   0.018  0.00  0.00    -0.470 N 
ATOM      7  H   LIG    1       -1.995   2.024   0.022  0.00  0.00    +0.450 HD
ATOM      8  N   LIG    1       -0.476   3.510   0.024  0.00  0.00    -0.480 N 
ATOM      9  H   LIG    1       -0.963   4.349   0.032  0.00  0.00    +0.450 HD
ATOM     10  C   LIG    1        0.882   3.373   0.011  0.00  0.00    +0.210 A 
ATOM     11  C   LIG    1        1.879   4.504   0.005  0.00  0.00    +0.170 C 
ATOM     12  C   LIG    1        0.916  -2.268  -0.023  0.00  0.00    +0.110 C 
ATOM     13  C   LIG    1        2.101  -2.923   0.689  0.00  0.00    -0.050 C 
ATOM     14  C   LIG    1        3.395  -2.513  -0.021  0.00  0.00    +0.020 C 
ATOM     15  C   LIG    1        1.950  -4.444   0.642  0.00  0.00    +0.040 C 
ATOM     16  C   LIG    1        2.146  -2.455   2.145  0.00  0.00    +0.030 C 
ATOM     17  C   LIG    1        3.496  -1.010  -0.025  0.00  0.00    +0.410 C 
ATOM     18  O   LIG    1        4.592  -0.481  -0.035  0.00  0.00    -0.500 OA
ATOM     19  C   LIG    1        1.185   2.063   0.002  0.00  0.00    -0.280 A 
ENDROOT
BRANCH   1  23
ATOM     20  C   LIG    1        4.679   2.452  -3.496  0.00  0.00    -0.140 A 
ATOM     21  C   LIG    1        5.166   2.762  -2.225  0.00  0.00    +0.090 A 
ATOM     22  C   LIG    1        4.454   2.385  -1.106  0.00  0.00    +0.020 A 
ATOM     23  C   LIG    1        3.259   1.700  -1.241  0.00  0.00    -0.020 A 
ATOM     24  C   LIG    1        2.773   1.385  -2.497  0.00  0.00    +0.000 A 
ATOM     25  C   LIG    1        3.472   1.761  -3.625  0.00  0.00    +0.070 A 
BRANCH  20  26
ATOM     26  C   LIG    1        5.436   2.853  -4.700  0.00  0.00    +0.510 C 
ATOM     27  O   LIG    1        6.485   3.454  -4.585  0.00  0.00    -0.510 OA
BRANCH  26  29
ATOM     28  C   LIG    1        5.760   2.977  -7.062  0.00  0.00    +0.260 C 
ATOM     29  O   LIG    1        4.963   2.552  -5.925  0.00  0.00    -0.360 OA
ENDBRANCH  26  29
ENDBRANCH  20  26
ENDBRANCH   1  23
TORSDOF 3
