REMARK  Name = ZINCrg000000nN5v.0
REMARK                            x       y       z     vdW  Elec       q    Type
REMARK                         _______ _______ _______ _____ _____    ______ ____
ROOT
ATOM      1  O   LIG    1       -4.026  -5.097   1.345  0.00  0.00    -0.330 OA
ENDROOT
BRANCH   1   2
ATOM      2  C   LIG    1       -4.315  -6.072   0.469  0.00  0.00    +0.480 C 
ATOM      3  O   LIG    1       -3.456  -6.495  -0.268  0.00  0.00    -0.480 OA
BRANCH   2   4
ATOM      4  C   LIG    1       -5.710  -6.640   0.406  0.00  0.00    +0.220 C 
BRANCH   4   5
ATOM      5  C   LIG    1       -6.531  -5.845  -0.577  0.00  0.00    -0.100 A 
ATOM      6  C   LIG    1       -6.290  -5.963  -1.933  0.00  0.00    +0.040 A 
ATOM      7  C   LIG    1       -7.047  -5.237  -2.834  0.00  0.00    +0.000 A 
ATOM      8  C   LIG    1       -8.037  -4.388  -2.379  0.00  0.00    +0.010 A 
ATOM      9  C   LIG    1       -8.274  -4.266  -1.023  0.00  0.00    +0.010 A 
ATOM     10  C   LIG    1       -7.521  -4.995  -0.121  0.00  0.00    +0.030 A 
ENDBRANCH   4   5
BRANCH   4  11
ATOM     11  N   LIG    1       -5.648  -8.042  -0.028  0.00  0.00    -0.520 NA
ATOM     12  C   LIG    1       -6.941  -8.482  -0.570  0.00  0.00    +0.210 C 
BRANCH  11  14
ATOM     13  C   LIG    1       -3.767  -8.585   1.442  0.00  0.00    +0.030 C 
ATOM     14  C   LIG    1       -5.214  -8.914   1.071  0.00  0.00    +0.180 C 
ENDBRANCH  11  14
ENDBRANCH   4  11
ENDBRANCH   2   4
ENDBRANCH   1   2
BRANCH   1  15
ATOM     15  C   LIG    1       -2.663  -4.598   1.351  0.00  0.00    +0.180 C 
ATOM     16  C   LIG    1       -1.826  -5.413   2.338  0.00  0.00    +0.070 C 
BRANCH  15  17
ATOM     17  C   LIG    1       -2.659  -3.149   1.766  0.00  0.00    +0.520 C 
ATOM     18  N   LIG    1       -1.510  -2.445   1.746  0.00  0.00    -0.730 N 
ATOM     19  H   LIG    1       -0.685  -2.871   1.464  0.00  0.00    +0.400 HD
ATOM     20  O   LIG    1       -3.691  -2.617   2.118  0.00  0.00    -0.510 OA
BRANCH  18  21
ATOM     21  C   LIG    1       -1.507  -1.037   2.149  0.00  0.00    +0.270 C 
BRANCH  21  22
ATOM     22  C   LIG    1       -0.088  -0.477   2.035  0.00  0.00    +0.170 C 
BRANCH  22  23
ATOM     23  N   LIG    1       -0.085   0.935   2.440  0.00  0.00    -0.530 NA
ATOM     24  C   LIG    1       -0.854   1.756   1.494  0.00  0.00    +0.150 C 
ATOM     25  C   LIG    1       -0.875   3.206   1.984  0.00  0.00    +0.220 C 
ATOM     26  O   LIG    1        0.469   3.672   2.137  0.00  0.00    -0.380 OA
ATOM     27  C   LIG    1        1.247   2.896   3.052  0.00  0.00    +0.220 C 
ATOM     28  C   LIG    1        1.289   1.442   2.572  0.00  0.00    +0.160 C 
ENDBRANCH  22  23
ENDBRANCH  21  22
ENDBRANCH  18  21
ENDBRANCH  15  17
ENDBRANCH   1  15
TORSDOF 10
