REMARK  Name = ZINCpe00000gLTsL.0
REMARK                            x       y       z     vdW  Elec       q    Type
REMARK                         _______ _______ _______ _____ _____    ______ ____
ROOT
ATOM      1  N   LIG    1       -0.681   2.068  -1.187  0.00  0.00    -0.720 N 
ATOM      2  H   LIG    1       -0.156   2.301  -1.969  0.00  0.00    +0.400 HD
ATOM      3  C   LIG    1       -2.020   2.224  -1.203  0.00  0.00    +0.560 C 
ATOM      4  O   LIG    1       -2.678   1.931  -0.224  0.00  0.00    -0.500 OA
ENDROOT
BRANCH   1  11
ATOM      5  N   LIG    1        2.410  -1.755   2.244  0.00  0.00    -0.740 N 
ATOM      6  H   LIG    1        3.093  -1.069   2.310  0.00  0.00    +0.400 HD
ATOM      7  C   LIG    1        1.308  -1.539   1.500  0.00  0.00    +0.720 C 
ATOM      8  N   LIG    1        1.153  -0.370   0.847  0.00  0.00    -0.640 N 
ATOM      9  C   LIG    1        2.105   0.750   0.860  0.00  0.00    +0.240 C 
ATOM     10  C   LIG    1        1.497   1.877  -0.002  0.00  0.00    +0.040 C 
ATOM     11  C   LIG    1       -0.019   1.545   0.011  0.00  0.00    +0.250 C 
ATOM     12  C   LIG    1        0.002  -0.004   0.002  0.00  0.00    +0.280 C 
ATOM     13  O   LIG    1        0.452  -2.399   1.419  0.00  0.00    -0.580 OA
BRANCH   5  15
ATOM     14  C   LIG    1        3.904  -3.011   3.718  0.00  0.00    +0.030 C 
ATOM     15  C   LIG    1        2.578  -3.025   2.955  0.00  0.00    +0.270 C 
ENDBRANCH   5  15
ENDBRANCH   1  11
BRANCH   3  16
ATOM     16  C   LIG    1       -2.687   2.751  -2.410  0.00  0.00    -0.120 A 
ATOM     17  C   LIG    1       -1.933   3.088  -3.537  0.00  0.00    +0.100 A 
ATOM     18  C   LIG    1       -2.559   3.579  -4.661  0.00  0.00    +0.050 A 
ATOM     19  C   LIG    1       -3.940   3.740  -4.676  0.00  0.00    +0.180 A 
ATOM     20  C   LIG    1       -4.695   3.405  -3.559  0.00  0.00    +0.020 A 
ATOM     21  C   LIG    1       -4.076   2.908  -2.431  0.00  0.00    +0.040 A 
ATOM     22 CL   LIG    1       -5.021   2.483  -1.037  0.00  0.00    -0.000 Cl
BRANCH  19  23
ATOM     23  N   LIG    1       -4.571   4.239  -5.821  0.00  0.00    -0.340 N 
ATOM     24  C   LIG    1       -5.894   4.450  -6.003  0.00  0.00    +0.480 A 
ATOM     25  N   LIG    1       -6.048   4.926  -7.211  0.00  0.00    -0.320 NA
ATOM     26  N   LIG    1       -4.915   5.022  -7.808  0.00  0.00    -0.020 NA
ATOM     27  N   LIG    1       -3.967   4.624  -7.031  0.00  0.00    -0.070 NA
ENDBRANCH  19  23
ENDBRANCH   3  16
TORSDOF 4
