REMARK  Name = ZINCvU0000000HNx.0
REMARK                            x       y       z     vdW  Elec       q    Type
REMARK                         _______ _______ _______ _____ _____    ______ ____
ROOT
ATOM      1  C   LIG    1        5.946   0.429  -3.345  0.00  0.00    -0.090 A 
ATOM      2  C   LIG    1        6.618   1.507  -3.922  0.00  0.00    +0.040 A 
ATOM      3  C   LIG    1        7.203   1.368  -5.163  0.00  0.00    +0.090 A 
ATOM      4  C   LIG    1        7.110   0.154  -5.842  0.00  0.00    -0.150 A 
ATOM      5  C   LIG    1        7.726  -0.001  -7.183  0.00  0.00    +0.530 C 
ATOM      6  O   LIG    1        7.776  -1.255  -7.699  0.00  0.00    -0.350 OA
ATOM      7  C   LIG    1        6.566  -2.040  -7.493  0.00  0.00    +0.240 C 
ATOM      8  C   LIG    1        6.343  -2.242  -5.994  0.00  0.00    +0.100 C 
ATOM      9  O   LIG    1        8.166   0.953  -7.792  0.00  0.00    -0.440 OA
ATOM     10  C   LIG    1        6.436  -0.925  -5.269  0.00  0.00    -0.040 A 
ATOM     11  C   LIG    1        5.856  -0.786  -4.026  0.00  0.00    +0.080 A 
ENDROOT
BRANCH   7  12
ATOM     12  C   LIG    1        6.715  -3.381  -8.166  0.00  0.00    -0.100 A 
ATOM     13  C   LIG    1        7.924  -4.049  -8.115  0.00  0.00    +0.040 A 
ATOM     14  C   LIG    1        8.060  -5.280  -8.728  0.00  0.00    +0.010 A 
ATOM     15  C   LIG    1        6.989  -5.839  -9.400  0.00  0.00    +0.020 A 
ATOM     16  C   LIG    1        5.782  -5.169  -9.455  0.00  0.00    +0.010 A 
ATOM     17  C   LIG    1        5.644  -3.940  -8.838  0.00  0.00    +0.030 A 
ENDBRANCH   7  12
BRANCH   1  20
ATOM     18  C   LIG    1        5.195   2.980  -2.392  0.00  0.00    +0.300 C 
ATOM     19  N   LIG    1        5.033   1.804  -1.534  0.00  0.00    -0.610 N 
ATOM     20  C   LIG    1        5.321   0.577  -2.011  0.00  0.00    +0.560 C 
ATOM     21  O   LIG    1        5.069  -0.409  -1.346  0.00  0.00    -0.500 OA
BRANCH  19  22
ATOM     22  C   LIG    1        4.557   1.961  -0.157  0.00  0.00    +0.420 C 
BRANCH  22  23
ATOM     23  C   LIG    1        3.053   1.874  -0.132  0.00  0.00    +0.070 A 
ATOM     24  N   LIG    1        2.398   0.786   0.021  0.00  0.00    -0.430 NA
ATOM     25  C   LIG    1        1.053   0.856   0.023  0.00  0.00    +0.080 A 
ATOM     26  C   LIG    1        0.098  -0.170   0.170  0.00  0.00    +0.080 A 
ATOM     27  C   LIG    1       -1.233   0.117   0.137  0.00  0.00    +0.030 A 
ATOM     28  C   LIG    1       -1.674   1.422  -0.031  0.00  0.00    +0.040 A 
ATOM     29  C   LIG    1       -0.764   2.445  -0.177  0.00  0.00    +0.060 A 
ATOM     30  C   LIG    1        0.601   2.169  -0.151  0.00  0.00    -0.180 A 
ATOM     31  S   LIG    1        2.010   3.214  -0.305  0.00  0.00    +0.100 S 
ENDBRANCH  22  23
ENDBRANCH  19  22
ENDBRANCH   1  20
TORSDOF 4
