REMARK  Name = ZINCrD00000gQ2pc.0
REMARK                            x       y       z     vdW  Elec       q    Type
REMARK                         _______ _______ _______ _____ _____    ______ ____
ROOT
ATOM      1  C   LIG    1       -0.765   1.599  -1.226  0.00  0.00    +0.200 C 
ATOM      2  C   LIG    1       -0.013   1.086   0.008  0.00  0.00    +0.080 C 
ATOM      3  C   LIG    1       -0.738   1.584   1.257  0.00  0.00    +0.090 C 
ATOM      4  C   LIG    1       -0.968   3.070   1.178  0.00  0.00    -0.070 A 
ATOM      5  C   LIG    1       -1.271   3.740   2.356  0.00  0.00    +0.040 A 
ATOM      6  C   LIG    1       -1.504   5.101   2.348  0.00  0.00    -0.090 A 
ATOM      7  C   LIG    1       -1.435   5.803   1.158  0.00  0.00    +0.040 A 
ATOM      8  C   LIG    1       -1.131   5.139  -0.012  0.00  0.00    +0.020 A 
ATOM      9 BR   LIG    1       -1.917   6.002   3.959  0.00  0.00    -0.050 Br
ATOM     10  C   LIG    1       -0.895   3.770  -0.006  0.00  0.00    -0.050 A 
ATOM     11  C   LIG    1       -0.564   3.110  -1.319  0.00  0.00    +0.120 C 
ENDROOT
BRANCH   1  13
ATOM     12  C   LIG    1       -3.050   1.659  -2.069  0.00  0.00    +0.520 C 
ATOM     13  N   LIG    1       -2.192   1.297  -1.094  0.00  0.00    -0.720 N 
ATOM     14  H   LIG    1       -2.520   0.837  -0.306  0.00  0.00    +0.410 HD
ATOM     15  O   LIG    1       -2.640   2.235  -3.055  0.00  0.00    -0.500 OA
BRANCH  12  16
ATOM     16  C   LIG    1       -4.519   1.349  -1.934  0.00  0.00    +0.050 C 
BRANCH  16  17
ATOM     17  C   LIG    1       -5.264   1.863  -3.167  0.00  0.00    +0.130 C 
BRANCH  17  18
ATOM     18  C   LIG    1       -6.755   1.548  -3.030  0.00  0.00    +0.040 C 
ATOM     19  N   LIG    1       -7.333   1.467  -1.686  0.00  0.00    -0.120 NA
ATOM     20  N   LIG    1       -7.155   0.375  -2.249  0.00  0.00    -0.120 NA
BRANCH  18  21
ATOM     21  C   LIG    1       -7.650   1.998  -4.186  0.00  0.00    +0.120 C 
BRANCH  21  22
ATOM     22  C   LIG    1       -9.100   1.608  -3.890  0.00  0.00    +0.160 C 
BRANCH  22  24
ATOM     23  C   LIG    1      -10.648   2.386  -5.891  0.00  0.00    +0.030 C 
ATOM     24  C   LIG    1       -9.961   2.041  -5.003  0.00  0.00    -0.190 C 
ENDBRANCH  22  24
ENDBRANCH  21  22
ENDBRANCH  18  21
ENDBRANCH  17  18
ENDBRANCH  16  17
ENDBRANCH  12  16
ENDBRANCH   1  13
BRANCH   1  25
ATOM     25  C   LIG    1       -0.218   0.937  -2.465  0.00  0.00    +0.460 C 
ATOM     26  O   LIG    1        0.913   0.512  -2.474  0.00  0.00    -0.500 OA
BRANCH  25  27
ATOM     27  O   LIG    1       -0.988   0.820  -3.558  0.00  0.00    -0.320 OA
ATOM     28  C   LIG    1       -0.396   0.171  -4.714  0.00  0.00    +0.250 C 
ENDBRANCH  25  27
ENDBRANCH   1  25
TORSDOF 9
