REMARK  Name = ZINCnE000001SGsB.1
REMARK                            x       y       z     vdW  Elec       q    Type
REMARK                         _______ _______ _______ _____ _____    ______ ____
ROOT
ATOM      1  O   LIG    1       -2.499   7.541   0.418  0.00  0.00    -0.620 OA
ATOM      2  C   LIG    1       -3.206   6.574   0.624  0.00  0.00    +0.650 C 
ATOM      3  N   LIG    1       -2.698   5.331   0.510  0.00  0.00    -0.740 N 
ATOM      4  H   LIG    1       -3.263   4.559   0.674  0.00  0.00    +0.390 HD
ATOM      5  N   LIG    1       -4.499   6.745   0.966  0.00  0.00    -0.700 NA
ENDROOT
BRANCH   5   6
ATOM      6  C   LIG    1       -5.022   8.026   1.083  0.00  0.00    +0.360 A 
ATOM      7  N   LIG    1       -4.355   9.120   0.885  0.00  0.00    -0.570 NA
ATOM      8  C   LIG    1       -5.005  10.255   1.038  0.00  0.00    +0.280 A 
ATOM      9  C   LIG    1       -6.300  10.110   1.385  0.00  0.00    -0.340 A 
ATOM     10  S   LIG    1       -6.641   8.385   1.501  0.00  0.00    +0.040 S 
BRANCH   9  11
ATOM     11  C   LIG    1       -7.264  11.204   1.622  0.00  0.00    +0.020 A 
ATOM     12  C   LIG    1       -8.512  11.186   0.998  0.00  0.00    +0.030 A 
ATOM     13  C   LIG    1       -9.409  12.211   1.223  0.00  0.00    -0.010 A 
ATOM     14  C   LIG    1       -9.073  13.256   2.065  0.00  0.00    +0.020 A 
ATOM     15  C   LIG    1       -7.838  13.283   2.688  0.00  0.00    -0.020 A 
ATOM     16  C   LIG    1       -6.933  12.260   2.476  0.00  0.00    +0.090 A 
ATOM     17  F   LIG    1       -5.729  12.284   3.089  0.00  0.00    -0.140 F 
ENDBRANCH   9  11
ENDBRANCH   5   6
BRANCH   3  18
ATOM     18  C   LIG    1       -1.293   5.145   0.139  0.00  0.00    +0.300 C 
BRANCH  18  19
ATOM     19  C   LIG    1       -0.980   3.672   0.082  0.00  0.00    -0.170 C 
ATOM     20  C   LIG    1       -1.050   3.066  -1.066  0.00  0.00    -0.020 C 
ATOM     21  C   LIG    1       -0.764   1.598  -1.224  0.00  0.00    +0.030 C 
ATOM     22  C   LIG    1       -0.013   1.086   0.008  0.00  0.00    +0.200 C 
ATOM     23  O   LIG    1       -0.693   1.553   1.179  0.00  0.00    -0.380 OA
ATOM     24  C   LIG    1       -0.600   2.968   1.353  0.00  0.00    +0.270 C 
ENDBRANCH  18  19
ENDBRANCH   3  18
TORSDOF 4
