REMARK  Name = ZINCpk000000n9cK.0
REMARK                            x       y       z     vdW  Elec       q    Type
REMARK                         _______ _______ _______ _____ _____    ______ ____
ROOT
ATOM      1  N   LIG    1        6.243  -1.127   1.221  0.00  0.00    -0.700 N 
ATOM      2  H   LIG    1        6.900  -0.879   1.890  0.00  0.00    +0.410 HD
ATOM      3  C   LIG    1        5.381  -2.134   1.462  0.00  0.00    +0.570 C 
ATOM      4  O   LIG    1        4.558  -2.444   0.624  0.00  0.00    -0.490 OA
ENDROOT
BRANCH   3   5
ATOM      5  C   LIG    1        5.436  -2.864   2.750  0.00  0.00    +0.200 A 
ATOM      6  C   LIG    1        4.547  -3.917   3.020  0.00  0.00    +0.000 A 
ATOM      7  N   LIG    1        3.539  -4.509   2.344  0.00  0.00    -0.450 NA
ATOM      8  C   LIG    1        3.028  -5.463   3.071  0.00  0.00    +0.530 A 
ATOM      9  N   LIG    1        3.678  -5.542   4.265  0.00  0.00    -0.580 N 
ATOM     10  H   LIG    1        3.489  -6.168   4.981  0.00  0.00    +0.440 HD
ATOM     11  C   LIG    1        4.652  -4.573   4.268  0.00  0.00    +0.270 A 
ATOM     12  N   LIG    1        5.575  -4.176   5.127  0.00  0.00    -0.500 NA
ATOM     13  C   LIG    1        6.389  -3.182   4.828  0.00  0.00    +0.520 A 
ATOM     14  N   LIG    1        6.332  -2.538   3.681  0.00  0.00    -0.500 NA
ENDBRANCH   3   5
BRANCH   1  15
ATOM     15  C   LIG    1        6.188  -0.405  -0.053  0.00  0.00    +0.290 C 
BRANCH  15  21
ATOM     16  C   LIG    1        5.819   1.828   1.797  0.00  0.00    +0.670 C 
ATOM     17  N   LIG    1        6.998   1.556   1.204  0.00  0.00    -0.610 N 
ATOM     18  C   LIG    1        8.320   2.003   1.674  0.00  0.00    +0.240 C 
ATOM     19  C   LIG    1        9.370   1.434   0.697  0.00  0.00    +0.040 C 
ATOM     20  C   LIG    1        8.633   0.228   0.058  0.00  0.00    +0.040 C 
ATOM     21  C   LIG    1        7.180   0.759  -0.023  0.00  0.00    +0.240 C 
ATOM     22  O   LIG    1        4.795   1.331   1.370  0.00  0.00    -0.550 OA
BRANCH  16  23
ATOM     23  O   LIG    1        5.775   2.649   2.863  0.00  0.00    -0.360 OA
BRANCH  23  25
ATOM     24  C   LIG    1        3.865   1.575   3.926  0.00  0.00    +0.040 C 
ATOM     25  C   LIG    1        4.470   2.897   3.451  0.00  0.00    +0.140 C 
ATOM     26  C   LIG    1        3.552   3.531   2.404  0.00  0.00    +0.040 C 
ATOM     27  C   LIG    1        4.619   3.847   4.641  0.00  0.00    +0.080 C 
ENDBRANCH  23  25
ENDBRANCH  16  23
ENDBRANCH  15  21
ENDBRANCH   1  15
TORSDOF 5
