REMARK  Name = ZINCtV000002FZmj.0
REMARK                            x       y       z     vdW  Elec       q    Type
REMARK                         _______ _______ _______ _____ _____    ______ ____
ROOT
ATOM      1  S   LIG    1       10.525   2.531  -3.019  0.00  0.00    +0.170 S 
ENDROOT
BRANCH   1   2
ATOM      2  C   LIG    1        8.798   2.817  -2.818  0.00  0.00    +0.130 A 
ATOM      3  N   LIG    1        8.194   3.175  -1.708  0.00  0.00    -0.280 NA
ATOM      4  N   LIG    1        6.933   3.299  -1.927  0.00  0.00    -0.230 NA
ATOM      5  C   LIG    1        6.679   3.014  -3.184  0.00  0.00    +0.230 A 
ATOM      6  O   LIG    1        7.856   2.707  -3.774  0.00  0.00    -0.190 OA
BRANCH   5   7
ATOM      7  C   LIG    1        5.359   3.033  -3.831  0.00  0.00    -0.120 A 
ATOM      8  C   LIG    1        4.217   3.343  -3.209  0.00  0.00    +0.030 A 
ATOM      9  C   LIG    1        3.037   3.293  -4.052  0.00  0.00    -0.080 A 
ATOM     10  C   LIG    1        1.690   3.559  -3.719  0.00  0.00    +0.080 A 
ATOM     11  C   LIG    1        0.713   3.457  -4.661  0.00  0.00    +0.030 A 
ATOM     12  C   LIG    1        1.024   3.090  -5.963  0.00  0.00    +0.060 A 
ATOM     13  C   LIG    1        2.327   2.825  -6.316  0.00  0.00    +0.060 A 
ATOM     14  C   LIG    1        3.347   2.924  -5.366  0.00  0.00    -0.130 A 
ATOM     15 CL   LIG    1        4.151   3.772  -1.528  0.00  0.00    +0.000 Cl
ATOM     16  S   LIG    1        5.078   2.651  -5.519  0.00  0.00    +0.190 S 
ENDBRANCH   5   7
ENDBRANCH   1   2
BRANCH   1  17
ATOM     17  C   LIG    1       11.098   2.872  -1.336  0.00  0.00    +0.110 C 
BRANCH  17  20
ATOM     18  N   LIG    1       13.243   2.887  -0.103  0.00  0.00    -0.670 N 
ATOM     19  H   LIG    1       12.762   3.221   0.670  0.00  0.00    +0.420 HD
ATOM     20  C   LIG    1       12.592   2.686  -1.266  0.00  0.00    +0.540 C 
ATOM     21  O   LIG    1       13.209   2.354  -2.257  0.00  0.00    -0.500 OA
BRANCH  18  26
ATOM     22  C   LIG    1       18.795   1.775   0.271  0.00  0.00    +0.100 C 
ATOM     23  C   LIG    1       17.320   2.070   0.172  0.00  0.00    -0.060 A 
ATOM     24  C   LIG    1       16.891   3.349  -0.129  0.00  0.00    +0.030 A 
ATOM     25  C   LIG    1       15.540   3.623  -0.221  0.00  0.00    -0.050 A 
ATOM     26  C   LIG    1       14.613   2.612  -0.011  0.00  0.00    +0.130 A 
ATOM     27  C   LIG    1       15.046   1.328   0.296  0.00  0.00    -0.020 A 
ATOM     28 CL   LIG    1       13.890   0.061   0.566  0.00  0.00    -0.060 Cl
ATOM     29  C   LIG    1       15.074   5.018  -0.548  0.00  0.00    +0.110 C 
ATOM     30  C   LIG    1       16.399   1.060   0.381  0.00  0.00    +0.030 A 
ENDBRANCH  18  26
ENDBRANCH  17  20
ENDBRANCH   1  17
TORSDOF 5
