REMARK  Name = ZINCtj00000wy9Xs.0
REMARK                            x       y       z     vdW  Elec       q    Type
REMARK                         _______ _______ _______ _____ _____    ______ ____
ROOT
ATOM      1  C   LIG    1        4.588   5.908  -0.027  0.00  0.00    -0.330 A 
ATOM      2  C   LIG    1        5.566   4.936   0.221  0.00  0.00    +0.440 A 
ATOM      3  N   LIG    1        5.223   3.662   0.193  0.00  0.00    -0.550 NA
ATOM      4  C   LIG    1        3.973   3.298  -0.066  0.00  0.00    +0.590 A 
ATOM      5  N   LIG    1        3.020   4.188  -0.310  0.00  0.00    -0.560 NA
ATOM      6  C   LIG    1        3.281   5.482  -0.295  0.00  0.00    +0.390 A 
ENDROOT
BRANCH   1   8
ATOM      7  O   LIG    1        5.996   7.724  -0.443  0.00  0.00    -0.500 OA
ATOM      8  C   LIG    1        4.926   7.344  -0.005  0.00  0.00    +0.590 C 
ATOM      9  N   LIG    1        4.050   8.235   0.500  0.00  0.00    -0.630 N 
ATOM     10  C   LIG    1        2.805   7.790   1.144  0.00  0.00    +0.300 C 
ATOM     11  C   LIG    1        2.694   8.487   2.509  0.00  0.00    +0.270 C 
ATOM     12  N   LIG    1        2.793   9.940   2.323  0.00  0.00    -0.510 N 
ATOM     13  C   LIG    1        4.124  10.289   1.811  0.00  0.00    +0.270 C 
ATOM     14  H   LIG    1        2.091  10.241   1.664  0.00  0.00    +0.430 HD
ATOM     15  H   LIG    1        2.642  10.402   3.207  0.00  0.00    +0.440 HD
ATOM     16  C   LIG    1        4.309   9.681   0.416  0.00  0.00    +0.330 C 
ENDBRANCH   1   8
BRANCH   4  17
ATOM     17  N   LIG    1        3.657   1.955  -0.086  0.00  0.00    -0.500 N 
ATOM     18  C   LIG    1        4.605   0.865   0.159  0.00  0.00    +0.300 C 
ATOM     19  C   LIG    1        3.780  -0.425   0.026  0.00  0.00    +0.110 C 
ATOM     20  C   LIG    1        2.380   0.049  -0.295  0.00  0.00    -0.090 A 
ATOM     21  C   LIG    1        1.216  -0.658  -0.522  0.00  0.00    +0.040 A 
ATOM     22  C   LIG    1        0.035   0.017  -0.801  0.00  0.00    +0.160 A 
ATOM     23  C   LIG    1        0.031   1.405  -0.851  0.00  0.00    -0.010 A 
ATOM     24  C   LIG    1        1.194   2.109  -0.625  0.00  0.00    +0.060 A 
ATOM     25  C   LIG    1        2.384   1.434  -0.344  0.00  0.00    +0.110 A 
BRANCH  22  26
ATOM     26  N   LIG    1       -1.148  -0.698  -1.030  0.00  0.00    -0.560 N 
ATOM     27  C   LIG    1       -2.446  -0.080  -1.326  0.00  0.00    +0.260 C 
ATOM     28  C   LIG    1       -3.312  -1.213  -1.925  0.00  0.00    +0.060 C 
ATOM     29  C   LIG    1       -2.659  -2.469  -1.303  0.00  0.00    +0.070 C 
ATOM     30  C   LIG    1       -1.240  -2.039  -1.002  0.00  0.00    +0.520 C 
ATOM     31  O   LIG    1       -0.320  -2.794  -0.769  0.00  0.00    -0.510 OA
ENDBRANCH  22  26
ENDBRANCH   4  17
TORSDOF 3
