REMARK  Name = ZINCrH00000No55g.0
REMARK                            x       y       z     vdW  Elec       q    Type
REMARK                         _______ _______ _______ _____ _____    ______ ____
ROOT
ATOM      1  C   LIG    1       -1.262   3.022  -0.695  0.00  0.00    -0.010 C 
ATOM      2  C   LIG    1       -0.819   1.627  -1.200  0.00  0.00    +0.040 C 
ATOM      3  C   LIG    1       -0.013   1.086   0.008  0.00  0.00    +0.200 C 
ATOM      4  O   LIG    1       -0.742   1.578   1.153  0.00  0.00    -0.360 OA
ATOM      5  C   LIG    1       -1.157   2.920   0.839  0.00  0.00    +0.270 C 
ENDROOT
BRANCH   5   6
ATOM      6  C   LIG    1       -2.497   3.207   1.465  0.00  0.00    -0.250 A 
ATOM      7  C   LIG    1       -2.914   4.403   1.940  0.00  0.00    +0.240 A 
ATOM      8  N   LIG    1       -4.168   4.243   2.413  0.00  0.00    -0.370 N 
ATOM      9  N   LIG    1       -4.530   2.902   2.231  0.00  0.00    -0.290 NA
ATOM     10  C   LIG    1       -3.528   2.282   1.662  0.00  0.00    +0.250 A 
BRANCH   8  11
ATOM     11  C   LIG    1       -5.001   5.286   3.017  0.00  0.00    +0.390 C 
BRANCH  11  12
ATOM     12  C   LIG    1       -6.317   5.362   2.289  0.00  0.00    -0.110 A 
ATOM     13  C   LIG    1       -6.460   6.208   1.204  0.00  0.00    +0.020 A 
ATOM     14  C   LIG    1       -7.666   6.273   0.532  0.00  0.00    +0.000 A 
ATOM     15  C   LIG    1       -8.733   5.502   0.952  0.00  0.00    +0.010 A 
ATOM     16  C   LIG    1       -8.593   4.661   2.040  0.00  0.00    +0.010 A 
ATOM     17  C   LIG    1       -7.385   4.591   2.708  0.00  0.00    +0.040 A 
ENDBRANCH  11  12
ENDBRANCH   8  11
ENDBRANCH   5   6
BRANCH   1  20
ATOM     18  N   LIG    1       -0.217   4.290  -2.545  0.00  0.00    -0.620 N 
ATOM     19  H   LIG    1       -0.728   3.746  -3.164  0.00  0.00    +0.420 HD
ATOM     20  C   LIG    1       -0.335   4.090  -1.217  0.00  0.00    +0.520 C 
ATOM     21  O   LIG    1        0.304   4.770  -0.442  0.00  0.00    -0.500 OA
BRANCH  18  26
ATOM     22  C   LIG    1        1.989   6.944  -5.970  0.00  0.00    +0.150 C 
ATOM     23  C   LIG    1        1.675   6.518  -4.559  0.00  0.00    +0.080 A 
ATOM     24  C   LIG    1        2.233   7.092  -3.491  0.00  0.00    -0.280 A 
ATOM     25  S   LIG    1        1.590   6.308  -2.051  0.00  0.00    +0.240 S 
ATOM     26  C   LIG    1        0.638   5.275  -3.026  0.00  0.00    +0.230 A 
ATOM     27  C   LIG    1        3.233   8.219  -3.513  0.00  0.00    +0.150 C 
ATOM     28  N   LIG    1        0.824   5.548  -4.279  0.00  0.00    -0.510 NA
ENDBRANCH  18  26
ENDBRANCH   1  20
TORSDOF 5
