REMARK  Name = ZINCqH0000008B6N.0
REMARK                            x       y       z     vdW  Elec       q    Type
REMARK                         _______ _______ _______ _____ _____    ______ ____
ROOT
ATOM      1  C   LIG    1        0.135  -4.457  -0.942  0.00  0.00    +0.560 C 
ATOM      2  N   LIG    1        0.162  -3.227  -1.494  0.00  0.00    -0.630 N 
ATOM      3  H   LIG    1        0.237  -3.129  -2.456  0.00  0.00    +0.410 HD
ATOM      4  O   LIG    1        0.042  -4.579   0.264  0.00  0.00    -0.510 OA
ENDROOT
BRANCH   1   7
ATOM      5  C   LIG    1        0.274  -8.039  -2.100  0.00  0.00    +0.320 A 
ATOM      6  C   LIG    1        0.192  -6.939  -1.252  0.00  0.00    +0.020 A 
ATOM      7  C   LIG    1        0.219  -5.658  -1.804  0.00  0.00    -0.060 A 
ATOM      8  C   LIG    1        0.321  -5.538  -3.196  0.00  0.00    -0.040 A 
ATOM      9  C   LIG    1        0.402  -6.681  -3.965  0.00  0.00    +0.290 A 
ATOM     10  N   LIG    1        0.374  -7.877  -3.410  0.00  0.00    -0.500 NA
BRANCH   5  16
ATOM     11  C   LIG    1        0.540 -12.781  -3.098  0.00  0.00    +0.020 C 
ATOM     12  C   LIG    1        0.461 -11.725  -1.994  0.00  0.00    -0.010 C 
ATOM     13  C   LIG    1       -0.769 -11.988  -1.122  0.00  0.00    +0.010 C 
ATOM     14  C   LIG    1       -0.874 -10.892  -0.057  0.00  0.00    +0.040 C 
ATOM     15  C   LIG    1       -0.951  -9.527  -0.744  0.00  0.00    +0.200 C 
ATOM     16  N   LIG    1        0.248  -9.322  -1.566  0.00  0.00    -0.480 N 
ATOM     17  C   LIG    1        0.345 -10.335  -2.625  0.00  0.00    +0.210 C 
ENDBRANCH   5  16
ENDBRANCH   1   7
BRANCH   2  18
ATOM     18  C   LIG    1        0.083  -2.087  -0.675  0.00  0.00    -0.000 A 
ATOM     19  C   LIG    1        0.093  -0.796  -1.097  0.00  0.00    +0.210 A 
ATOM     20  N   LIG    1        0.002  -0.004   0.002  0.00  0.00    -0.360 N 
ATOM     21  N   LIG    1       -0.075  -0.836   1.126  0.00  0.00    -0.280 NA
ATOM     22  C   LIG    1       -0.027  -2.079   0.724  0.00  0.00    +0.260 A 
BRANCH  20  23
ATOM     23  C   LIG    1       -0.018   1.461   0.010  0.00  0.00    +0.300 C 
ATOM     24  C   LIG    1       -0.758   1.968  -1.230  0.00  0.00    +0.060 C 
BRANCH  23  25
ATOM     25  C   LIG    1        1.418   1.990  -0.001  0.00  0.00    -0.060 C 
ATOM     26  C   LIG    1        1.921   2.692   1.262  0.00  0.00    +0.030 C 
ATOM     27  C   LIG    1        1.611   3.508   0.005  0.00  0.00    +0.030 C 
ENDBRANCH  23  25
ENDBRANCH  20  23
ENDBRANCH   2  18
TORSDOF 5
