REMARK  Name = ZINCpe00000bSrED.0
REMARK                            x       y       z     vdW  Elec       q    Type
REMARK                         _______ _______ _______ _____ _____    ______ ____
ROOT
ATOM      1  C   LIG    1        1.139   4.247  -1.346  0.00  0.00    +0.560 C 
ATOM      2  N   LIG    1        0.823   2.990  -0.978  0.00  0.00    -0.640 N 
ATOM      3  C   LIG    1        1.375   2.028  -0.003  0.00  0.00    +0.320 C 
ATOM      4  C   LIG    1       -0.028   1.394   0.007  0.00  0.00    +0.170 C 
ATOM      5  F   LIG    1       -0.013  -0.005  -0.003  0.00  0.00    -0.170 F 
ATOM      6  C   LIG    1       -0.212   2.021  -1.387  0.00  0.00    +0.310 C 
ATOM      7  O   LIG    1        2.012   4.850  -0.758  0.00  0.00    -0.520 OA
ENDROOT
BRANCH   4   8
ATOM      8  C   LIG    1       -0.945   1.965   1.058  0.00  0.00    -0.040 A 
ATOM      9  C   LIG    1       -2.207   1.563   1.336  0.00  0.00    +0.210 A 
ATOM     10  N   LIG    1       -2.640   2.360   2.351  0.00  0.00    -0.220 N 
ATOM     11  N   LIG    1       -1.693   3.177   2.651  0.00  0.00    -0.050 NA
ATOM     12  N   LIG    1       -0.668   2.964   1.903  0.00  0.00    -0.220 NA
BRANCH  10  13
ATOM     13  C   LIG    1       -3.901   2.299   2.965  0.00  0.00    +0.280 A 
ATOM     14  N   LIG    1       -4.868   1.465   2.660  0.00  0.00    -0.280 NA
ATOM     15  N   LIG    1       -5.955   1.730   3.503  0.00  0.00    -0.350 N 
ATOM     16  C   LIG    1       -5.612   2.748   4.321  0.00  0.00    +0.270 A 
ATOM     17  C   LIG    1       -7.240   1.026   3.497  0.00  0.00    +0.380 C 
ATOM     18  C   LIG    1       -4.347   3.116   4.015  0.00  0.00    -0.070 A 
ENDBRANCH  10  13
ENDBRANCH   4   8
BRANCH   1  20
ATOM     19  C   LIG    1       -0.750   5.742  -1.935  0.00  0.00    +0.060 C 
ATOM     20  C   LIG    1        0.406   4.905  -2.487  0.00  0.00    +0.000 C 
BRANCH  20  21
ATOM     21  C   LIG    1        1.369   5.809  -3.258  0.00  0.00    +0.170 C 
ATOM     22  C   LIG    1        0.638   6.495  -4.434  0.00  0.00    +0.010 C 
ATOM     23  C   LIG    1        1.691   6.524  -5.564  0.00  0.00    +0.000 C 
ATOM     24  C   LIG    1        2.934   5.853  -4.937  0.00  0.00    +0.190 C 
ATOM     25  O   LIG    1        2.410   5.023  -3.878  0.00  0.00    -0.370 OA
ENDBRANCH  20  21
ENDBRANCH   1  20
TORSDOF 4
