REMARK  Name = ZINCqH0000008swC.0
REMARK                            x       y       z     vdW  Elec       q    Type
REMARK                         _______ _______ _______ _____ _____    ______ ____
ROOT
ATOM      1  N   LIG    1        0.071   4.675   4.904  0.00  0.00    -0.740 N 
ATOM      2  H   LIG    1       -0.033   3.930   5.517  0.00  0.00    +0.410 HD
ENDROOT
BRANCH   1   3
ATOM      3  C   LIG    1       -0.040   4.466   3.525  0.00  0.00    +0.200 A 
ATOM      4  C   LIG    1        0.107   5.527   2.641  0.00  0.00    -0.030 A 
ATOM      5  C   LIG    1       -0.006   5.302   1.291  0.00  0.00    +0.020 A 
ATOM      6  C   LIG    1       -0.264   4.020   0.778  0.00  0.00    +0.110 A 
ATOM      7  N   LIG    1       -0.362   3.956  -0.596  0.00  0.00    -0.640 N 
ATOM      8  H   LIG    1       -0.349   4.837  -1.000  0.00  0.00    +0.390 HD
ATOM      9  C   LIG    1       -0.467   3.014  -1.489  0.00  0.00    +0.520 C 
ATOM     10  C   LIG    1       -0.705   1.567  -1.245  0.00  0.00    +0.070 C 
ATOM     11  C   LIG    1       -0.013   1.086   0.008  0.00  0.00    +0.030 C 
ATOM     12  C   LIG    1       -0.675   1.549   1.268  0.00  0.00    +0.080 C 
ATOM     13  O   LIG    1       -0.358   3.354  -2.648  0.00  0.00    -0.560 OA
ATOM     14  C   LIG    1       -0.408   2.968   1.657  0.00  0.00    -0.060 A 
ATOM     15  C   LIG    1       -0.295   3.202   3.028  0.00  0.00    -0.050 A 
ENDBRANCH   1   3
BRANCH   1  17
ATOM     16  C   LIG    1        1.851   6.273   5.411  0.00  0.00    +0.030 C 
ATOM     17  C   LIG    1        0.343   6.018   5.422  0.00  0.00    +0.340 C 
BRANCH  17  18
ATOM     18  C   LIG    1       -0.175   6.126   6.834  0.00  0.00    -0.020 A 
ATOM     19  C   LIG    1       -0.545   7.258   7.476  0.00  0.00    +0.160 A 
ATOM     20  N   LIG    1       -0.942   6.873   8.720  0.00  0.00    -0.240 N 
ATOM     21  N   LIG    1       -0.813   5.595   8.803  0.00  0.00    -0.070 NA
ATOM     22  N   LIG    1       -0.364   5.120   7.696  0.00  0.00    -0.250 NA
BRANCH  20  23
ATOM     23  C   LIG    1       -1.409   7.721   9.734  0.00  0.00    +0.120 A 
ATOM     24  C   LIG    1       -1.493   9.089   9.513  0.00  0.00    +0.020 A 
ATOM     25  C   LIG    1       -1.959   9.922  10.512  0.00  0.00    +0.040 A 
ATOM     26  C   LIG    1       -2.330   9.395  11.735  0.00  0.00    +0.030 A 
ATOM     27  C   LIG    1       -2.243   8.033  11.960  0.00  0.00    +0.040 A 
ATOM     28  C   LIG    1       -1.783   7.196  10.963  0.00  0.00    +0.040 A 
ENDBRANCH  20  23
ENDBRANCH  17  18
ENDBRANCH   1  17
TORSDOF 4
