REMARK  Name = ZINCrg000000sxBc.0
REMARK                            x       y       z     vdW  Elec       q    Type
REMARK                         _______ _______ _______ _____ _____    ______ ____
ROOT
ATOM      1  C   LIG    1       -5.307  -2.080  -4.720  0.00  0.00    +0.040 C 
ATOM      2  C   LIG    1       -5.791  -2.496  -3.329  0.00  0.00    +0.040 C 
ATOM      3  C   LIG    1       -4.651  -3.197  -2.584  0.00  0.00    +0.290 C 
ATOM      4  N   LIG    1       -3.478  -2.313  -2.575  0.00  0.00    -0.610 N 
ATOM      5  C   LIG    1       -2.987  -1.778  -3.852  0.00  0.00    +0.280 C 
ATOM      6  C   LIG    1       -2.867  -1.994  -1.417  0.00  0.00    +0.530 C 
ATOM      7  O   LIG    1       -3.285  -2.438  -0.368  0.00  0.00    -0.530 OA
ATOM      8  C   LIG    1       -4.841  -3.319  -5.488  0.00  0.00    +0.070 C 
ATOM      9  C   LIG    1       -4.142  -1.097  -4.583  0.00  0.00    +0.050 C 
ENDROOT
BRANCH   1  14
ATOM     10  C   LIG    1       -8.077   0.214  -8.204  0.00  0.00    +0.210 C 
ATOM     11  C   LIG    1       -7.618  -0.450  -6.931  0.00  0.00    +0.170 A 
ATOM     12  N   LIG    1       -8.337  -0.658  -5.869  0.00  0.00    -0.380 NA
ATOM     13  O   LIG    1       -7.677  -1.214  -5.017  0.00  0.00    +0.080 OA
ATOM     14  C   LIG    1       -6.436  -1.420  -5.468  0.00  0.00    +0.190 A 
ATOM     15  N   LIG    1       -6.387  -0.933  -6.685  0.00  0.00    -0.480 NA
ENDBRANCH   1  14
BRANCH   6  16
ATOM     16  C   LIG    1       -1.664  -1.086  -1.424  0.00  0.00    +0.040 C 
BRANCH  16  17
ATOM     17  C   LIG    1       -1.167  -0.887   0.009  0.00  0.00    +0.350 C 
BRANCH  17  18
ATOM     18  N   LIG    1        0.002  -0.004   0.002  0.00  0.00    -0.470 N 
ATOM     19  C   LIG    1        1.308  -0.395  -0.013  0.00  0.00    +0.470 A 
ATOM     20  N   LIG    1        2.085   0.649  -0.014  0.00  0.00    -0.460 NA
ATOM     21  C   LIG    1        1.329   1.773  -0.001  0.00  0.00    -0.110 A 
ATOM     22  C   LIG    1        1.606   3.151   0.004  0.00  0.00    +0.510 A 
ATOM     23  N   LIG    1        0.586   4.002   0.019  0.00  0.00    -0.590 NA
ATOM     24  C   LIG    1       -0.663   3.573   0.029  0.00  0.00    +0.570 A 
ATOM     25  N   LIG    1       -0.970   2.293   0.028  0.00  0.00    -0.560 NA
ATOM     26  C   LIG    1       -0.017   1.368   0.010  0.00  0.00    +0.300 A 
BRANCH  22  27
ATOM     27  N   LIG    1        2.912   3.610  -0.005  0.00  0.00    -0.820 N 
ATOM     28  H   LIG    1        3.091   4.564  -0.001  0.00  0.00    +0.410 HD
ATOM     29  H   LIG    1        3.648   2.979  -0.016  0.00  0.00    +0.420 HD
ENDBRANCH  22  27
ENDBRANCH  17  18
ENDBRANCH  16  17
ENDBRANCH   6  16
TORSDOF 5
