REMARK  Name = ZINCc70000001mMI.0
REMARK                            x       y       z     vdW  Elec       q    Type
REMARK                         _______ _______ _______ _____ _____    ______ ____
ROOT
ATOM      1  N   LIG    1       -0.723   2.616  -3.268  0.00  0.00    -0.750 N 
ATOM      2  H   LIG    1       -1.673   2.443  -3.358  0.00  0.00    +0.400 HD
ATOM      3  C   LIG    1       -0.078   2.260  -2.139  0.00  0.00    +0.710 C 
ATOM      4  N   LIG    1       -0.729   1.575  -1.178  0.00  0.00    -0.630 N 
ATOM      5  C   LIG    1       -0.012   1.082   0.006  0.00  0.00    +0.300 C 
ATOM      6  C   LIG    1       -0.730   1.579   1.264  0.00  0.00    -0.010 C 
ATOM      7  C   LIG    1       -2.205   1.162   1.199  0.00  0.00    +0.170 C 
ATOM      8  C   LIG    1       -2.866   1.802  -0.023  0.00  0.00    +0.040 C 
ATOM      9  C   LIG    1       -2.169   1.308  -1.294  0.00  0.00    +0.270 C 
ATOM     10  O   LIG    1        1.091   2.558  -1.988  0.00  0.00    -0.590 OA
ENDROOT
BRANCH   1  12
ATOM     11  C   LIG    1       -0.948   3.560  -5.512  0.00  0.00    +0.030 C 
ATOM     12  C   LIG    1        0.011   3.264  -4.358  0.00  0.00    +0.270 C 
ENDBRANCH   1  12
BRANCH   7  13
ATOM     13  O   LIG    1       -2.874   1.596   2.385  0.00  0.00    -0.570 OA
ATOM     14  H   LIG    1       -2.507   1.228   3.201  0.00  0.00    +0.380 HD
ENDBRANCH   7  13
TORSDOF 2
