REMARK  Name = ZINCpk00000kW5SA.0
REMARK                            x       y       z     vdW  Elec       q    Type
REMARK                         _______ _______ _______ _____ _____    ______ ____
ROOT
ATOM      1  N   LIG    1        6.217  -1.058   3.340  0.00  0.00    -0.710 N 
ATOM      2  H   LIG    1        5.829  -0.262   3.734  0.00  0.00    +0.410 HD
ENDROOT
BRANCH   1  12
ATOM      3  C   LIG    1        7.247  -1.589   5.458  0.00  0.00    -0.150 A 
ATOM      4  C   LIG    1        8.046  -2.456   6.209  0.00  0.00    +0.170 A 
ATOM      5  C   LIG    1        8.574  -3.578   5.588  0.00  0.00    -0.190 A 
ATOM      6  C   LIG    1        8.295  -3.818   4.258  0.00  0.00    +0.180 A 
ATOM      7  N   LIG    1        7.532  -2.982   3.568  0.00  0.00    -0.520 NA
ATOM      8  C   LIG    1        8.838  -5.035   3.553  0.00  0.00    +0.310 C 
ATOM      9  O   LIG    1        9.908  -5.607   4.305  0.00  0.00    -0.370 OA
ATOM     10  C   LIG    1        9.566  -5.853   5.674  0.00  0.00    +0.220 C 
ATOM     11  C   LIG    1        9.445  -4.508   6.392  0.00  0.00    +0.080 C 
ATOM     12  C   LIG    1        7.006  -1.897   4.108  0.00  0.00    +0.450 A 
BRANCH   3  14
ATOM     13  N   LIG    1        6.235   0.517   6.524  0.00  0.00    -0.410 NA
ATOM     14  C   LIG    1        6.682  -0.414   6.053  0.00  0.00    +0.260 C 
ENDBRANCH   3  14
ENDBRANCH   1  12
BRANCH   1  15
ATOM     15  C   LIG    1        5.968  -1.374   1.931  0.00  0.00    +0.270 C 
ATOM     16  C   LIG    1        5.607  -0.089   1.157  0.00  0.00    +0.050 C 
ATOM     17  C   LIG    1        4.058  -0.076   1.146  0.00  0.00    -0.020 C 
ATOM     18  C   LIG    1        3.704  -1.573   0.962  0.00  0.00    +0.020 C 
ATOM     19  C   LIG    1        4.759  -2.317   1.807  0.00  0.00    +0.150 C 
BRANCH  19  20
ATOM     20  O   LIG    1        5.146  -3.527   1.152  0.00  0.00    -0.550 OA
ATOM     21  H   LIG    1        4.422  -4.154   1.025  0.00  0.00    +0.380 HD
ENDBRANCH  19  20
BRANCH  17  22
ATOM     22  C   LIG    1        3.531   0.753  -0.027  0.00  0.00    +0.330 C 
BRANCH  22  23
ATOM     23  N   LIG    1        2.066   0.743  -0.014  0.00  0.00    -0.370 N 
ATOM     24  C   LIG    1        1.265   1.828  -0.000  0.00  0.00    +0.220 A 
ATOM     25  C   LIG    1       -0.017   1.395   0.010  0.00  0.00    -0.120 A 
ATOM     26  C   LIG    1        0.002  -0.004   0.002  0.00  0.00    +0.220 A 
ATOM     27  N   LIG    1        1.250  -0.396  -0.012  0.00  0.00    -0.290 NA
ENDBRANCH  22  23
ENDBRANCH  17  22
ENDBRANCH   1  15
TORSDOF 6
