REMARK  Name = ZINCqH000000572U.0
REMARK                            x       y       z     vdW  Elec       q    Type
REMARK                         _______ _______ _______ _____ _____    ______ ____
ROOT
ATOM      1  N   LIG    1       -0.011   0.966   0.007  0.00  0.00    -0.650 N 
ATOM      2  H   LIG    1       -0.156   0.086  -0.374  0.00  0.00    +0.420 HD
ATOM      3  C   LIG    1       -1.020   1.604   0.632  0.00  0.00    +0.570 C 
ATOM      4  O   LIG    1       -0.862   2.739   1.039  0.00  0.00    -0.510 OA
ENDROOT
BRANCH   3   5
ATOM      5  C   LIG    1       -2.317   0.926   0.823  0.00  0.00    -0.140 A 
ATOM      6  C   LIG    1       -2.502  -0.376   0.352  0.00  0.00    +0.060 A 
ATOM      7  C   LIG    1       -3.713  -1.008   0.535  0.00  0.00    +0.020 A 
ATOM      8  C   LIG    1       -4.756  -0.351   1.178  0.00  0.00    +0.080 A 
ATOM      9  O   LIG    1       -5.944  -0.992   1.339  0.00  0.00    -0.300 OA
ATOM     10  C   LIG    1       -6.840  -0.450   2.315  0.00  0.00    +0.230 C 
ATOM     11  C   LIG    1       -6.906   1.071   2.115  0.00  0.00    +0.230 C 
ATOM     12  O   LIG    1       -5.588   1.603   2.284  0.00  0.00    -0.300 OA
ATOM     13  C   LIG    1       -4.578   0.948   1.647  0.00  0.00    +0.040 A 
ATOM     14  C   LIG    1       -3.364   1.586   1.471  0.00  0.00    +0.100 A 
ENDBRANCH   3   5
BRANCH   1  20
ATOM     15  C   LIG    1        2.405   0.801  -0.049  0.00  0.00    +0.090 A 
ATOM     16  C   LIG    1        3.646   1.410  -0.153  0.00  0.00    +0.010 A 
ATOM     17  C   LIG    1        3.732   2.782  -0.303  0.00  0.00    +0.060 A 
ATOM     18  C   LIG    1        2.583   3.550  -0.350  0.00  0.00    -0.170 A 
ATOM     19  C   LIG    1        1.341   2.950  -0.253  0.00  0.00    +0.090 A 
ATOM     20  C   LIG    1        1.246   1.575  -0.097  0.00  0.00    +0.170 A 
BRANCH  18  21
ATOM     21  C   LIG    1        2.685   5.045  -0.513  0.00  0.00    +0.510 C 
ATOM     22  F   LIG    1        2.093   5.675   0.587  0.00  0.00    -0.170 F 
ATOM     23  F   LIG    1        2.023   5.432  -1.684  0.00  0.00    -0.180 F 
ATOM     24  F   LIG    1        4.031   5.415  -0.594  0.00  0.00    -0.180 F 
ENDBRANCH  18  21
BRANCH  15  26
ATOM     25  C   LIG    1        2.930  -1.282  -1.037  0.00  0.00    +0.210 C 
ATOM     26  N   LIG    1        2.316  -0.587   0.102  0.00  0.00    -0.510 N 
ATOM     27  C   LIG    1        2.921  -1.018   1.370  0.00  0.00    +0.220 C 
ENDBRANCH  15  26
ENDBRANCH   1  20
TORSDOF 4
