REMARK  Name = ZINCpk00001AZiNT.0
REMARK                            x       y       z     vdW  Elec       q    Type
REMARK                         _______ _______ _______ _____ _____    ______ ____
ROOT
ATOM      1  N   LIG    1       -0.288   1.272  -2.443  0.00  0.00    -0.720 N 
ATOM      2  H   LIG    1        0.507   0.726  -2.543  0.00  0.00    +0.410 HD
ATOM      3  C   LIG    1       -0.742   1.585  -1.213  0.00  0.00    +0.520 C 
ATOM      4  O   LIG    1       -1.736   2.268  -1.088  0.00  0.00    -0.540 OA
ENDROOT
BRANCH   1   6
ATOM      5  C   LIG    1       -2.141   0.800  -3.968  0.00  0.00    +0.060 C 
ATOM      6  C   LIG    1       -0.997   1.758  -3.630  0.00  0.00    +0.340 C 
BRANCH   6   7
ATOM      7  C   LIG    1       -0.041   1.828  -4.792  0.00  0.00    +0.130 A 
ATOM      8  N   LIG    1        0.832   0.915  -5.133  0.00  0.00    -0.220 NA
ATOM      9  N   LIG    1        1.486   1.290  -6.175  0.00  0.00    -0.260 NA
ATOM     10  C   LIG    1        1.067   2.486  -6.557  0.00  0.00    +0.350 A 
ATOM     11  N   LIG    1        1.418   3.302  -7.559  0.00  0.00    -0.430 NA
ATOM     12  C   LIG    1        0.828   4.463  -7.718  0.00  0.00    +0.380 A 
ATOM     13  C   LIG    1       -0.186   4.872  -6.839  0.00  0.00    -0.010 A 
ATOM     14  C   LIG    1       -0.552   4.056  -5.820  0.00  0.00    +0.300 A 
ATOM     15  N   LIG    1        0.078   2.855  -5.677  0.00  0.00    -0.420 N 
ENDBRANCH   6   7
ENDBRANCH   1   6
BRANCH   3  16
ATOM     16  C   LIG    1       -0.013   1.086   0.008  0.00  0.00    +0.060 C 
BRANCH  16  17
ATOM     17  C   LIG    1       -0.729   1.579   1.267  0.00  0.00    +0.100 C 
BRANCH  17  18
ATOM     18  C   LIG    1        0.000   1.080   2.488  0.00  0.00    -0.110 A 
ATOM     19  C   LIG    1       -0.351  -0.137   3.051  0.00  0.00    +0.070 A 
ATOM     20  C   LIG    1        0.312  -0.609   4.166  0.00  0.00    -0.020 A 
ATOM     21  C   LIG    1        1.330   0.139   4.739  0.00  0.00    +0.170 A 
ATOM     22  C   LIG    1        1.685   1.375   4.176  0.00  0.00    -0.220 A 
ATOM     23  C   LIG    1        1.008   1.838   3.042  0.00  0.00    +0.090 A 
BRANCH  22  24
ATOM     24  C   LIG    1        2.760   2.177   4.772  0.00  0.00    +0.490 C 
ATOM     25  O   LIG    1        3.345   1.772   5.755  0.00  0.00    -0.440 OA
ENDBRANCH  22  24
BRANCH  21  26
ATOM     26  O   LIG    1        1.978  -0.322   5.838  0.00  0.00    -0.480 OA
ATOM     27  H   LIG    1        1.576  -0.049   6.674  0.00  0.00    +0.400 HD
ENDBRANCH  21  26
ENDBRANCH  17  18
ENDBRANCH  16  17
ENDBRANCH   3  16
TORSDOF 7
