REMARK  Name = ZINCtV00001bB3kv.0
REMARK                            x       y       z     vdW  Elec       q    Type
REMARK                         _______ _______ _______ _____ _____    ______ ____
ROOT
ATOM      1  C   LIG    1       -2.014   2.579   5.780  0.00  0.00    +0.080 C 
ATOM      2  C   LIG    1       -0.757   1.745   6.034  0.00  0.00    +0.040 C 
ATOM      3  C   LIG    1       -0.097   1.393   4.699  0.00  0.00    +0.020 C 
ATOM      4  C   LIG    1       -1.072   0.554   3.858  0.00  0.00    +0.280 C 
ATOM      5  N   LIG    1       -2.335   1.293   3.731  0.00  0.00    -0.610 N 
ATOM      6  C   LIG    1       -2.870   1.536   2.518  0.00  0.00    +0.530 C 
ATOM      7  O   LIG    1       -2.356   1.066   1.524  0.00  0.00    -0.530 OA
ATOM      8  C   LIG    1       -3.008   1.759   4.952  0.00  0.00    +0.290 C 
ENDROOT
BRANCH   6   9
ATOM      9  C   LIG    1       -4.105   2.390   2.395  0.00  0.00    -0.010 C 
ATOM     10  C   LIG    1       -5.347   1.525   2.618  0.00  0.00    +0.040 C 
ATOM     11  C   LIG    1       -6.602   2.392   2.494  0.00  0.00    +0.050 C 
ATOM     12  C   LIG    1       -6.656   3.013   1.096  0.00  0.00    +0.030 C 
ATOM     13  C   LIG    1       -5.414   3.878   0.874  0.00  0.00    +0.290 C 
ATOM     14  F   LIG    1       -5.375   4.894   1.834  0.00  0.00    -0.200 F 
ATOM     15  F   LIG    1       -5.464   4.446  -0.404  0.00  0.00    -0.200 F 
ATOM     16  C   LIG    1       -4.160   3.011   0.998  0.00  0.00    +0.060 C 
ENDBRANCH   6   9
BRANCH   1  20
ATOM     17  C   LIG    1       -3.402   4.313   8.687  0.00  0.00    +0.080 A 
ATOM     18  C   LIG    1       -3.705   3.169   9.307  0.00  0.00    -0.070 A 
ATOM     19  S   LIG    1       -3.211   1.839   8.262  0.00  0.00    +0.120 S 
ATOM     20  C   LIG    1       -2.645   2.954   7.096  0.00  0.00    +0.050 A 
ATOM     21  N   LIG    1       -2.831   4.162   7.509  0.00  0.00    -0.460 NA
BRANCH  17  27
ATOM     22  C   LIG    1       -3.591   6.906  12.932  0.00  0.00    +0.020 C 
ATOM     23  C   LIG    1       -3.781   6.973  11.416  0.00  0.00    -0.060 C 
ATOM     24  C   LIG    1       -5.221   7.381  11.099  0.00  0.00    +0.010 C 
ATOM     25  C   LIG    1       -5.410   7.448   9.583  0.00  0.00    +0.010 C 
ATOM     26  C   LIG    1       -5.124   6.075   8.972  0.00  0.00    +0.010 C 
ATOM     27  C   LIG    1       -3.684   5.666   9.288  0.00  0.00    +0.080 C 
ATOM     28  C   LIG    1       -2.817   8.004  10.826  0.00  0.00    +0.020 C 
ATOM     29  C   LIG    1       -3.494   5.599  10.805  0.00  0.00    +0.020 C 
ENDBRANCH  17  27
ENDBRANCH   1  20
TORSDOF 3
