REMARK  Name = ZINCrH000004uLPx.0
REMARK                            x       y       z     vdW  Elec       q    Type
REMARK                         _______ _______ _______ _____ _____    ______ ____
ROOT
ATOM      1  C   LIG    1        1.238   1.841   0.000  0.00  0.00    +0.000 A 
ATOM      2  C   LIG    1        2.136   0.822  -0.014  0.00  0.00    -0.060 A 
ATOM      3  C   LIG    1        1.349  -0.411  -0.013  0.00  0.00    -0.130 A 
ATOM      4  C   LIG    1        1.670  -1.770  -0.024  0.00  0.00    +0.080 A 
ATOM      5  C   LIG    1        0.670  -2.702  -0.020  0.00  0.00    +0.010 A 
ATOM      6  C   LIG    1       -0.660  -2.306  -0.005  0.00  0.00    +0.060 A 
ATOM      7  C   LIG    1       -0.997  -0.970   0.006  0.00  0.00    +0.030 A 
ATOM      8  C   LIG    1        0.002  -0.004   0.002  0.00  0.00    +0.080 A 
ATOM      9  O   LIG    1       -0.016   1.343   0.009  0.00  0.00    -0.180 OA
ENDROOT
BRANCH   1  11
ATOM     10  O   LIG    1        2.747   3.616  -0.006  0.00  0.00    -0.480 OA
ATOM     11  C   LIG    1        1.581   3.270   0.004  0.00  0.00    +0.610 C 
ATOM     12  N   LIG    1        0.603   4.197   0.018  0.00  0.00    -0.590 N 
ATOM     13  H   LIG    1       -0.327   3.922   0.025  0.00  0.00    +0.410 HD
BRANCH  12  14
ATOM     14  O   LIG    1        0.933   5.574   0.021  0.00  0.00    -0.130 OA
BRANCH  14  15
ATOM     15  C   LIG    1       -0.201   6.444   0.037  0.00  0.00    +0.220 C 
BRANCH  15  16
ATOM     16  C   LIG    1        0.265   7.877   0.039  0.00  0.00    -0.100 A 
ATOM     17  C   LIG    1        0.485   8.530   1.237  0.00  0.00    +0.040 A 
ATOM     18  C   LIG    1        0.917   9.843   1.240  0.00  0.00    +0.010 A 
ATOM     19  C   LIG    1        1.119  10.507   0.044  0.00  0.00    +0.020 A 
ATOM     20  C   LIG    1        0.894   9.855  -1.155  0.00  0.00    +0.010 A 
ATOM     21  C   LIG    1        0.468   8.540  -1.157  0.00  0.00    +0.040 A 
ENDBRANCH  15  16
ENDBRANCH  14  15
ENDBRANCH  12  14
ENDBRANCH   1  11
BRANCH   2  22
ATOM     22  C   LIG    1        3.638   0.938  -0.028  0.00  0.00    +0.180 C 
BRANCH  22  23
ATOM     23  S   LIG    1        4.225   0.994  -1.743  0.00  0.00    +0.050 S 
BRANCH  23  24
ATOM     24  C   LIG    1        5.972   1.128  -1.561  0.00  0.00    +0.210 A 
ATOM     25  N   LIG    1        6.620   1.177  -0.420  0.00  0.00    -0.320 NA
ATOM     26  N   LIG    1        7.985   1.280  -0.734  0.00  0.00    -0.480 N 
ATOM     27  H   LIG    1        8.722   1.335  -0.106  0.00  0.00    +0.440 HD
ATOM     28  C   LIG    1        8.068   1.294  -2.075  0.00  0.00    +0.500 A 
ATOM     29  N   LIG    1        6.856   1.203  -2.561  0.00  0.00    -0.520 NA
ENDBRANCH  23  24
ENDBRANCH  22  23
ENDBRANCH   2  22
TORSDOF 7
