REMARK  Name = ZINCrH000004vFQS.0
REMARK                            x       y       z     vdW  Elec       q    Type
REMARK                         _______ _______ _______ _____ _____    ______ ____
ROOT
ATOM      1  O   LIG    1       -5.410   1.014   6.069  0.00  0.00    -0.510 OA
ATOM      2  C   LIG    1       -5.754   2.164   5.876  0.00  0.00    +0.600 C 
ATOM      3  N   LIG    1       -5.031   2.956   5.059  0.00  0.00    -0.590 N 
ATOM      4  C   LIG    1       -5.516   4.293   4.690  0.00  0.00    +0.290 C 
ATOM      5  C   LIG    1       -5.521   4.411   3.162  0.00  0.00    +0.030 C 
ATOM      6  C   LIG    1       -4.128   4.076   2.624  0.00  0.00    +0.030 C 
ATOM      7  C   LIG    1       -3.768   2.636   2.996  0.00  0.00    +0.260 C 
ATOM      8  C   LIG    1       -3.743   2.498   4.521  0.00  0.00    +0.300 C 
ENDROOT
BRANCH   2   9
ATOM      9  C   LIG    1       -6.963   2.693   6.535  0.00  0.00    +0.050 A 
ATOM     10  C   LIG    1       -7.851   1.970   7.281  0.00  0.00    -0.020 A 
ATOM     11  N   LIG    1       -8.816   2.835   7.703  0.00  0.00    -0.350 N 
ATOM     12  C   LIG    1       -9.935   2.662   8.469  0.00  0.00    +0.220 A 
ATOM     13  C   LIG    1      -10.744   3.704   8.748  0.00  0.00    +0.040 A 
ATOM     14  C   LIG    1      -10.448   4.986   8.254  0.00  0.00    +0.060 A 
ATOM     15  C   LIG    1       -9.340   5.174   7.490  0.00  0.00    +0.080 A 
ATOM     16  C   LIG    1       -8.500   4.075   7.205  0.00  0.00    +0.250 A 
ATOM     17 BR   LIG    1       -7.758   0.119   7.658  0.00  0.00    +0.060 Br
ATOM     18  N   LIG    1       -7.380   3.973   6.510  0.00  0.00    -0.460 NA
ENDBRANCH   2   9
BRANCH   7  19
ATOM     19  N   LIG    1       -2.447   2.307   2.453  0.00  0.00    -0.340 N 
ATOM     20  C   LIG    1       -1.260   2.570   3.038  0.00  0.00    +0.250 A 
ATOM     21  C   LIG    1       -0.286   2.109   2.220  0.00  0.00    -0.070 A 
ATOM     22  C   LIG    1       -0.899   1.545   1.096  0.00  0.00    -0.020 A 
ATOM     23  N   LIG    1       -2.194   1.668   1.232  0.00  0.00    -0.230 NA
BRANCH  22  24
ATOM     24  C   LIG    1       -0.189   0.911  -0.072  0.00  0.00    +0.560 C 
ATOM     25  F   LIG    1       -0.956   1.079  -1.230  0.00  0.00    -0.170 F 
ATOM     26  F   LIG    1        1.058   1.520  -0.247  0.00  0.00    -0.160 F 
ATOM     27  F   LIG    1       -0.011  -0.454   0.175  0.00  0.00    -0.170 F 
ENDBRANCH  22  24
ENDBRANCH   7  19
TORSDOF 3
