REMARK  Name = ZINCqH00000326mu.0
REMARK                            x       y       z     vdW  Elec       q    Type
REMARK                         _______ _______ _______ _____ _____    ______ ____
ROOT
ATOM      1  N   LIG    1       -0.494   6.296  -0.083  0.00  0.00    -0.720 N 
ATOM      2  H   LIG    1       -1.336   5.815  -0.068  0.00  0.00    +0.400 HD
ATOM      3  C   LIG    1       -0.488   7.639  -0.200  0.00  0.00    +0.560 C 
ATOM      4  O   LIG    1        0.567   8.243  -0.218  0.00  0.00    -0.520 OA
ENDROOT
BRANCH   3   5
ATOM      5  C   LIG    1       -1.762   8.376  -0.306  0.00  0.00    -0.130 A 
ATOM      6  C   LIG    1       -2.975   7.681  -0.290  0.00  0.00    +0.050 A 
ATOM      7  C   LIG    1       -4.155   8.364  -0.382  0.00  0.00    +0.040 A 
ATOM      8  C   LIG    1       -4.148   9.757  -0.504  0.00  0.00    +0.010 A 
ATOM      9  C   LIG    1       -2.935  10.451  -0.525  0.00  0.00    +0.030 A 
ATOM     10  C   LIG    1       -1.756   9.769  -0.427  0.00  0.00    +0.090 A 
BRANCH   8  11
ATOM     11  C   LIG    1       -5.423  10.494  -0.610  0.00  0.00    -0.020 A 
ATOM     12  C   LIG    1       -6.672   9.958  -0.609  0.00  0.00    +0.180 A 
ATOM     13  N   LIG    1       -7.544  10.969  -0.721  0.00  0.00    -0.490 NA
ATOM     14  C   LIG    1       -6.884  12.091  -0.798  0.00  0.00    +0.430 A 
ATOM     15  O   LIG    1       -5.572  11.832  -0.732  0.00  0.00    -0.200 OA
ENDBRANCH   8  11
ENDBRANCH   3   5
BRANCH   1  17
ATOM     16  C   LIG    1        1.521   6.020   1.275  0.00  0.00    +0.040 C 
ATOM     17  C   LIG    1        0.771   5.565   0.022  0.00  0.00    +0.220 C 
ATOM     18  C   LIG    1        1.627   5.846  -1.215  0.00  0.00    +0.060 C 
BRANCH  17  19
ATOM     19  C   LIG    1        0.490   4.087   0.114  0.00  0.00    -0.080 A 
ATOM     20  C   LIG    1        1.408   3.247   0.715  0.00  0.00    +0.050 A 
ATOM     21  C   LIG    1        1.152   1.891   0.806  0.00  0.00    +0.050 A 
ATOM     22  C   LIG    1       -0.021   1.370   0.286  0.00  0.00    +0.030 A 
ATOM     23  O   LIG    1       -0.504   0.094   0.243  0.00  0.00    -0.310 OA
ATOM     24  C   LIG    1       -1.542   0.109  -0.755  0.00  0.00    +0.430 C 
ATOM     25  O   LIG    1       -2.009   1.472  -0.743  0.00  0.00    -0.310 OA
ATOM     26  C   LIG    1       -0.946   2.217  -0.321  0.00  0.00    +0.040 A 
ATOM     27  C   LIG    1       -0.686   3.575  -0.404  0.00  0.00    +0.030 A 
ENDBRANCH  17  19
ENDBRANCH   1  17
TORSDOF 4
