REMARK  Name = ZINCkj00000a7RYx.0
REMARK                            x       y       z     vdW  Elec       q    Type
REMARK                         _______ _______ _______ _____ _____    ______ ____
ROOT
ATOM      1  O   LIG    1        3.670   6.091  -0.003  0.00  0.00    -0.520 OA
ATOM      2  C   LIG    1        3.989   4.918  -0.012  0.00  0.00    +0.600 C 
ATOM      3  N   LIG    1        5.293   4.574  -0.026  0.00  0.00    -0.710 N 
ATOM      4  H   LIG    1        5.547   3.638  -0.033  0.00  0.00    +0.420 HD
ENDROOT
BRANCH   3   5
ATOM      5  C   LIG    1        6.324   5.614  -0.032  0.00  0.00    +0.160 C 
ATOM      6  C   LIG    1        6.245   6.501   1.226  0.00  0.00    +0.060 C 
ATOM      7  C   LIG    1        7.719   6.850   1.545  0.00  0.00    +0.050 C 
ATOM      8  C   LIG    1        8.462   5.534   1.207  0.00  0.00    +0.070 C 
ATOM      9  C   LIG    1        6.226   6.509  -1.286  0.00  0.00    +0.090 C 
ATOM     10  C   LIG    1        7.336   5.893  -2.212  0.00  0.00    +0.270 C 
ATOM     11  N   LIG    1        8.420   5.545  -1.260  0.00  0.00    -0.510 N 
ATOM     12  H   LIG    1        9.024   4.843  -1.661  0.00  0.00    +0.430 HD
ATOM     13  H   LIG    1        8.953   6.368  -1.023  0.00  0.00    +0.430 HD
ATOM     14  C   LIG    1        7.748   5.009  -0.056  0.00  0.00    +0.170 C 
ENDBRANCH   3   5
BRANCH   2  15
ATOM     15  C   LIG    1        2.952   3.872  -0.006  0.00  0.00    -0.030 A 
ATOM     16  C   LIG    1        1.613   4.224   0.008  0.00  0.00    +0.150 A 
ATOM     17  C   LIG    1        0.654   3.196   0.012  0.00  0.00    +0.000 A 
ATOM     18  C   LIG    1       -0.729   3.186   0.025  0.00  0.00    +0.010 A 
ATOM     19  C   LIG    1       -1.128   1.848   0.017  0.00  0.00    +0.020 A 
ATOM     20  C   LIG    1       -0.013   1.076   0.008  0.00  0.00    +0.170 A 
ATOM     21  N   LIG    1        1.083   1.879   0.002  0.00  0.00    -0.390 N 
ATOM     22  C   LIG    1        2.426   1.611  -0.012  0.00  0.00    +0.530 A 
ATOM     23  N   LIG    1        3.308   2.563  -0.016  0.00  0.00    -0.480 NA
ENDBRANCH   2  15
TORSDOF 2
