REMARK  Name = ZINCrD00000l59ma.0
REMARK                            x       y       z     vdW  Elec       q    Type
REMARK                         _______ _______ _______ _____ _____    ______ ____
ROOT
ATOM      1  O   LIG    1       -1.736   2.268  -1.088  0.00  0.00    -0.540 OA
ATOM      2  C   LIG    1       -0.742   1.585  -1.213  0.00  0.00    +0.520 C 
ATOM      3  N   LIG    1       -0.288   1.272  -2.443  0.00  0.00    -0.610 N 
ATOM      4  C   LIG    1        0.915   0.446  -2.610  0.00  0.00    +0.260 C 
ATOM      5  C   LIG    1        1.898   1.185  -3.522  0.00  0.00    +0.030 C 
ATOM      6  C   LIG    1        1.198   1.547  -4.834  0.00  0.00    +0.040 C 
ATOM      7  C   LIG    1        0.016   2.476  -4.544  0.00  0.00    +0.150 C 
ATOM      8  C   LIG    1       -0.992   1.746  -3.643  0.00  0.00    +0.260 C 
ENDROOT
BRANCH   7   9
ATOM      9  O   LIG    1       -0.619   2.838  -5.772  0.00  0.00    -0.370 OA
BRANCH   9  10
ATOM     10  C   LIG    1       -1.230   4.129  -5.751  0.00  0.00    +0.220 C 
BRANCH  10  11
ATOM     11  C   LIG    1       -1.866   4.406  -7.089  0.00  0.00    -0.090 A 
ATOM     12  C   LIG    1       -1.136   5.028  -8.085  0.00  0.00    +0.020 A 
ATOM     13  C   LIG    1       -1.718   5.277  -9.314  0.00  0.00    +0.000 A 
ATOM     14  C   LIG    1       -3.031   4.913  -9.544  0.00  0.00    +0.010 A 
ATOM     15  C   LIG    1       -3.762   4.295  -8.547  0.00  0.00    +0.000 A 
ATOM     16  C   LIG    1       -3.179   4.042  -7.319  0.00  0.00    +0.020 A 
ENDBRANCH  10  11
ENDBRANCH   9  10
ENDBRANCH   7   9
BRANCH   2  17
ATOM     17  C   LIG    1       -0.013   1.086   0.008  0.00  0.00    +0.060 C 
BRANCH  17  18
ATOM     18  C   LIG    1       -0.729   1.579   1.267  0.00  0.00    +0.150 C 
BRANCH  18  19
ATOM     19  C   LIG    1        0.000   1.080   2.488  0.00  0.00    -0.030 A 
ATOM     20  C   LIG    1        1.066   1.655   3.080  0.00  0.00    +0.150 A 
ATOM     21  N   LIG    1        1.412   0.902   4.137  0.00  0.00    -0.490 NA
ATOM     22  C   LIG    1        0.609  -0.118   4.217  0.00  0.00    +0.210 A 
ATOM     23  C   LIG    1        0.630  -1.223   5.246  0.00  0.00    +0.160 C 
ATOM     24  C   LIG    1       -0.714  -1.960   5.185  0.00  0.00    +0.020 C 
ATOM     25  C   LIG    1       -1.036  -2.303   3.728  0.00  0.00    +0.030 C 
ATOM     26  C   LIG    1       -1.354  -1.017   2.958  0.00  0.00    +0.280 C 
ATOM     27  N   LIG    1       -0.287  -0.044   3.204  0.00  0.00    -0.450 N 
ENDBRANCH  18  19
ENDBRANCH  17  18
ENDBRANCH   2  17
TORSDOF 6
