REMARK  Name = ZINCpe000000YBZP.0
REMARK                            x       y       z     vdW  Elec       q    Type
REMARK                         _______ _______ _______ _____ _____    ______ ____
ROOT
ATOM      1  N   LIG    1       -0.018   1.461   0.010  0.00  0.00    -0.700 N 
ATOM      2  H   LIG    1       -0.864   1.934   0.017  0.00  0.00    +0.410 HD
ATOM      3  C   LIG    1        1.140   2.151   0.003  0.00  0.00    +0.520 C 
ATOM      4  O   LIG    1        2.199   1.558  -0.011  0.00  0.00    -0.530 OA
ENDROOT
BRANCH   1   5
ATOM      5  C   LIG    1        0.002  -0.004   0.002  0.00  0.00    +0.300 C 
BRANCH   5   6
ATOM      6  C   LIG    1       -1.284  -0.521  -0.589  0.00  0.00    -0.100 A 
ATOM      7  C   LIG    1       -2.483   0.092  -0.277  0.00  0.00    +0.010 A 
ATOM      8  C   LIG    1       -3.663  -0.379  -0.822  0.00  0.00    +0.020 A 
ATOM      9  C   LIG    1       -3.644  -1.469  -1.673  0.00  0.00    +0.020 A 
ATOM     10  C   LIG    1       -2.446  -2.085  -1.981  0.00  0.00    +0.020 A 
ATOM     11  C   LIG    1       -1.266  -1.611  -1.439  0.00  0.00    +0.030 A 
ENDBRANCH   5   6
BRANCH   5  15
ATOM     12  N   LIG    1        0.188  -1.838   1.651  0.00  0.00    -0.850 N 
ATOM     13  H   LIG    1        0.281  -2.165   2.560  0.00  0.00    +0.410 HD
ATOM     14  H   LIG    1        0.125  -2.465   0.914  0.00  0.00    +0.400 HD
ATOM     15  C   LIG    1        0.146  -0.512   1.413  0.00  0.00    +0.510 C 
ATOM     16  O   LIG    1        0.225   0.272   2.335  0.00  0.00    -0.530 OA
ENDBRANCH   5  15
ENDBRANCH   1   5
BRANCH   3  17
ATOM     17  C   LIG    1        1.120   3.657   0.011  0.00  0.00    +0.320 C 
BRANCH  17  18
ATOM     18  N   LIG    1        2.494   4.164   0.001  0.00  0.00    -0.740 N 
ATOM     19  H   LIG    1        3.240   3.544  -0.010  0.00  0.00    +0.410 HD
ATOM     20  C   LIG    1        2.722   5.493   0.006  0.00  0.00    +0.710 C 
ATOM     21  N   LIG    1        3.987   5.959  -0.004  0.00  0.00    -0.740 N 
ATOM     22  H   LIG    1        4.732   5.339  -0.015  0.00  0.00    +0.400 HD
ATOM     23  O   LIG    1        1.788   6.270   0.019  0.00  0.00    -0.590 OA
BRANCH  21  24
ATOM     24  C   LIG    1        4.235   7.403   0.001  0.00  0.00    +0.340 C 
BRANCH  24  25
ATOM     25  C   LIG    1        5.720   7.657  -0.011  0.00  0.00    -0.110 A 
ATOM     26  C   LIG    1        6.412   7.773   1.180  0.00  0.00    +0.020 A 
ATOM     27  C   LIG    1        7.775   8.002   1.168  0.00  0.00    +0.000 A 
ATOM     28  C   LIG    1        8.445   8.125  -0.035  0.00  0.00    +0.010 A 
ATOM     29  C   LIG    1        7.752   8.014  -1.226  0.00  0.00    +0.000 A 
ATOM     30  C   LIG    1        6.390   7.781  -1.214  0.00  0.00    +0.020 A 
ENDBRANCH  24  25
ENDBRANCH  21  24
ENDBRANCH  17  18
ENDBRANCH   3  17
TORSDOF 7
