REMARK  Name = ZINCrD0000072gFi.0
REMARK                            x       y       z     vdW  Elec       q    Type
REMARK                         _______ _______ _______ _____ _____    ______ ____
ROOT
ATOM      1  N   LIG    1       -7.505  -0.261   2.505  0.00  0.00    -1.100 NA
ATOM      2  H   LIG    1       -8.014  -0.896   3.034  0.00  0.00    +0.420 HD
ENDROOT
BRANCH   1   3
ATOM      3  S   LIG    1       -6.405  -0.804   1.393  0.00  0.00    +2.690 S 
ATOM      4  O   LIG    1       -6.423  -2.222   1.470  0.00  0.00    -0.950 OA
ATOM      5  O   LIG    1       -6.661  -0.087   0.193  0.00  0.00    -0.940 OA
BRANCH   3   6
ATOM      6  C   LIG    1       -4.811  -0.295   1.945  0.00  0.00    -0.630 A 
ATOM      7  C   LIG    1       -4.071  -1.119   2.773  0.00  0.00    +0.110 A 
ATOM      8  C   LIG    1       -2.820  -0.720   3.207  0.00  0.00    +0.110 A 
ATOM      9  C   LIG    1       -2.309   0.502   2.812  0.00  0.00    -0.610 A 
ATOM     10  C   LIG    1       -3.051   1.328   1.988  0.00  0.00    +0.110 A 
ATOM     11  C   LIG    1       -4.299   0.926   1.550  0.00  0.00    +0.110 A 
BRANCH   9  12
ATOM     12  S   LIG    1       -0.715   1.010   3.365  0.00  0.00    +2.490 S 
ATOM     13  O   LIG    1       -0.767   2.430   3.327  0.00  0.00    -0.930 OA
ATOM     14  O   LIG    1       -0.532   0.316   4.591  0.00  0.00    -0.930 OA
ATOM     15  C   LIG    1        0.424   0.381   2.101  0.00  0.00    -0.250 C 
ENDBRANCH   9  12
ENDBRANCH   3   6
ENDBRANCH   1   3
BRANCH   1  16
ATOM     16  C   LIG    1       -7.710   1.177   2.692  0.00  0.00    +0.250 C 
BRANCH  16  17
ATOM     17  C   LIG    1       -7.519   1.532   4.168  0.00  0.00    -0.060 C 
ATOM     18  C   LIG    1       -7.733   3.035   4.363  0.00  0.00    +0.030 C 
ATOM     19  C   LIG    1       -7.543   3.390   5.839  0.00  0.00    -0.010 C 
ATOM     20  C   LIG    1       -8.556   2.617   6.684  0.00  0.00    +0.010 C 
ATOM     21  C   LIG    1       -8.343   1.114   6.489  0.00  0.00    -0.020 C 
ATOM     22  C   LIG    1       -6.924   0.740   6.925  0.00  0.00    +0.010 C 
ATOM     23  C   LIG    1       -5.910   1.514   6.079  0.00  0.00    -0.020 C 
ATOM     24  C   LIG    1       -6.124   3.016   6.274  0.00  0.00    +0.010 C 
ATOM     25  C   LIG    1       -8.533   0.759   5.013  0.00  0.00    +0.030 C 
ATOM     26  C   LIG    1       -6.101   1.158   4.604  0.00  0.00    +0.010 C 
ENDBRANCH  16  17
BRANCH  16  28
ATOM     27  C   LIG    1       -9.281   1.307   0.754  0.00  0.00    +0.020 C 
ATOM     28  C   LIG    1       -9.128   1.551   2.256  0.00  0.00    +0.010 C 
ENDBRANCH  16  28
ENDBRANCH   1  16
TORSDOF 6
