REMARK  Name = ZINCtV00000L6kCW.0
REMARK                            x       y       z     vdW  Elec       q    Type
REMARK                         _______ _______ _______ _____ _____    ______ ____
ROOT
ATOM      1  N   LIG    1        5.348   1.635  -0.100  0.00  0.00    -0.430 N 
ATOM      2  C   LIG    1        6.112   2.755   0.177  0.00  0.00    +0.020 A 
ATOM      3  C   LIG    1        5.256   3.810   0.213  0.00  0.00    +0.200 A 
ATOM      4  N   LIG    1        4.021   3.355  -0.037  0.00  0.00    -0.490 NA
ATOM      5  C   LIG    1        4.060   2.056  -0.230  0.00  0.00    +0.190 A 
ENDROOT
BRANCH   2   6
ATOM      6  C   LIG    1        7.573   2.796   0.397  0.00  0.00    -0.000 A 
ATOM      7  C   LIG    1        8.149   3.868   1.081  0.00  0.00    +0.050 A 
ATOM      8  C   LIG    1        9.513   3.898   1.287  0.00  0.00    +0.040 A 
ATOM      9  C   LIG    1       10.311   2.874   0.808  0.00  0.00    -0.040 A 
ATOM     10  C   LIG    1        9.746   1.810   0.124  0.00  0.00    +0.040 A 
ATOM     11 CL   LIG    1       12.027   2.922   1.065  0.00  0.00    -0.060 Cl
ATOM     12  C   LIG    1        8.383   1.766  -0.084  0.00  0.00    +0.010 A 
ENDBRANCH   2   6
BRANCH   1  13
ATOM     13  C   LIG    1        5.834   0.259  -0.232  0.00  0.00    +0.340 C 
BRANCH  13  15
ATOM     14  C   LIG    1        7.189  -0.557  -2.092  0.00  0.00    +0.050 C 
ATOM     15  C   LIG    1        6.045  -0.062  -1.689  0.00  0.00    -0.060 C 
ENDBRANCH  13  15
ENDBRANCH   1  13
BRANCH   5  16
ATOM     16  S   LIG    1        2.675   1.029  -0.590  0.00  0.00    +0.030 S 
BRANCH  16  17
ATOM     17  C   LIG    1        1.357   2.269  -0.594  0.00  0.00    +0.090 C 
BRANCH  17  18
ATOM     18  C   LIG    1        0.038   1.601  -0.889  0.00  0.00    +0.380 C 
ATOM     19  O   LIG    1       -0.005   0.409  -1.078  0.00  0.00    -0.430 OA
BRANCH  18  20
ATOM     20  C   LIG    1       -1.224   2.421  -0.955  0.00  0.00    -0.090 C 
ATOM     21  C   LIG    1       -1.087   3.481  -2.050  0.00  0.00    +0.040 C 
ATOM     22  C   LIG    1       -2.369   4.313  -2.117  0.00  0.00    +0.000 C 
ATOM     23  C   LIG    1       -2.603   5.000  -0.770  0.00  0.00    +0.030 C 
ATOM     24  C   LIG    1       -2.739   3.940   0.326  0.00  0.00    +0.000 C 
ATOM     25  C   LIG    1       -3.925   3.027   0.006  0.00  0.00    +0.020 C 
ATOM     26  C   LIG    1       -3.691   2.340  -1.341  0.00  0.00    -0.020 C 
ATOM     27  C   LIG    1       -3.555   3.400  -2.436  0.00  0.00    +0.020 C 
ATOM     28  C   LIG    1       -1.457   3.108   0.392  0.00  0.00    +0.040 C 
ATOM     29  C   LIG    1       -2.409   1.508  -1.274  0.00  0.00    +0.050 C 
ENDBRANCH  18  20
ENDBRANCH  17  18
ENDBRANCH  16  17
ENDBRANCH   5  16
TORSDOF 7
