REMARK  Name = ZINCqH0000050fxX.0
REMARK                            x       y       z     vdW  Elec       q    Type
REMARK                         _______ _______ _______ _____ _____    ______ ____
ROOT
ATOM      1  C   LIG    1       -0.742   1.585  -1.213  0.00  0.00    +0.520 C 
ATOM      2  N   LIG    1       -0.288   1.272  -2.443  0.00  0.00    -0.520 N 
ATOM      3  H   LIG    1        0.507   0.726  -2.543  0.00  0.00    +0.440 HD
ATOM      4  O   LIG    1       -1.736   2.268  -1.088  0.00  0.00    -0.510 OA
ENDROOT
BRANCH   2   5
ATOM      5  N   LIG    1       -0.966   1.736  -3.578  0.00  0.00    -0.520 N 
ATOM      6  H   LIG    1       -1.761   2.283  -3.479  0.00  0.00    +0.430 HD
ATOM      7  C   LIG    1       -0.513   1.424  -4.808  0.00  0.00    +0.570 C 
ATOM      8  O   LIG    1        0.484   0.739  -4.933  0.00  0.00    -0.530 OA
BRANCH   7   9
ATOM      9  C   LIG    1       -1.227   1.913  -6.005  0.00  0.00    -0.150 A 
ATOM     10  C   LIG    1       -2.376   2.695  -5.865  0.00  0.00    +0.090 A 
ATOM     11  C   LIG    1       -3.036   3.153  -6.985  0.00  0.00    -0.010 A 
ATOM     12  C   LIG    1       -2.568   2.830  -8.249  0.00  0.00    +0.130 A 
ATOM     13  C   LIG    1       -1.431   2.049  -8.394  0.00  0.00    -0.010 A 
ATOM     14  F   LIG    1       -3.221   3.277  -9.344  0.00  0.00    -0.130 F 
ATOM     15  C   LIG    1       -0.760   1.591  -7.281  0.00  0.00    +0.130 A 
ENDBRANCH   7   9
ENDBRANCH   2   5
BRANCH   1  16
ATOM     16  C   LIG    1       -0.013   1.086   0.008  0.00  0.00    +0.250 C 
BRANCH  16  17
ATOM     17  O   LIG    1       -0.682   1.547   1.184  0.00  0.00    -0.280 OA
BRANCH  17  21
ATOM     18  C   LIG    1        2.776  -0.825   3.682  0.00  0.00    +0.110 C 
ATOM     19  C   LIG    1        1.535   0.028   3.637  0.00  0.00    -0.040 A 
ATOM     20  C   LIG    1        0.994   0.397   2.421  0.00  0.00    -0.060 A 
ATOM     21  C   LIG    1       -0.149   1.182   2.380  0.00  0.00    +0.140 A 
ATOM     22  C   LIG    1       -0.744   1.599   3.561  0.00  0.00    -0.090 A 
ATOM     23  C   LIG    1       -0.203   1.224   4.776  0.00  0.00    +0.080 A 
ATOM     24  C   LIG    1        0.937   0.441   4.815  0.00  0.00    -0.070 A 
ATOM     25 CL   LIG    1        1.618  -0.024   6.342  0.00  0.00    -0.070 Cl
BRANCH  22  26
ATOM     26  C   LIG    1       -1.982   2.457   3.520  0.00  0.00    +0.040 C 
ATOM     27  C   LIG    1       -1.704   3.788   4.223  0.00  0.00    +0.040 C 
ATOM     28  C   LIG    1       -3.128   1.734   4.231  0.00  0.00    +0.040 C 
ENDBRANCH  22  26
ENDBRANCH  17  21
ENDBRANCH  16  17
ENDBRANCH   1  16
TORSDOF 6
