REMARK  Name = ZINCpk00000y0RSL.0
REMARK                            x       y       z     vdW  Elec       q    Type
REMARK                         _______ _______ _______ _____ _____    ______ ____
ROOT
ATOM      1  C   LIG    1        7.180  -2.260  -0.002  0.00  0.00    +0.160 C 
ATOM      2  C   LIG    1        7.289  -3.156  -1.239  0.00  0.00    -0.010 C 
ATOM      3  C   LIG    1        5.951  -3.864  -1.466  0.00  0.00    +0.040 C 
ATOM      4  C   LIG    1        4.846  -2.817  -1.624  0.00  0.00    +0.180 C 
ATOM      5  N   LIG    1        4.781  -1.987  -0.414  0.00  0.00    -0.460 N 
ATOM      6  C   LIG    1        6.039  -1.260  -0.202  0.00  0.00    +0.230 C 
ENDROOT
BRANCH   5   7
ATOM      7  C   LIG    1        3.704  -1.112  -0.469  0.00  0.00    +0.270 A 
ATOM      8  N   LIG    1        3.823   0.033  -1.113  0.00  0.00    -0.450 NA
ATOM      9  C   LIG    1        2.784   0.875  -1.165  0.00  0.00    +0.060 A 
ATOM     10  C   LIG    1        2.880   2.101  -1.845  0.00  0.00    +0.100 A 
ATOM     11  C   LIG    1        1.810   2.939  -1.884  0.00  0.00    -0.030 A 
ATOM     12  C   LIG    1        0.609   2.598  -1.255  0.00  0.00    +0.150 A 
ATOM     13  C   LIG    1        0.481   1.414  -0.585  0.00  0.00    +0.020 A 
ATOM     14  C   LIG    1        1.567   0.527  -0.527  0.00  0.00    +0.120 A 
ATOM     15  N   LIG    1        1.468  -0.640   0.122  0.00  0.00    -0.430 NA
ATOM     16  C   LIG    1        2.496  -1.454   0.164  0.00  0.00    +0.150 A 
ATOM     17  C   LIG    1        2.381  -2.766   0.895  0.00  0.00    +0.160 C 
BRANCH  12  18
ATOM     18  O   LIG    1       -0.446   3.453  -1.315  0.00  0.00    -0.310 OA
ATOM     19  C   LIG    1       -0.252   4.675  -2.029  0.00  0.00    +0.240 C 
ENDBRANCH  12  18
ENDBRANCH   5   7
BRANCH   1  20
ATOM     20  O   LIG    1        6.912  -3.065   1.148  0.00  0.00    -0.520 OA
ATOM     21  H   LIG    1        7.596  -3.723   1.335  0.00  0.00    +0.360 HD
ENDBRANCH   1  20
BRANCH   1  22
ATOM     22  C   LIG    1        8.494  -1.502   0.198  0.00  0.00    +0.030 C 
BRANCH  22  26
ATOM     23  C   LIG    1        9.318   0.997   2.978  0.00  0.00    +0.280 C 
ATOM     24  N   LIG    1        9.402   0.186   1.761  0.00  0.00    -0.740 N 
ATOM     25  H   LIG    1       10.173   0.266   1.178  0.00  0.00    +0.400 HD
ATOM     26  C   LIG    1        8.408  -0.669   1.451  0.00  0.00    +0.510 C 
ATOM     27  O   LIG    1        7.443  -0.768   2.180  0.00  0.00    -0.510 OA
ENDBRANCH  22  26
ENDBRANCH   1  22
TORSDOF 5
