REMARK  Name = ZINCvU0000000JF6.0
REMARK                            x       y       z     vdW  Elec       q    Type
REMARK                         _______ _______ _______ _____ _____    ______ ____
ROOT
ATOM      1  C   LIG    1       -0.076   5.750   0.060  0.00  0.00    +0.260 C 
ENDROOT
BRANCH   1   2
ATOM      2  C   LIG    1       -0.056   4.243   0.045  0.00  0.00    -0.070 A 
ATOM      3  C   LIG    1        1.153   3.571   0.022  0.00  0.00    +0.040 A 
ATOM      4  C   LIG    1        1.179   2.192   0.007  0.00  0.00    +0.080 A 
ATOM      5  C   LIG    1       -0.018   1.474   0.016  0.00  0.00    -0.130 A 
ATOM      6  C   LIG    1       -1.235   2.158   0.035  0.00  0.00    +0.040 A 
ATOM      7  C   LIG    1       -1.246   3.538   0.055  0.00  0.00    +0.030 A 
BRANCH   5   8
ATOM      8  C   LIG    1        0.002  -0.004   0.000  0.00  0.00    +0.560 C 
ATOM      9  N   LIG    1       -1.156  -0.694   0.009  0.00  0.00    -0.670 N 
ATOM     10  H   LIG    1       -2.000  -0.224   0.095  0.00  0.00    +0.410 HD
ATOM     11  O   LIG    1        1.063  -0.597  -0.022  0.00  0.00    -0.510 OA
BRANCH   9  12
ATOM     12  C   LIG    1       -1.140  -2.088  -0.104  0.00  0.00    +0.140 A 
ATOM     13  C   LIG    1       -2.156  -2.742  -0.789  0.00  0.00    -0.010 A 
ATOM     14  C   LIG    1       -2.135  -4.118  -0.903  0.00  0.00    +0.030 A 
ATOM     15  C   LIG    1       -1.110  -4.845  -0.327  0.00  0.00    -0.010 A 
ATOM     16  C   LIG    1       -0.100  -4.198   0.361  0.00  0.00    +0.030 A 
ATOM     17  C   LIG    1       -0.112  -2.821   0.474  0.00  0.00    +0.020 A 
ENDBRANCH   9  12
ENDBRANCH   5   8
ENDBRANCH   1   2
BRANCH   1  18
ATOM     18  O   LIG    1       -0.102   6.239  -1.282  0.00  0.00    -0.350 OA
BRANCH  18  20
ATOM     19  O   LIG    1       -0.119   8.310  -0.473  0.00  0.00    -0.510 OA
ATOM     20  C   LIG    1       -0.123   7.578  -1.445  0.00  0.00    +0.500 C 
BRANCH  20  21
ATOM     21  C   LIG    1       -0.149   8.133  -2.750  0.00  0.00    -0.080 C 
ATOM     22  C   LIG    1       -0.170   9.475  -2.913  0.00  0.00    +0.180 C 
BRANCH  22  23
ATOM     23  C   LIG    1       -0.197  10.049  -4.263  0.00  0.00    -0.070 A 
ATOM     24  C   LIG    1       -0.195   9.225  -5.385  0.00  0.00    +0.070 A 
ATOM     25  C   LIG    1       -0.225   9.769  -6.661  0.00  0.00    +0.010 A 
ATOM     26  C   LIG    1       -0.246  11.116  -6.866  0.00  0.00    +0.060 A 
ATOM     27  C   LIG    1       -0.244  12.006  -5.780  0.00  0.00    -0.110 A 
ATOM     28  C   LIG    1       -0.266  13.400  -5.973  0.00  0.00    +0.090 A 
ATOM     29  C   LIG    1       -0.262  14.204  -4.868  0.00  0.00    -0.040 A 
ATOM     30  C   LIG    1       -0.236  13.638  -3.597  0.00  0.00    +0.300 A 
ATOM     31  N   LIG    1       -0.216  12.337  -3.422  0.00  0.00    -0.480 NA
ATOM     32  C   LIG    1       -0.219  11.500  -4.457  0.00  0.00    +0.150 A 
ENDBRANCH  22  23
ENDBRANCH  20  21
ENDBRANCH  18  20
ENDBRANCH   1  18
TORSDOF 7
