REMARK  Name = ZINCrH00000tj12i.0
REMARK                            x       y       z     vdW  Elec       q    Type
REMARK                         _______ _______ _______ _____ _____    ______ ____
ROOT
ATOM      1  C   LIG    1       -4.858   0.180   3.795  0.00  0.00    -0.010 C 
ATOM      2  C   LIG    1       -5.201   1.393   2.928  0.00  0.00    +0.050 C 
ATOM      3  C   LIG    1       -3.913   1.967   2.327  0.00  0.00    +0.290 C 
ATOM      4  N   LIG    1       -3.206   0.895   1.613  0.00  0.00    -1.000 NA
ATOM      5  C   LIG    1       -2.912  -0.354   2.327  0.00  0.00    +0.300 C 
ATOM      6  C   LIG    1       -4.205  -0.900   2.929  0.00  0.00    +0.040 C 
ENDROOT
BRANCH   1  16
ATOM      7  C   LIG    1       -7.255  -1.703   6.126  0.00  0.00    +0.320 C 
ATOM      8  C   LIG    1       -7.269  -1.415   7.623  0.00  0.00    -0.110 A 
ATOM      9  C   LIG    1       -6.207  -0.904   8.273  0.00  0.00    -0.170 A 
ATOM     10  S   LIG    1       -6.587  -0.716   9.981  0.00  0.00    +0.100 S 
ATOM     11  C   LIG    1       -8.206  -1.348   9.725  0.00  0.00    -0.040 A 
ATOM     12  C   LIG    1       -4.886  -0.540   7.631  0.00  0.00    +0.100 C 
ATOM     13  C   LIG    1       -4.778  -1.246   6.270  0.00  0.00    +0.290 C 
ATOM     14  C   LIG    1       -8.369  -1.652   8.442  0.00  0.00    +0.020 A 
ATOM     15  N   LIG    1       -6.054  -1.075   5.559  0.00  0.00    -0.610 N 
ATOM     16  C   LIG    1       -6.118  -0.366   4.415  0.00  0.00    +0.530 C 
ATOM     17  O   LIG    1       -7.190  -0.168   3.883  0.00  0.00    -0.530 OA
BRANCH   7  19
ATOM     18  C   LIG    1       -7.282  -3.497   4.386  0.00  0.00    +0.020 C 
ATOM     19  C   LIG    1       -7.212  -3.214   5.888  0.00  0.00    +0.030 C 
ENDBRANCH   7  19
ENDBRANCH   1  16
BRANCH   4  20
ATOM     20  S   LIG    1       -2.756   1.090   0.031  0.00  0.00    +2.720 S 
ATOM     21  O   LIG    1       -2.626  -0.216  -0.513  0.00  0.00    -0.950 OA
ATOM     22  O   LIG    1       -3.621   2.077  -0.514  0.00  0.00    -0.950 OA
BRANCH  20  23
ATOM     23  C   LIG    1       -1.139   1.792   0.032  0.00  0.00    -0.800 A 
ATOM     24  C   LIG    1        0.000   1.098   0.033  0.00  0.00    +0.160 A 
ATOM     25  C   LIG    1        1.151   1.867   0.028  0.00  0.00    -0.010 A 
ATOM     26  C   LIG    1        0.946   3.185   0.029  0.00  0.00    +0.010 A 
ATOM     27  S   LIG    1       -0.781   3.514   0.035  0.00  0.00    +0.220 S 
ENDBRANCH  20  23
ENDBRANCH   4  20
TORSDOF 4
