REMARK  Name = ZINCvU0000000Ht3.0
REMARK                            x       y       z     vdW  Elec       q    Type
REMARK                         _______ _______ _______ _____ _____    ______ ____
ROOT
ATOM      1  N   LIG    1       -4.183   6.257   1.489  0.00  0.00    -0.590 N 
ATOM      2  C   LIG    1       -3.742   7.333   2.172  0.00  0.00    +0.600 C 
ATOM      3  O   LIG    1       -2.936   8.087   1.662  0.00  0.00    -0.530 OA
ATOM      4  C   LIG    1       -5.096   5.307   2.130  0.00  0.00    +0.300 C 
ENDROOT
BRANCH   2   5
ATOM      5  C   LIG    1       -4.237   7.594   3.534  0.00  0.00    +0.010 A 
ATOM      6  C   LIG    1       -3.938   8.716   4.226  0.00  0.00    -0.030 A 
ATOM      7  S   LIG    1       -4.702   8.642   5.754  0.00  0.00    +0.260 S 
ATOM      8  C   LIG    1       -5.369   7.115   5.383  0.00  0.00    -0.000 A 
ATOM      9  N   LIG    1       -5.020   6.743   4.202  0.00  0.00    -0.410 NA
BRANCH   8  10
ATOM     10  C   LIG    1       -6.246   6.313   6.311  0.00  0.00    +0.330 C 
BRANCH  10  11
ATOM     11  O   LIG    1       -5.431   5.458   7.116  0.00  0.00    -0.300 OA
BRANCH  11  12
ATOM     12  C   LIG    1       -6.071   4.662   8.013  0.00  0.00    +0.120 A 
ATOM     13  C   LIG    1       -7.453   4.708   8.120  0.00  0.00    -0.040 A 
ATOM     14  C   LIG    1       -8.102   3.895   9.029  0.00  0.00    +0.030 A 
ATOM     15  C   LIG    1       -7.373   3.042   9.840  0.00  0.00    +0.060 A 
ATOM     16  C   LIG    1       -5.993   3.000   9.739  0.00  0.00    +0.030 A 
ATOM     17  F   LIG    1       -8.008   2.251  10.732  0.00  0.00    -0.140 F 
ATOM     18  C   LIG    1       -5.341   3.808   8.827  0.00  0.00    +0.020 A 
ENDBRANCH  11  12
ENDBRANCH  10  11
ENDBRANCH   8  10
ENDBRANCH   2   5
BRANCH   1  19
ATOM     19  C   LIG    1       -3.750   6.038   0.107  0.00  0.00    +0.340 C 
BRANCH  19  25
ATOM     20  C   LIG    1        0.936   1.591   0.034  0.00  0.00    +0.130 A 
ATOM     21  C   LIG    1        1.026   2.953   0.085  0.00  0.00    -0.030 A 
ATOM     22  C   LIG    1       -0.147   3.726   0.091  0.00  0.00    -0.010 A 
ATOM     23  C   LIG    1       -0.095   5.130   0.142  0.00  0.00    +0.010 A 
ATOM     24  C   LIG    1       -1.251   5.847   0.147  0.00  0.00    +0.050 A 
ATOM     25  C   LIG    1       -2.490   5.211   0.101  0.00  0.00    -0.120 A 
ATOM     26  C   LIG    1       -2.580   3.854   0.051  0.00  0.00    +0.050 A 
ATOM     27  C   LIG    1       -1.408   3.079   0.045  0.00  0.00    -0.090 A 
ATOM     28  C   LIG    1       -1.462   1.675  -0.012  0.00  0.00    +0.070 A 
ATOM     29  C   LIG    1       -0.308   0.955  -0.011  0.00  0.00    -0.060 A 
BRANCH  20  31
ATOM     30  C   LIG    1        1.914  -0.575  -0.026  0.00  0.00    +0.250 C 
ATOM     31  O   LIG    1        2.071   0.845   0.028  0.00  0.00    -0.320 OA
ENDBRANCH  20  31
ENDBRANCH  19  25
ENDBRANCH   1  19
TORSDOF 7
