REMARK  Name = ZINCpk00000zghsH.0
REMARK                            x       y       z     vdW  Elec       q    Type
REMARK                         _______ _______ _______ _____ _____    ______ ____
ROOT
ATOM      1  C   LIG    1        1.209  -2.106  -0.519  0.00  0.00    +0.030 C 
ATOM      2  C   LIG    1        0.991  -0.642  -0.959  0.00  0.00    -0.060 C 
ATOM      3  C   LIG    1        2.347   0.053  -0.950  0.00  0.00    +0.030 C 
ATOM      4  C   LIG    1        2.191   1.557  -1.158  0.00  0.00    +0.030 C 
ATOM      5  C   LIG    1        1.372   2.129   0.000  0.00  0.00    +0.060 C 
ATOM      6  C   LIG    1       -0.018   1.511   0.010  0.00  0.00    +0.140 C 
ATOM      7  N   LIG    1       -0.730   1.964   1.227  0.00  0.00    -0.720 N 
ATOM      8  H   LIG    1       -0.398   1.908   2.135  0.00  0.00    +0.440 HD
ATOM      9  C   LIG    1       -1.909   2.461   0.815  0.00  0.00    +0.710 C 
ATOM     10  N   LIG    1       -1.989   2.532  -0.519  0.00  0.00    -0.570 N 
ATOM     11  O   LIG    1       -2.794   2.823   1.565  0.00  0.00    -0.540 OA
ATOM     12  C   LIG    1       -0.863   2.073  -1.107  0.00  0.00    +0.540 C 
ATOM     13  O   LIG    1       -0.599   2.130  -2.289  0.00  0.00    -0.450 OA
ATOM     14  C   LIG    1        0.423  -0.670  -2.381  0.00  0.00    +0.030 C 
ATOM     15  C   LIG    1        0.002  -0.004   0.002  0.00  0.00    +0.060 C 
ENDROOT
BRANCH  10  16
ATOM     16  C   LIG    1       -3.150   3.044  -1.251  0.00  0.00    +0.360 C 
BRANCH  16  17
ATOM     17  C   LIG    1       -2.995   4.528  -1.464  0.00  0.00    +0.500 C 
ATOM     18  N   LIG    1       -3.950   5.217  -2.120  0.00  0.00    -0.720 N 
ATOM     19  H   LIG    1       -4.736   4.758  -2.455  0.00  0.00    +0.410 HD
ATOM     20  O   LIG    1       -2.012   5.101  -1.046  0.00  0.00    -0.520 OA
BRANCH  18  21
ATOM     21  C   LIG    1       -3.799   6.660  -2.328  0.00  0.00    +0.230 C 
ATOM     22  C   LIG    1       -4.431   7.444  -1.156  0.00  0.00    +0.200 C 
ATOM     23  O   LIG    1       -5.031   8.605  -1.771  0.00  0.00    -0.370 OA
ATOM     24  C   LIG    1       -5.631   8.122  -2.993  0.00  0.00    +0.210 C 
ATOM     25  C   LIG    1       -4.607   7.116  -3.564  0.00  0.00    -0.110 C 
ATOM     26  C   LIG    1       -5.324   5.926  -4.204  0.00  0.00    +0.050 C 
ATOM     27  C   LIG    1       -3.691   7.802  -4.579  0.00  0.00    +0.040 C 
ENDBRANCH  18  21
ENDBRANCH  16  17
ENDBRANCH  10  16
TORSDOF 3
