REMARK  Name = ZINCpk00000y6uJ6.1
REMARK                            x       y       z     vdW  Elec       q    Type
REMARK                         _______ _______ _______ _____ _____    ______ ____
ROOT
ATOM      1  N   LIG    1        2.144   0.018   1.189  0.00  0.00    -0.390 N 
ATOM      2  C   LIG    1        0.723   0.145   1.536  0.00  0.00    +0.270 C 
ATOM      3  C   LIG    1       -0.057   0.646   0.318  0.00  0.00    +0.220 C 
ATOM      4  N   LIG    1        0.480   1.948  -0.102  0.00  0.00    -0.490 N 
ATOM      5  C   LIG    1        1.909   1.842  -0.429  0.00  0.00    +0.230 C 
ATOM      6  C   LIG    1        2.673   1.331   0.794  0.00  0.00    +0.290 C 
ATOM      7  H   LIG    1        2.247  -0.629   0.422  0.00  0.00    +0.420 HD
ENDROOT
BRANCH   1  13
ATOM      8  N   LIG    1        5.012  -0.257   1.107  0.00  0.00    -0.570 N 
ATOM      9  C   LIG    1        4.349  -0.872  -0.054  0.00  0.00    +0.260 C 
ATOM     10  C   LIG    1        4.133  -2.359   0.236  0.00  0.00    +0.030 C 
ATOM     11  C   LIG    1        2.830  -2.581   0.983  0.00  0.00    +0.010 C 
ATOM     12  C   LIG    1        2.825  -2.009   2.389  0.00  0.00    +0.070 C 
ATOM     13  C   LIG    1        2.890  -0.480   2.352  0.00  0.00    +0.170 C 
ATOM     14  C   LIG    1        4.340  -0.059   2.246  0.00  0.00    +0.500 C 
ATOM     15  O   LIG    1        4.892   0.453   3.197  0.00  0.00    -0.490 OA
BRANCH   8  16
ATOM     16  C   LIG    1        6.418   0.144   1.014  0.00  0.00    +0.210 C 
BRANCH  16  18
ATOM     17  O   LIG    1        5.484   2.190   0.282  0.00  0.00    -0.690 OA
ATOM     18  C   LIG    1        6.503   1.568   0.528  0.00  0.00    +0.490 C 
ATOM     19  O   LIG    1        7.591   2.098   0.381  0.00  0.00    -0.670 OA
ENDBRANCH  16  18
ENDBRANCH   8  16
ENDBRANCH   1  13
BRANCH   4  20
ATOM     20  C   LIG    1       -0.244   2.463  -1.182  0.00  0.00    +0.090 A 
ATOM     21  C   LIG    1       -1.310   1.747  -1.710  0.00  0.00    +0.000 A 
ATOM     22  C   LIG    1       -2.026   2.260  -2.773  0.00  0.00    +0.010 A 
ATOM     23  C   LIG    1       -1.676   3.484  -3.319  0.00  0.00    +0.090 A 
ATOM     24  C   LIG    1       -0.611   4.197  -2.797  0.00  0.00    +0.020 A 
ATOM     25  F   LIG    1       -2.376   3.982  -4.362  0.00  0.00    -0.140 F 
ATOM     26  C   LIG    1        0.106   3.690  -1.731  0.00  0.00    +0.040 A 
ENDBRANCH   4  20
TORSDOF 4
