REMARK  Name = ZINCrD000006fiMQ.0
REMARK                            x       y       z     vdW  Elec       q    Type
REMARK                         _______ _______ _______ _____ _____    ______ ____
ROOT
ATOM      1  C   LIG    1       -3.648   3.583   0.023  0.00  0.00    +0.570 C 
ATOM      2  N   LIG    1       -2.359   3.970   0.080  0.00  0.00    -0.550 N 
ATOM      3  C   LIG    1       -1.903   5.360   0.154  0.00  0.00    +0.290 C 
ATOM      4  C   LIG    1       -0.368   5.280   0.197  0.00  0.00    +0.040 C 
ATOM      5  C   LIG    1       -0.065   3.800   0.141  0.00  0.00    -0.150 A 
ATOM      6  C   LIG    1        1.135   3.125   0.147  0.00  0.00    +0.130 A 
ATOM      7  C   LIG    1        1.153   1.729   0.086  0.00  0.00    -0.150 A 
ATOM      8  C   LIG    1       -0.054   1.027   0.019  0.00  0.00    +0.120 A 
ATOM      9  C   LIG    1       -1.247   1.708   0.008  0.00  0.00    +0.000 A 
ATOM     10  C   LIG    1        0.238   5.996  -1.012  0.00  0.00    +0.060 C 
ATOM     11  C   LIG    1       -1.267   3.106   0.074  0.00  0.00    +0.190 A 
ATOM     12  O   LIG    1       -3.925   2.410  -0.138  0.00  0.00    -0.510 OA
ENDROOT
BRANCH   1  16
ATOM     13  C   LIG    1       -6.747   6.461   0.411  0.00  0.00    +0.180 A 
ATOM     14  C   LIG    1       -7.058   5.105   0.393  0.00  0.00    +0.020 A 
ATOM     15  C   LIG    1       -6.056   4.170   0.268  0.00  0.00    +0.110 A 
ATOM     16  C   LIG    1       -4.725   4.583   0.158  0.00  0.00    -0.160 A 
ATOM     17  C   LIG    1       -4.416   5.946   0.182  0.00  0.00    +0.060 A 
ATOM     18  C   LIG    1       -5.423   6.877   0.301  0.00  0.00    -0.010 A 
BRANCH  13  20
ATOM     19  C   LIG    1       -8.839   7.139   1.305  0.00  0.00    +0.540 C 
ATOM     20  N   LIG    1       -7.764   7.406   0.537  0.00  0.00    -0.670 N 
ATOM     21  H   LIG    1       -7.697   8.255   0.074  0.00  0.00    +0.420 HD
ATOM     22  O   LIG    1       -8.962   6.044   1.820  0.00  0.00    -0.520 OA
BRANCH  19  24
ATOM     23  C   LIG    1      -10.925   7.909   2.277  0.00  0.00    +0.160 C 
ATOM     24  C   LIG    1       -9.863   8.172   1.520  0.00  0.00    -0.090 C 
ENDBRANCH  19  24
ENDBRANCH  13  20
ENDBRANCH   1  16
BRANCH   7  25
ATOM     25  C   LIG    1        2.436   1.001   0.093  0.00  0.00    +0.510 C 
ATOM     26  O   LIG    1        3.482   1.616   0.151  0.00  0.00    -0.510 OA
BRANCH  25  27
ATOM     27  O   LIG    1        2.447  -0.345   0.035  0.00  0.00    -0.360 OA
ATOM     28  C   LIG    1        3.746  -0.994   0.045  0.00  0.00    +0.260 C 
ENDBRANCH  25  27
ENDBRANCH   7  25
TORSDOF 5
