REMARK  Name = ZINCpe00000blUQQ.0
REMARK                            x       y       z     vdW  Elec       q    Type
REMARK                         _______ _______ _______ _____ _____    ______ ____
ROOT
ATOM      1  C   LIG    1       -0.081   5.707   3.868  0.00  0.00    +0.510 C 
ATOM      2  N   LIG    1        0.329   5.307   2.647  0.00  0.00    -0.610 N 
ATOM      3  C   LIG    1       -0.643   5.073   1.571  0.00  0.00    +0.280 C 
ATOM      4  C   LIG    1       -0.433   3.660   1.016  0.00  0.00    +0.020 C 
ATOM      5  C   LIG    1        1.027   3.490   0.604  0.00  0.00    -0.070 C 
ATOM      6  C   LIG    1        1.947   3.686   1.807  0.00  0.00    +0.040 C 
ATOM      7  C   LIG    1        1.382   4.509  -0.496  0.00  0.00    +0.020 C 
ATOM      8  C   LIG    1        2.333   3.732  -1.440  0.00  0.00    +0.020 C 
ATOM      9  C   LIG    1        1.720   2.310  -1.450  0.00  0.00    +0.010 C 
ATOM     10  C   LIG    1        1.242   2.093   0.001  0.00  0.00    +0.240 C 
ATOM     11  C   LIG    1        1.756   5.099   2.369  0.00  0.00    +0.270 C 
ATOM     12  O   LIG    1       -1.262   5.876   4.086  0.00  0.00    -0.540 OA
ENDROOT
BRANCH  10  13
ATOM     13  N   LIG    1       -0.016   1.344   0.009  0.00  0.00    -0.730 N 
ATOM     14  H   LIG    1       -0.863   1.817   0.016  0.00  0.00    +0.400 HD
ATOM     15  C   LIG    1        0.002  -0.004   0.002  0.00  0.00    +0.510 C 
ATOM     16  O   LIG    1        1.060  -0.596  -0.011  0.00  0.00    -0.510 OA
BRANCH  15  17
ATOM     17  C   LIG    1       -1.293  -0.775   0.010  0.00  0.00    +0.160 C 
ATOM     18  C   LIG    1       -2.055  -0.505  -1.288  0.00  0.00    +0.040 C 
BRANCH  17  19
ATOM     19  O   LIG    1       -1.014  -2.173   0.117  0.00  0.00    -0.360 OA
ATOM     20  C   LIG    1       -2.032  -2.918   0.788  0.00  0.00    +0.200 C 
ENDBRANCH  17  19
ENDBRANCH  15  17
ENDBRANCH  10  13
BRANCH   1  21
ATOM     21  C   LIG    1        0.928   5.943   4.962  0.00  0.00    +0.300 C 
BRANCH  21  23
ATOM     22  C   LIG    1        0.942   6.636   7.297  0.00  0.00    +0.510 C 
ATOM     23  N   LIG    1        0.236   6.367   6.181  0.00  0.00    -0.720 N 
ATOM     24  H   LIG    1       -0.730   6.453   6.186  0.00  0.00    +0.410 HD
ATOM     25  O   LIG    1        2.150   6.528   7.292  0.00  0.00    -0.540 OA
BRANCH  22  27
ATOM     26  C   LIG    1        1.255   7.312   9.663  0.00  0.00    +0.040 C 
ATOM     27  C   LIG    1        0.231   7.072   8.552  0.00  0.00    +0.060 C 
ENDBRANCH  22  27
ENDBRANCH  21  23
ENDBRANCH   1  21
TORSDOF 6
