REMARK  Name = ZINCrg00001JduXY.0
REMARK                            x       y       z     vdW  Elec       q    Type
REMARK                         _______ _______ _______ _____ _____    ______ ____
ROOT
ATOM      1  C   LIG    1       -0.014   1.213  -0.003  0.00  0.00    +0.530 C 
ATOM      2  N   LIG    1        1.143   1.903  -0.009  0.00  0.00    -0.720 N 
ATOM      3  H   LIG    1        1.130   2.873  -0.001  0.00  0.00    +0.410 HD
ATOM      4  O   LIG    1        0.003   0.001  -0.013  0.00  0.00    -0.500 OA
ENDROOT
BRANCH   2   5
ATOM      5  C   LIG    1        2.422   1.189  -0.028  0.00  0.00    +0.160 C 
ATOM      6  C   LIG    1        2.514   0.327  -1.294  0.00  0.00    +0.280 C 
ATOM      7  O   LIG    1        2.302   1.169  -2.428  0.00  0.00    -0.300 OA
ATOM      8  C   LIG    1        3.011   2.325  -2.502  0.00  0.00    +0.130 A 
ATOM      9  C   LIG    1        3.100   2.972  -3.731  0.00  0.00    -0.020 A 
ATOM     10  C   LIG    1        3.808   4.151  -3.845  0.00  0.00    +0.050 A 
ATOM     11  C   LIG    1        4.432   4.692  -2.737  0.00  0.00    -0.020 A 
ATOM     12  C   LIG    1        4.348   4.051  -1.516  0.00  0.00    +0.050 A 
ATOM     13  C   LIG    1        3.640   2.867  -1.395  0.00  0.00    -0.160 A 
ATOM     14  C   LIG    1        3.575   2.195  -0.046  0.00  0.00    +0.140 C 
BRANCH   5  15
ATOM     15  C   LIG    1        2.532   0.312   1.192  0.00  0.00    +0.460 C 
ATOM     16  O   LIG    1        3.605   0.146   1.723  0.00  0.00    -0.500 OA
BRANCH  15  17
ATOM     17  O   LIG    1        1.438  -0.285   1.691  0.00  0.00    -0.320 OA
ATOM     18  C   LIG    1        1.618  -1.115   2.868  0.00  0.00    +0.250 C 
ENDBRANCH  15  17
ENDBRANCH   5  15
ENDBRANCH   2   5
BRANCH   1  24
ATOM     19  C   LIG    1       -2.896   4.759   1.463  0.00  0.00    +0.550 C 
ATOM     20  N   LIG    1       -2.753   3.425   1.332  0.00  0.00    -0.610 N 
ATOM     21  C   LIG    1       -3.931   2.551   1.251  0.00  0.00    +0.260 C 
ATOM     22  C   LIG    1       -3.816   1.684  -0.007  0.00  0.00    +0.010 C 
ATOM     23  C   LIG    1       -2.479   0.939   0.012  0.00  0.00    +0.060 C 
ATOM     24  C   LIG    1       -1.330   1.949   0.010  0.00  0.00    -0.020 C 
ATOM     25  C   LIG    1       -1.417   2.818   1.268  0.00  0.00    +0.280 C 
ATOM     26  O   LIG    1       -1.917   5.463   1.623  0.00  0.00    -0.540 OA
BRANCH  19  28
ATOM     27  C   LIG    1       -4.370   6.687   1.438  0.00  0.00    +0.140 C 
ATOM     28  C   LIG    1       -4.236   5.364   1.412  0.00  0.00    -0.090 C 
ENDBRANCH  19  28
ENDBRANCH   1  24
TORSDOF 5
