REMARK  Name = ZINCpk000000ntKT.0
REMARK                            x       y       z     vdW  Elec       q    Type
REMARK                         _______ _______ _______ _____ _____    ______ ____
ROOT
ATOM      1  C   LIG    1       -1.596  -1.839  -0.134  0.00  0.00    +0.530 C 
ATOM      2  N   LIG    1       -1.368  -0.510  -0.108  0.00  0.00    -0.720 N 
ATOM      3  H   LIG    1       -2.112   0.110  -0.162  0.00  0.00    +0.410 HD
ATOM      4  O   LIG    1       -0.666  -2.615  -0.067  0.00  0.00    -0.530 OA
ENDROOT
BRANCH   1   7
ATOM      5  N   LIG    1       -4.229  -4.286   0.488  0.00  0.00    -0.620 N 
ATOM      6  C   LIG    1       -3.025  -3.904  -0.259  0.00  0.00    +0.300 C 
ATOM      7  C   LIG    1       -3.005  -2.360  -0.248  0.00  0.00    +0.000 C 
ATOM      8  C   LIG    1       -3.816  -2.044   1.030  0.00  0.00    +0.070 C 
ATOM      9  C   LIG    1       -4.692  -3.262   1.225  0.00  0.00    +0.520 C 
ATOM     10  O   LIG    1       -5.669  -3.308   1.942  0.00  0.00    -0.520 OA
BRANCH   5  11
ATOM     11  C   LIG    1       -4.847  -5.614   0.437  0.00  0.00    +0.290 C 
BRANCH  11  13
ATOM     12  C   LIG    1       -4.602  -5.938   2.902  0.00  0.00    +0.020 C 
ATOM     13  C   LIG    1       -4.240  -6.501   1.526  0.00  0.00    -0.040 C 
ATOM     14  C   LIG    1       -4.794  -7.921   1.394  0.00  0.00    +0.030 C 
ENDBRANCH  11  13
ENDBRANCH   5  11
ENDBRANCH   1   7
BRANCH   2  15
ATOM     15  C   LIG    1        0.002  -0.004   0.002  0.00  0.00    +0.300 C 
BRANCH  15  16
ATOM     16  C   LIG    1       -0.019   1.526   0.010  0.00  0.00    +0.210 C 
BRANCH  16  17
ATOM     17  O   LIG    1       -0.688   1.987   1.186  0.00  0.00    -0.310 OA
BRANCH  17  18
ATOM     18  C   LIG    1       -0.793   3.333   1.349  0.00  0.00    +0.140 A 
ATOM     19  C   LIG    1       -0.264   4.189   0.396  0.00  0.00    -0.060 A 
ATOM     20  C   LIG    1       -0.371   5.558   0.559  0.00  0.00    +0.080 A 
ATOM     21  C   LIG    1       -1.007   6.077   1.674  0.00  0.00    -0.000 A 
ATOM     22  O   LIG    1       -1.241   7.365   2.064  0.00  0.00    -0.310 OA
ATOM     23  C   LIG    1       -1.559   7.290   3.467  0.00  0.00    +0.430 C 
ATOM     24  O   LIG    1       -2.107   5.968   3.623  0.00  0.00    -0.300 OA
ATOM     25  C   LIG    1       -1.540   5.218   2.633  0.00  0.00    +0.080 A 
ATOM     26  C   LIG    1       -1.436   3.848   2.465  0.00  0.00    +0.020 A 
ENDBRANCH  17  18
ENDBRANCH  16  17
ENDBRANCH  15  16
ENDBRANCH   2  15
TORSDOF 7
