REMARK  Name = ZINCrD000000C3xj.0
REMARK                            x       y       z     vdW  Elec       q    Type
REMARK                         _______ _______ _______ _____ _____    ______ ____
ROOT
ATOM      1  C   LIG    1        0.529  -0.214   1.217  0.00  0.00    +0.250 C 
ATOM      2  C   LIG    1        1.905   0.312   1.638  0.00  0.00    +0.050 C 
ATOM      3  C   LIG    1        1.918   1.839   1.533  0.00  0.00    +0.020 C 
ATOM      4  C   LIG    1        1.665   2.254   0.082  0.00  0.00    +0.020 C 
ATOM      5  C   LIG    1        0.286   1.751  -0.356  0.00  0.00    +0.290 C 
ATOM      6  N   LIG    1        0.216   0.302  -0.123  0.00  0.00    -0.990 NA
ENDROOT
BRANCH   1   8
ATOM      7  O   LIG    1        1.530  -2.304   0.769  0.00  0.00    -0.450 OA
ATOM      8  C   LIG    1        0.552  -1.720   1.185  0.00  0.00    +0.480 C 
ATOM      9  N   LIG    1       -0.515  -2.419   1.621  0.00  0.00    -0.680 N 
ATOM     10  H   LIG    1       -1.326  -1.955   1.879  0.00  0.00    +0.410 HD
BRANCH   9  11
ATOM     11  C   LIG    1       -0.452  -3.815   1.699  0.00  0.00    +0.140 A 
ATOM     12  C   LIG    1       -1.124  -4.487   2.712  0.00  0.00    -0.010 A 
ATOM     13  C   LIG    1       -1.059  -5.863   2.785  0.00  0.00    +0.030 A 
ATOM     14  C   LIG    1       -0.326  -6.579   1.852  0.00  0.00    -0.110 A 
ATOM     15  C   LIG    1       -0.101  -8.070   1.718  0.00  0.00    +0.070 C 
ATOM     16  C   LIG    1        0.410  -8.273   0.276  0.00  0.00    +0.030 C 
ATOM     17  C   LIG    1        1.065  -6.911  -0.039  0.00  0.00    +0.080 C 
ATOM     18  C   LIG    1        0.344  -5.912   0.842  0.00  0.00    -0.080 A 
ATOM     19  C   LIG    1        0.277  -4.533   0.762  0.00  0.00    +0.050 A 
ENDBRANCH   9  11
ENDBRANCH   1   8
BRANCH   6  20
ATOM     20  S   LIG    1       -0.209  -0.730  -1.346  0.00  0.00    +2.670 S 
ATOM     21  O   LIG    1        0.492  -1.943  -1.110  0.00  0.00    -0.920 OA
ATOM     22  O   LIG    1       -0.097   0.010  -2.554  0.00  0.00    -0.950 OA
BRANCH  20  23
ATOM     23  C   LIG    1       -1.921  -1.099  -1.146  0.00  0.00    -0.680 A 
ATOM     24  C   LIG    1       -2.307  -2.264  -0.511  0.00  0.00    +0.120 A 
ATOM     25  C   LIG    1       -3.650  -2.551  -0.350  0.00  0.00    -0.010 A 
ATOM     26  C   LIG    1       -4.606  -1.677  -0.833  0.00  0.00    +0.070 A 
ATOM     27  C   LIG    1       -4.220  -0.514  -1.472  0.00  0.00    -0.010 A 
ATOM     28  C   LIG    1       -2.877  -0.225  -1.629  0.00  0.00    +0.120 A 
ENDBRANCH  20  23
ENDBRANCH   6  20
TORSDOF 4
