REMARK  Name = ZINCrD0000075ibh.0
REMARK                            x       y       z     vdW  Elec       q    Type
REMARK                         _______ _______ _______ _____ _____    ______ ____
ROOT
ATOM      1  C   LIG    1       -0.952   8.313   0.469  0.00  0.00    +0.510 C 
ATOM      2  N   LIG    1       -2.014   9.136   0.361  0.00  0.00    -0.610 N 
ATOM      3  C   LIG    1       -3.381   8.616   0.493  0.00  0.00    +0.290 C 
ATOM      4  C   LIG    1       -4.192   9.032  -0.733  0.00  0.00    +0.010 C 
ATOM      5  C   LIG    1       -4.112  10.550  -0.904  0.00  0.00    +0.160 C 
ATOM      6  C   LIG    1       -2.654  10.964  -1.123  0.00  0.00    +0.040 C 
ATOM      7  C   LIG    1       -1.826  10.570   0.104  0.00  0.00    +0.310 C 
ATOM      8  O   LIG    1        0.172   8.754   0.354  0.00  0.00    -0.530 OA
ENDROOT
BRANCH   1   9
ATOM      9  C   LIG    1       -1.162   6.844   0.734  0.00  0.00    +0.300 C 
BRANCH   9  10
ATOM     10  N   LIG    1        0.138   6.171   0.807  0.00  0.00    -0.730 N 
ATOM     11  H   LIG    1        0.955   6.680   0.690  0.00  0.00    +0.420 HD
BRANCH  10  15
ATOM     12  C   LIG    1        0.322   2.073   1.520  0.00  0.00    -0.090 A 
ATOM     13  C   LIG    1       -0.917   2.716   1.444  0.00  0.00    +0.110 A 
ATOM     14  C   LIG    1       -0.975   4.072   1.214  0.00  0.00    -0.080 A 
ATOM     15  C   LIG    1        0.199   4.801   1.045  0.00  0.00    +0.250 A 
ATOM     16  C   LIG    1        1.434   4.163   1.115  0.00  0.00    -0.060 A 
ATOM     17  C   LIG    1        1.499   2.809   1.350  0.00  0.00    +0.110 A 
BRANCH  12  19
ATOM     18  N   LIG    1        0.435  -0.454   1.960  0.00  0.00    -0.430 NA
ATOM     19  C   LIG    1        0.385   0.664   1.765  0.00  0.00    +0.260 C 
ENDBRANCH  12  19
ENDBRANCH  10  15
ENDBRANCH   9  10
ENDBRANCH   1   9
BRANCH   5  20
ATOM     20  O   LIG    1       -4.894  10.945  -2.033  0.00  0.00    -0.300 OA
BRANCH  20  21
ATOM     21  C   LIG    1       -6.222  11.145  -1.824  0.00  0.00    +0.090 A 
ATOM     22  C   LIG    1       -6.782  10.858  -0.589  0.00  0.00    -0.010 A 
ATOM     23  C   LIG    1       -8.131  11.067  -0.376  0.00  0.00    +0.030 A 
ATOM     24  C   LIG    1       -8.928  11.553  -1.398  0.00  0.00    +0.090 A 
ATOM     25  C   LIG    1       -8.373  11.836  -2.635  0.00  0.00    +0.010 A 
ATOM     26  F   LIG    1      -10.248  11.751  -1.190  0.00  0.00    -0.130 F 
ATOM     27  C   LIG    1       -7.022  11.634  -2.850  0.00  0.00    +0.100 A 
ATOM     28  F   LIG    1       -6.480  11.909  -4.056  0.00  0.00    -0.120 F 
ENDBRANCH  20  21
ENDBRANCH   5  20
TORSDOF 6
