REMARK  Name = ZINCrD0000071Xbx.0
REMARK                            x       y       z     vdW  Elec       q    Type
REMARK                         _______ _______ _______ _____ _____    ______ ____
ROOT
ATOM      1  N   LIG    1       -6.248   1.431  -5.077  0.00  0.00    -0.670 N 
ATOM      2  H   LIG    1       -6.108   2.179  -5.679  0.00  0.00    +0.410 HD
ATOM      3  C   LIG    1       -5.205   0.899  -4.410  0.00  0.00    +0.520 C 
ATOM      4  O   LIG    1       -5.392   0.028  -3.587  0.00  0.00    -0.500 OA
ENDROOT
BRANCH   1   9
ATOM      5  C   LIG    1       -8.983  -0.972  -4.494  0.00  0.00    -0.110 A 
ATOM      6  C   LIG    1      -10.090  -0.123  -4.560  0.00  0.00    +0.060 A 
ATOM      7  C   LIG    1       -9.912   1.226  -4.795  0.00  0.00    +0.030 A 
ATOM      8  C   LIG    1       -8.641   1.740  -4.966  0.00  0.00    +0.030 A 
ATOM      9  C   LIG    1       -7.533   0.904  -4.903  0.00  0.00    +0.130 A 
ATOM     10  C   LIG    1       -7.700  -0.452  -4.672  0.00  0.00    +0.090 A 
BRANCH   5  11
ATOM     11  C   LIG    1       -9.170  -2.415  -4.243  0.00  0.00    +0.510 C 
ATOM     12  O   LIG    1       -8.206  -3.152  -4.186  0.00  0.00    -0.500 OA
BRANCH  11  13
ATOM     13  O   LIG    1      -10.410  -2.915  -4.077  0.00  0.00    -0.350 OA
BRANCH  13  15
ATOM     14  C   LIG    1      -11.991  -4.722  -3.672  0.00  0.00    +0.070 C 
ATOM     15  C   LIG    1      -10.518  -4.343  -3.834  0.00  0.00    +0.200 C 
ENDBRANCH  13  15
ENDBRANCH  11  13
ENDBRANCH   5  11
ENDBRANCH   1   9
BRANCH   3  16
ATOM     16  C   LIG    1       -3.806   1.386  -4.686  0.00  0.00    +0.010 C 
ATOM     17  C   LIG    1       -3.667   2.889  -4.352  0.00  0.00    +0.070 C 
ATOM     18  C   LIG    1       -3.162   2.907  -2.926  0.00  0.00    +0.520 C 
ATOM     19  N   LIG    1       -2.685   1.696  -2.589  0.00  0.00    -0.610 N 
ATOM     20  O   LIG    1       -3.185   3.873  -2.193  0.00  0.00    -0.520 OA
ATOM     21  C   LIG    1       -2.789   0.752  -3.708  0.00  0.00    +0.300 C 
BRANCH  19  22
ATOM     22  C   LIG    1       -2.127   1.364  -1.276  0.00  0.00    +0.250 C 
ATOM     23  C   LIG    1       -0.980   2.224  -1.020  0.00  0.00    -0.000 C 
ATOM     24  C   LIG    1       -0.287   1.896   0.318  0.00  0.00    +0.030 C 
ATOM     25  C   LIG    1       -1.070   2.533   1.435  0.00  0.00    +0.000 C 
ATOM     26  C   LIG    1       -2.100   1.567   2.056  0.00  0.00    +0.000 C 
ATOM     27  C   LIG    1       -2.840   0.720   1.003  0.00  0.00    +0.000 C 
ATOM     28  C   LIG    1       -3.230   1.521  -0.210  0.00  0.00    +0.020 C 
ENDBRANCH  19  22
ENDBRANCH   3  16
TORSDOF 6
