REMARK  Name = ZINCrH000004rIfE.0
REMARK                            x       y       z     vdW  Elec       q    Type
REMARK                         _______ _______ _______ _____ _____    ______ ____
ROOT
ATOM      1  C   LIG    1        3.639   2.073   0.012  0.00  0.00    +0.580 C 
ATOM      2  N   LIG    1        4.866   1.528   0.129  0.00  0.00    -0.600 N 
ATOM      3  C   LIG    1        5.026   0.072   0.111  0.00  0.00    +0.300 C 
ATOM      4  O   LIG    1        3.514   3.280  -0.053  0.00  0.00    -0.520 OA
ENDROOT
BRANCH   1  10
ATOM      5  C   LIG    1       -0.167  -3.672  -2.727  0.00  0.00    +0.090 C 
ATOM      6  C   LIG    1       -0.030  -2.501  -1.788  0.00  0.00    -0.080 A 
ATOM      7  C   LIG    1        1.106  -1.751  -1.811  0.00  0.00    +0.040 A 
ATOM      8  C   LIG    1        1.234  -0.658  -0.937  0.00  0.00    -0.110 A 
ATOM      9  C   LIG    1        2.391   0.139  -0.931  0.00  0.00    +0.130 A 
ATOM     10  C   LIG    1        2.446   1.202  -0.037  0.00  0.00    -0.180 A 
ATOM     11  C   LIG    1        1.358   1.443   0.820  0.00  0.00    +0.210 A 
ATOM     12  N   LIG    1        0.290   0.688   0.797  0.00  0.00    -0.470 NA
ATOM     13  C   LIG    1        1.423   2.597   1.786  0.00  0.00    +0.140 C 
ATOM     14  C   LIG    1        0.179  -0.349  -0.041  0.00  0.00    +0.140 A 
ATOM     15  C   LIG    1       -0.978  -1.148  -0.049  0.00  0.00    +0.050 A 
ATOM     16  C   LIG    1       -1.068  -2.199  -0.909  0.00  0.00    +0.040 A 
ENDBRANCH   1  10
BRANCH   2  17
ATOM     17  C   LIG    1        6.040   2.392   0.274  0.00  0.00    +0.340 C 
BRANCH  17  18
ATOM     18  C   LIG    1        6.293   2.655   1.737  0.00  0.00    +0.500 C 
ATOM     19  N   LIG    1        7.329   3.430   2.113  0.00  0.00    -0.670 N 
ATOM     20  H   LIG    1        7.860   3.889   1.443  0.00  0.00    +0.420 HD
ATOM     21  O   LIG    1        5.564   2.168   2.575  0.00  0.00    -0.500 OA
BRANCH  19  22
ATOM     22  C   LIG    1        7.639   3.574   3.470  0.00  0.00    +0.180 A 
ATOM     23  C   LIG    1        8.177   4.766   3.938  0.00  0.00    -0.030 A 
ATOM     24  C   LIG    1        8.477   4.908   5.279  0.00  0.00    +0.070 A 
ATOM     25  C   LIG    1        8.253   3.862   6.154  0.00  0.00    -0.030 A 
ATOM     26  C   LIG    1        7.722   2.669   5.690  0.00  0.00    +0.120 A 
ATOM     27  F   LIG    1        7.503   1.649   6.548  0.00  0.00    -0.140 F 
ATOM     28  C   LIG    1        7.414   2.524   4.349  0.00  0.00    -0.010 A 
ENDBRANCH  19  22
ENDBRANCH  17  18
ENDBRANCH   2  17
TORSDOF 4
