REMARK  Name = ZINCpe000000T25F.0
REMARK                            x       y       z     vdW  Elec       q    Type
REMARK                         _______ _______ _______ _____ _____    ______ ____
ROOT
ATOM      1  C   LIG    1       -0.040  -0.522  -0.468  0.00  0.00    +0.240 C 
ENDROOT
BRANCH   1   2
ATOM      2  C   LIG    1       -1.363  -0.934   0.123  0.00  0.00    +0.520 C 
ATOM      3  N   LIG    1       -1.672  -2.241   0.239  0.00  0.00    -0.730 N 
ATOM      4  H   LIG    1       -1.075  -2.914  -0.123  0.00  0.00    +0.400 HD
ATOM      5  O   LIG    1       -2.151  -0.090   0.494  0.00  0.00    -0.530 OA
BRANCH   3   6
ATOM      6  C   LIG    1       -2.909  -2.644   0.912  0.00  0.00    +0.270 C 
BRANCH   6   7
ATOM      7  C   LIG    1       -3.018  -4.171   0.907  0.00  0.00    +0.170 C 
BRANCH   7   8
ATOM      8  N   LIG    1       -4.258  -4.575   1.583  0.00  0.00    -0.530 NA
ATOM      9  C   LIG    1       -4.214  -4.239   3.013  0.00  0.00    +0.150 C 
ATOM     10  C   LIG    1       -5.545  -4.622   3.664  0.00  0.00    +0.220 C 
ATOM     11  O   LIG    1       -5.796  -6.013   3.442  0.00  0.00    -0.380 OA
ATOM     12  C   LIG    1       -5.847  -6.375   2.060  0.00  0.00    +0.220 C 
ATOM     13  C   LIG    1       -4.518  -6.010   1.393  0.00  0.00    +0.160 C 
ENDBRANCH   7   8
ENDBRANCH   6   7
ENDBRANCH   3   6
ENDBRANCH   1   2
BRANCH   1  14
ATOM     14  N   LIG    1        0.245   0.868  -0.106  0.00  0.00    -0.710 N 
ATOM     15  H   LIG    1       -0.483   1.475   0.099  0.00  0.00    +0.410 HD
ATOM     16  C   LIG    1        1.519   1.306  -0.063  0.00  0.00    +0.520 C 
ATOM     17  O   LIG    1        2.430   0.549  -0.324  0.00  0.00    -0.520 OA
BRANCH  16  18
ATOM     18  C   LIG    1        1.812   2.737   0.310  0.00  0.00    +0.100 C 
BRANCH  18  19
ATOM     19  C   LIG    1        3.301   2.968   0.283  0.00  0.00    -0.070 A 
ATOM     20  C   LIG    1        4.052   2.765   1.425  0.00  0.00    +0.010 A 
ATOM     21  C   LIG    1        5.419   2.973   1.400  0.00  0.00    +0.000 A 
ATOM     22  C   LIG    1        6.032   3.393   0.235  0.00  0.00    +0.000 A 
ATOM     23  C   LIG    1        5.280   3.601  -0.906  0.00  0.00    +0.000 A 
ATOM     24  C   LIG    1        3.914   3.388  -0.882  0.00  0.00    +0.020 A 
ENDBRANCH  18  19
ENDBRANCH  16  18
ENDBRANCH   1  14
BRANCH   1  26
ATOM     25  C   LIG    1       -1.122   0.342  -2.547  0.00  0.00    +0.030 C 
ATOM     26  C   LIG    1       -0.099  -0.651  -1.991  0.00  0.00    -0.020 C 
ATOM     27  C   LIG    1        1.279  -0.348  -2.583  0.00  0.00    +0.040 C 
ENDBRANCH   1  26
TORSDOF 8
