REMARK  Name = ZINCpe00000c7oPf.0
REMARK                            x       y       z     vdW  Elec       q    Type
REMARK                         _______ _______ _______ _____ _____    ______ ____
ROOT
ATOM      1  N   LIG    1        6.891  -7.720   0.150  0.00  0.00    -0.420 N 
ATOM      2  C   LIG    1        7.092  -6.251   0.159  0.00  0.00    +0.240 C 
ATOM      3  C   LIG    1        5.701  -6.181   0.774  0.00  0.00    -0.130 C 
ATOM      4  C   LIG    1        5.481  -5.125   1.864  0.00  0.00    +0.230 C 
ATOM      5  O   LIG    1        4.942  -3.983   1.171  0.00  0.00    -0.370 OA
ATOM      6  C   LIG    1        4.340  -4.395  -0.063  0.00  0.00    +0.160 C 
ATOM      7  C   LIG    1        4.535  -5.924  -0.196  0.00  0.00    +0.070 C 
ATOM      8  C   LIG    1        5.892  -7.618   1.241  0.00  0.00    +0.240 C 
ENDROOT
BRANCH   1  13
ATOM      9  C   LIG    1       10.201  -8.331   1.345  0.00  0.00    +0.170 A 
ATOM     10  C   LIG    1       10.210  -9.723   1.406  0.00  0.00    +0.270 A 
ATOM     11  N   LIG    1        9.135 -10.408   1.056  0.00  0.00    -0.410 NA
ATOM     12  C   LIG    1        8.051  -9.777   0.647  0.00  0.00    +0.290 A 
ATOM     13  C   LIG    1        8.034  -8.382   0.582  0.00  0.00    +0.240 A 
ATOM     14  N   LIG    1        9.109  -7.692   0.927  0.00  0.00    -0.440 NA
BRANCH   9  16
ATOM     15  N   LIG    1       12.289  -6.999   2.025  0.00  0.00    -0.360 NA
ATOM     16  C   LIG    1       11.365  -7.588   1.724  0.00  0.00    +0.260 C 
ENDBRANCH   9  16
ENDBRANCH   1  13
BRANCH   6  17
ATOM     17  C   LIG    1        2.846  -4.063  -0.047  0.00  0.00    +0.270 C 
BRANCH  17  18
ATOM     18  N   LIG    1        2.669  -2.609  -0.037  0.00  0.00    -0.720 N 
ATOM     19  H   LIG    1        3.445  -2.026  -0.042  0.00  0.00    +0.400 HD
ATOM     20  C   LIG    1        1.429  -2.080  -0.023  0.00  0.00    +0.590 C 
ATOM     21  O   LIG    1        0.457  -2.811  -0.017  0.00  0.00    -0.530 OA
BRANCH  20  22
ATOM     22  C   LIG    1        1.252  -0.618  -0.013  0.00  0.00    -0.210 A 
ATOM     23  C   LIG    1        2.308   0.269  -0.018  0.00  0.00    +0.010 A 
ATOM     24  S   LIG    1        1.591   1.832  -0.003  0.00  0.00    +0.310 S 
ATOM     25  N   LIG    1       -0.015   1.291   0.009  0.00  0.00    -0.460 NA
ATOM     26  C   LIG    1        0.002  -0.004   0.002  0.00  0.00    +0.340 A 
ENDBRANCH  20  22
ENDBRANCH  17  18
ENDBRANCH   6  17
TORSDOF 5
