REMARK  Name = ZINCkj000005m47Y.1
REMARK                            x       y       z     vdW  Elec       q    Type
REMARK                         _______ _______ _______ _____ _____    ______ ____
ROOT
ATOM      1  O   LIG    1       -4.532   4.412   2.286  0.00  0.00    -0.510 OA
ATOM      2  C   LIG    1       -3.361   4.171   2.082  0.00  0.00    +0.510 C 
ATOM      3  N   LIG    1       -3.012   3.272   1.140  0.00  0.00    -0.590 N 
ATOM      4  C   LIG    1       -4.033   2.492   0.423  0.00  0.00    +0.280 C 
ATOM      5  C   LIG    1       -3.765   2.611  -1.081  0.00  0.00    +0.240 C 
ATOM      6  O   LIG    1       -2.402   2.268  -1.345  0.00  0.00    -0.360 OA
ATOM      7  C   LIG    1       -1.450   3.136  -0.725  0.00  0.00    +0.210 C 
ATOM      8  C   LIG    1       -1.599   3.043   0.798  0.00  0.00    +0.270 C 
ENDROOT
BRANCH   7   9
ATOM      9  C   LIG    1       -0.057   2.718  -1.120  0.00  0.00    -0.140 A 
ATOM     10  C   LIG    1        0.192   1.414  -1.501  0.00  0.00    +0.080 A 
ATOM     11  C   LIG    1        1.469   1.032  -1.870  0.00  0.00    +0.010 A 
ATOM     12  C   LIG    1        2.498   1.955  -1.856  0.00  0.00    +0.060 A 
ATOM     13  C   LIG    1        2.252   3.260  -1.475  0.00  0.00    -0.010 A 
ATOM     14  C   LIG    1        0.974   3.644  -1.106  0.00  0.00    +0.100 A 
ATOM     15  F   LIG    1        0.732   4.920  -0.734  0.00  0.00    -0.140 F 
ENDBRANCH   7   9
BRANCH   2  16
ATOM     16  C   LIG    1       -2.296   4.876   2.882  0.00  0.00    +0.170 C 
ATOM     17  C   LIG    1       -1.750   3.922   3.969  0.00  0.00    +0.190 C 
ATOM     18  S   LIG    1       -1.318   5.059   5.343  0.00  0.00    -0.140 S 
ATOM     19  C   LIG    1       -1.897   6.596   4.522  0.00  0.00    +0.370 C 
ATOM     20  N   LIG    1       -2.873   6.070   3.527  0.00  0.00    -0.500 N 
ATOM     21  H   LIG    1       -3.733   5.822   3.994  0.00  0.00    +0.450 HD
ATOM     22  H   LIG    1       -3.060   6.776   2.830  0.00  0.00    +0.440 HD
ENDBRANCH   2  16
TORSDOF 2
