REMARK  Name = ZINCvU0000000J4W.0
REMARK                            x       y       z     vdW  Elec       q    Type
REMARK                         _______ _______ _______ _____ _____    ______ ____
ROOT
ATOM      1  C   LIG    1        4.069   0.929  -1.464  0.00  0.00    +0.510 C 
ATOM      2  N   LIG    1        5.384   0.769  -1.714  0.00  0.00    -0.680 N 
ATOM      3  H   LIG    1        6.015   0.721  -0.979  0.00  0.00    +0.410 HD
ATOM      4  O   LIG    1        3.292   1.085  -2.382  0.00  0.00    -0.510 OA
ENDROOT
BRANCH   2   5
ATOM      5  C   LIG    1        5.840   0.674  -3.036  0.00  0.00    +0.120 A 
ATOM      6  C   LIG    1        5.044   0.060  -4.002  0.00  0.00    +0.040 A 
ATOM      7  C   LIG    1        5.474  -0.037  -5.306  0.00  0.00    +0.010 A 
ATOM      8  C   LIG    1        6.717   0.470  -5.668  0.00  0.00    +0.090 A 
ATOM      9  N   LIG    1        7.409   0.520  -6.860  0.00  0.00    -0.590 N 
ATOM     10  H   LIG    1        7.087   0.168  -7.705  0.00  0.00    +0.410 HD
ATOM     11  C   LIG    1        8.617   1.139  -6.676  0.00  0.00    +0.090 A 
ATOM     12  C   LIG    1        8.747   1.497  -5.388  0.00  0.00    -0.170 A 
ATOM     13  C   LIG    1        9.939   2.185  -4.774  0.00  0.00    +0.100 C 
ATOM     14  C   LIG    1       10.648   3.022  -5.841  0.00  0.00    +0.010 C 
ATOM     15  C   LIG    1       11.692   2.164  -6.551  0.00  0.00    +0.000 C 
ATOM     16  C   LIG    1       11.028   0.982  -7.250  0.00  0.00    +0.030 C 
ATOM     17  C   LIG    1        9.643   1.391  -7.756  0.00  0.00    +0.100 C 
ATOM     18  C   LIG    1        7.527   1.084  -4.695  0.00  0.00    -0.080 A 
ATOM     19  C   LIG    1        7.079   1.183  -3.376  0.00  0.00    +0.020 A 
ENDBRANCH   2   5
BRANCH   1  20
ATOM     20  C   LIG    1        3.565   0.913  -0.044  0.00  0.00    +0.150 C 
BRANCH  20  27
ATOM     21  C   LIG    1        1.383  -1.381  -0.186  0.00  0.00    +0.160 C 
ATOM     22  C   LIG    1        1.107   0.098  -0.103  0.00  0.00    +0.100 A 
ATOM     23  N   LIG    1       -0.076   0.656  -0.076  0.00  0.00    -0.290 NA
ATOM     24  N   LIG    1        0.097   2.044   0.004  0.00  0.00    -0.320 N 
ATOM     25  C   LIG    1        1.425   2.297   0.026  0.00  0.00    +0.110 A 
ATOM     26  C   LIG    1        2.070   3.657   0.107  0.00  0.00    +0.150 C 
ATOM     27  C   LIG    1        2.071   1.110  -0.040  0.00  0.00    -0.220 A 
BRANCH  24  28
ATOM     28  C   LIG    1       -0.926   3.002   0.049  0.00  0.00    +0.160 A 
ATOM     29  C   LIG    1       -0.769   4.152   0.811  0.00  0.00    +0.000 A 
ATOM     30  C   LIG    1       -1.776   5.097   0.848  0.00  0.00    +0.030 A 
ATOM     31  C   LIG    1       -2.945   4.892   0.137  0.00  0.00    +0.010 A 
ATOM     32  C   LIG    1       -3.106   3.745  -0.617  0.00  0.00    +0.030 A 
ATOM     33  C   LIG    1       -2.100   2.799  -0.663  0.00  0.00    +0.020 A 
ENDBRANCH  24  28
ENDBRANCH  20  27
ENDBRANCH   1  20
TORSDOF 4
