REMARK  Name = ZINCrD0000073uCT.0
REMARK                            x       y       z     vdW  Elec       q    Type
REMARK                         _______ _______ _______ _____ _____    ______ ____
ROOT
ATOM      1  N   LIG    1        5.333  -3.938  -0.062  0.00  0.00    -0.650 N 
ATOM      2  H   LIG    1        4.610  -4.579   0.021  0.00  0.00    +0.420 HD
ATOM      3  C   LIG    1        5.066  -2.617  -0.061  0.00  0.00    +0.510 C 
ATOM      4  O   LIG    1        5.975  -1.814  -0.062  0.00  0.00    -0.520 OA
ENDROOT
BRANCH   1  10
ATOM      5  C   LIG    1        7.016  -5.638   0.310  0.00  0.00    +0.090 A 
ATOM      6  C   LIG    1        8.323  -6.079   0.189  0.00  0.00    -0.030 A 
ATOM      7  C   LIG    1        9.271  -5.277  -0.419  0.00  0.00    +0.050 A 
ATOM      8  C   LIG    1        8.916  -4.029  -0.910  0.00  0.00    +0.130 A 
ATOM      9  C   LIG    1        7.606  -3.584  -0.796  0.00  0.00    +0.040 A 
ATOM     10  C   LIG    1        6.655  -4.385  -0.182  0.00  0.00    +0.140 A 
BRANCH   8  11
ATOM     11  N   LIG    1        9.879  -3.219  -1.527  0.00  0.00    -0.670 N 
ATOM     12  H   LIG    1        9.843  -2.256  -1.420  0.00  0.00    +0.410 HD
ATOM     13  C   LIG    1       10.855  -3.779  -2.269  0.00  0.00    +0.510 C 
ATOM     14  O   LIG    1       10.952  -4.986  -2.332  0.00  0.00    -0.530 OA
ATOM     15  C   LIG    1       11.826  -2.904  -3.019  0.00  0.00    +0.110 C 
ENDBRANCH   8  11
BRANCH   5  17
ATOM     16  C   LIG    1        6.523  -7.700   1.388  0.00  0.00    +0.250 C 
ATOM     17  O   LIG    1        6.084  -6.428   0.907  0.00  0.00    -0.320 OA
ENDBRANCH   5  17
ENDBRANCH   1  10
BRANCH   3  18
ATOM     18  C   LIG    1        3.638  -2.137  -0.057  0.00  0.00    +0.310 C 
BRANCH  18  19
ATOM     19  N   LIG    1        3.615  -0.672  -0.057  0.00  0.00    -0.730 N 
ATOM     20  H   LIG    1        4.447  -0.174  -0.058  0.00  0.00    +0.420 HD
BRANCH  19  21
ATOM     21  C   LIG    1        2.392   0.009  -0.054  0.00  0.00    +0.210 A 
ATOM     22  C   LIG    1        1.200  -0.702  -0.051  0.00  0.00    -0.040 A 
ATOM     23  C   LIG    1       -0.006  -0.027  -0.049  0.00  0.00    +0.040 A 
ATOM     24  C   LIG    1       -0.029   1.355  -0.048  0.00  0.00    -0.010 A 
ATOM     25  C   LIG    1        1.155   2.070  -0.051  0.00  0.00    -0.010 A 
ATOM     26  C   LIG    1        2.367   1.402  -0.054  0.00  0.00    +0.030 A 
BRANCH  26  27
ATOM     27  O   LIG    1        3.532   2.104  -0.056  0.00  0.00    -0.320 OA
BRANCH  27  28
ATOM     28  C   LIG    1        3.431   3.529  -0.055  0.00  0.00    +0.590 C 
ATOM     29  F   LIG    1        2.742   3.948   1.088  0.00  0.00    -0.200 F 
ATOM     30  F   LIG    1        2.738   3.948  -1.196  0.00  0.00    -0.200 F 
ENDBRANCH  27  28
ENDBRANCH  26  27
ENDBRANCH  19  21
ENDBRANCH  18  19
ENDBRANCH   3  18
TORSDOF 8
