REMARK  Name = ZINCpk00001AZipG.0
REMARK                            x       y       z     vdW  Elec       q    Type
REMARK                         _______ _______ _______ _____ _____    ______ ____
ROOT
ATOM      1  N   LIG    1       -2.484  -0.361   0.011  0.00  0.00    -0.720 N 
ATOM      2  H   LIG    1       -1.636  -0.832   0.004  0.00  0.00    +0.400 HD
ATOM      3  C   LIG    1       -2.507   0.987   0.019  0.00  0.00    +0.570 C 
ATOM      4  O   LIG    1       -3.570   1.576   0.027  0.00  0.00    -0.520 OA
ENDROOT
BRANCH   3   5
ATOM      5  C   LIG    1       -1.241   1.747   0.018  0.00  0.00    -0.210 A 
ATOM      6  C   LIG    1       -0.013   1.076   0.008  0.00  0.00    +0.330 A 
ATOM      7  N   LIG    1        1.123   1.737   0.001  0.00  0.00    -0.480 NA
ATOM      8  C   LIG    1        1.160   3.061   0.007  0.00  0.00    +0.260 A 
ATOM      9  C   LIG    1       -0.031   3.812   0.023  0.00  0.00    -0.010 A 
ATOM     10  N   LIG    1        0.322   5.123   0.027  0.00  0.00    -0.480 NA
ATOM     11  C   LIG    1        1.619   5.221   0.015  0.00  0.00    +0.510 A 
ATOM     12  N   LIG    1        2.183   3.982   0.003  0.00  0.00    -0.480 N 
ATOM     13  C   LIG    1        3.617   3.683  -0.013  0.00  0.00    +0.340 C 
ATOM     14  C   LIG    1       -1.255   3.144   0.031  0.00  0.00    +0.210 A 
ENDBRANCH   3   5
BRANCH   1  19
ATOM     15  C   LIG    1       -3.507  -2.554   0.524  0.00  0.00    +0.240 C 
ATOM     16  O   LIG    1       -4.376  -3.378  -0.283  0.00  0.00    -0.340 OA
ATOM     17  C   LIG    1       -4.275  -2.842  -1.621  0.00  0.00    +0.210 C 
ATOM     18  C   LIG    1       -4.257  -1.309  -1.431  0.00  0.00    +0.020 C 
ATOM     19  C   LIG    1       -3.740  -1.115   0.013  0.00  0.00    +0.250 C 
BRANCH  15  24
ATOM     20  N   LIG    1       -3.020  -2.739   3.013  0.00  0.00    -0.450 N 
ATOM     21  C   LIG    1       -3.764  -2.819   4.159  0.00  0.00    +0.130 A 
ATOM     22  C   LIG    1       -5.058  -2.797   3.785  0.00  0.00    +0.140 A 
ATOM     23  N   LIG    1       -5.102  -2.700   2.448  0.00  0.00    -0.460 NA
ATOM     24  C   LIG    1       -3.885  -2.661   1.979  0.00  0.00    +0.200 A 
BRANCH  20  26
ATOM     25  C   LIG    1       -1.054  -1.290   2.876  0.00  0.00    +0.030 C 
ATOM     26  C   LIG    1       -1.557  -2.734   2.925  0.00  0.00    +0.280 C 
ENDBRANCH  20  26
ENDBRANCH  15  24
ENDBRANCH   1  19
TORSDOF 4
