REMARK  Name = ZINCpe00000VVGg1.0
REMARK                            x       y       z     vdW  Elec       q    Type
REMARK                         _______ _______ _______ _____ _____    ______ ____
ROOT
ATOM      1  N   LIG    1       -0.646   2.232   1.470  0.00  0.00    -1.040 NA
ATOM      2  C   LIG    1       -1.984   2.530   2.003  0.00  0.00    +0.370 C 
ATOM      3  C   LIG    1       -1.460   2.125   3.390  0.00  0.00    -0.480 C 
ATOM      4  C   LIG    1       -0.106   2.545   2.802  0.00  0.00    +0.380 C 
ENDROOT
BRANCH   1   6
ATOM      5  O   LIG    1        1.336   2.178   0.001  0.00  0.00    -0.940 OA
ATOM      6  S   LIG    1       -0.022   1.758   0.012  0.00  0.00    +2.720 S 
ATOM      7  O   LIG    1       -0.965   2.152  -0.976  0.00  0.00    -0.940 OA
BRANCH   6   8
ATOM      8  C   LIG    1        0.002  -0.004   0.002  0.00  0.00    -0.740 A 
ATOM      9  C   LIG    1        1.114  -0.694   0.460  0.00  0.00    +0.180 A 
ATOM     10  C   LIG    1        1.086  -2.080   0.439  0.00  0.00    -0.040 A 
ATOM     11  C   LIG    1       -0.037  -2.723  -0.045  0.00  0.00    +0.330 A 
ATOM     12  N   LIG    1       -1.075  -2.035  -0.478  0.00  0.00    -0.490 NA
ATOM     13  C   LIG    1       -1.086  -0.716  -0.468  0.00  0.00    +0.370 A 
ENDBRANCH   6   8
ENDBRANCH   1   6
BRANCH   3  14
ATOM     14  S   LIG    1       -2.042   3.182   4.745  0.00  0.00    +2.620 S 
ATOM     15  O   LIG    1       -2.379   4.475   4.259  0.00  0.00    -0.930 OA
ATOM     16  O   LIG    1       -1.219   3.022   5.892  0.00  0.00    -0.930 OA
BRANCH  14  17
ATOM     17  N   LIG    1       -3.495   2.522   5.189  0.00  0.00    -0.940 N 
ATOM     18  C   LIG    1       -3.668   1.482   6.207  0.00  0.00    +0.280 C 
ATOM     19  C   LIG    1       -5.181   1.211   6.253  0.00  0.00    +0.100 C 
ATOM     20  C   LIG    1       -5.766   2.151   5.222  0.00  0.00    -0.130 A 
ATOM     21  C   LIG    1       -7.072   2.355   4.820  0.00  0.00    +0.050 A 
ATOM     22  C   LIG    1       -7.361   3.301   3.854  0.00  0.00    -0.010 A 
ATOM     23  C   LIG    1       -6.338   4.030   3.277  0.00  0.00    +0.040 A 
ATOM     24  C   LIG    1       -5.032   3.825   3.670  0.00  0.00    -0.010 A 
ATOM     25  C   LIG    1       -4.733   2.880   4.653  0.00  0.00    +0.150 A 
ENDBRANCH  14  17
ENDBRANCH   3  14
TORSDOF 4
