REMARK  Name = ZINCpk000004ANdH.0
REMARK                            x       y       z     vdW  Elec       q    Type
REMARK                         _______ _______ _______ _____ _____    ______ ____
ROOT
ATOM      1  N   LIG    1       -1.963  -0.161   1.450  0.00  0.00    -0.720 N 
ATOM      2  H   LIG    1       -1.359   0.008   2.190  0.00  0.00    +0.390 HD
ATOM      3  C   LIG    1       -3.294  -0.053   1.628  0.00  0.00    +0.590 C 
ATOM      4  O   LIG    1       -4.051  -0.266   0.699  0.00  0.00    -0.510 OA
ENDROOT
BRANCH   3   5
ATOM      5  C   LIG    1       -3.833   0.322   2.945  0.00  0.00    -0.040 A 
ATOM      6  C   LIG    1       -5.166   0.472   3.285  0.00  0.00    +0.030 A 
ATOM      7  C   LIG    1       -5.165   0.832   4.635  0.00  0.00    +0.040 A 
ATOM      8  N   LIG    1       -3.921   0.882   5.036  0.00  0.00    -0.260 NA
ATOM      9  N   LIG    1       -3.118   0.584   4.079  0.00  0.00    -0.380 N 
ATOM     10  H   LIG    1       -2.151   0.554   4.149  0.00  0.00    +0.440 HD
BRANCH   7  11
ATOM     11  C   LIG    1       -6.381   1.112   5.479  0.00  0.00    +0.090 C 
ATOM     12  C   LIG    1       -7.531   0.200   5.040  0.00  0.00    +0.010 C 
ATOM     13  C   LIG    1       -8.784   0.546   5.849  0.00  0.00    +0.210 C 
ATOM     14  O   LIG    1       -9.105   1.926   5.660  0.00  0.00    -0.380 OA
ATOM     15  C   LIG    1       -8.086   2.828   6.097  0.00  0.00    +0.210 C 
ATOM     16  C   LIG    1       -6.805   2.573   5.298  0.00  0.00    +0.010 C 
ENDBRANCH   7  11
ENDBRANCH   3   5
BRANCH   1  17
ATOM     17  C   LIG    1       -1.427  -0.534   0.139  0.00  0.00    +0.240 C 
ATOM     18  C   LIG    1       -1.420  -2.058   0.005  0.00  0.00    +0.020 C 
BRANCH  17  19
ATOM     19  C   LIG    1        0.002  -0.004   0.002  0.00  0.00    +0.050 C 
BRANCH  19  23
ATOM     20  C   LIG    1        1.139   4.381  -1.345  0.00  0.00    +0.570 C 
ATOM     21  N   LIG    1        0.828   3.123  -0.975  0.00  0.00    -0.640 N 
ATOM     22  C   LIG    1        1.382   2.165   0.001  0.00  0.00    +0.280 C 
ATOM     23  C   LIG    1       -0.019   1.526   0.010  0.00  0.00    -0.020 C 
ATOM     24  C   LIG    1       -0.204   2.151  -1.384  0.00  0.00    +0.280 C 
ATOM     25  O   LIG    1        2.073   4.956  -0.819  0.00  0.00    -0.540 OA
BRANCH  20  27
ATOM     26  C   LIG    1        0.657   6.301  -2.748  0.00  0.00    +0.140 C 
ATOM     27  C   LIG    1        0.349   5.060  -2.384  0.00  0.00    -0.090 C 
ENDBRANCH  20  27
ENDBRANCH  19  23
ENDBRANCH  17  19
ENDBRANCH   1  17
TORSDOF 6
