REMARK  Name = ZINCrH00000tj0AG.0
REMARK                            x       y       z     vdW  Elec       q    Type
REMARK                         _______ _______ _______ _____ _____    ______ ____
ROOT
ATOM      1  C   LIG    1        3.865   1.617  -0.514  0.00  0.00    +0.380 C 
ATOM      2  C   LIG    1        2.437   1.281  -0.236  0.00  0.00    -0.230 A 
ATOM      3  C   LIG    1        2.324  -0.081  -0.229  0.00  0.00    +0.090 A 
ATOM      4  C   LIG    1        3.650  -0.657  -0.503  0.00  0.00    +0.570 C 
ATOM      5  O   LIG    1        3.893  -1.845  -0.569  0.00  0.00    -0.450 OA
ATOM      6  O   LIG    1        1.155  -0.711   0.003  0.00  0.00    -0.180 OA
ATOM      7  C   LIG    1        0.002  -0.004   0.002  0.00  0.00    +0.140 A 
ATOM      8  C   LIG    1       -1.212  -0.690  -0.003  0.00  0.00    +0.020 A 
ATOM      9  C   LIG    1       -2.400   0.005   0.004  0.00  0.00    +0.100 A 
ATOM     10  C   LIG    1       -2.413   1.392   0.017  0.00  0.00    +0.000 A 
ATOM     11  C   LIG    1       -1.227   2.093   0.019  0.00  0.00    +0.120 A 
ATOM     12  C   LIG    1       -0.017   1.401   0.010  0.00  0.00    -0.210 A 
ATOM     13  C   LIG    1        1.272   2.139   0.001  0.00  0.00    +0.460 A 
ATOM     14  O   LIG    1        1.353   3.342   0.175  0.00  0.00    -0.420 OA
ATOM     15  N   LIG    1        4.558   0.327  -0.671  0.00  0.00    -0.500 N 
ENDROOT
BRANCH   1  20
ATOM     16  C   LIG    1        4.278   4.706  -5.380  0.00  0.00    +0.090 C 
ATOM     17  C   LIG    1        4.171   3.900  -4.111  0.00  0.00    -0.070 A 
ATOM     18  C   LIG    1        4.214   4.535  -2.884  0.00  0.00    +0.010 A 
ATOM     19  C   LIG    1        4.116   3.796  -1.720  0.00  0.00    +0.060 A 
ATOM     20  C   LIG    1        3.973   2.423  -1.783  0.00  0.00    -0.100 A 
ATOM     21  C   LIG    1        3.934   1.787  -3.010  0.00  0.00    +0.010 A 
ATOM     22  C   LIG    1        4.029   2.527  -4.175  0.00  0.00    +0.000 A 
ENDBRANCH   1  20
BRANCH  15  23
ATOM     23  C   LIG    1        5.908   0.154  -0.945  0.00  0.00    +0.260 A 
ATOM     24  N   LIG    1        6.785   1.101  -1.114  0.00  0.00    -0.280 NA
ATOM     25  N   LIG    1        7.976   0.760  -1.353  0.00  0.00    -0.230 NA
ATOM     26  C   LIG    1        8.242  -0.505  -1.423  0.00  0.00    +0.200 A 
ATOM     27  S   LIG    1        6.742  -1.390  -1.134  0.00  0.00    +0.140 S 
ENDBRANCH  15  23
TORSDOF 2
