REMARK  Name = ZINCqH0000004ZoQ.0
REMARK                            x       y       z     vdW  Elec       q    Type
REMARK                         _______ _______ _______ _____ _____    ______ ____
ROOT
ATOM      1  C   LIG    1       -0.201   2.952   0.546  0.00  0.00    -0.150 A 
ATOM      2  C   LIG    1       -1.074   4.014   0.794  0.00  0.00    +0.070 A 
ATOM      3  C   LIG    1       -0.573   5.278   1.014  0.00  0.00    -0.020 A 
ATOM      4  C   LIG    1        0.800   5.499   0.978  0.00  0.00    +0.170 A 
ATOM      5  C   LIG    1        1.671   4.444   0.726  0.00  0.00    +0.010 A 
ATOM      6  C   LIG    1        1.177   3.178   0.511  0.00  0.00    +0.090 A 
ENDROOT
BRANCH   1   9
ATOM      7  C   LIG    1       -2.423   2.029   2.018  0.00  0.00    +0.290 C 
ATOM      8  N   LIG    1       -1.765   1.141   1.056  0.00  0.00    -0.610 N 
ATOM      9  C   LIG    1       -0.734   1.595   0.315  0.00  0.00    +0.560 C 
ATOM     10  O   LIG    1       -0.247   0.888  -0.546  0.00  0.00    -0.530 OA
BRANCH   8  11
ATOM     11  C   LIG    1       -2.227  -0.240   0.899  0.00  0.00    +0.240 C 
ATOM     12  C   LIG    1       -3.698  -0.243   0.470  0.00  0.00    +0.000 C 
ATOM     13  C   LIG    1       -4.194  -1.689   0.386  0.00  0.00    +0.210 C 
ATOM     14  O   LIG    1       -4.014  -2.328   1.651  0.00  0.00    -0.380 OA
ATOM     15  C   LIG    1       -2.653  -2.397   2.082  0.00  0.00    +0.210 C 
ATOM     16  C   LIG    1       -2.095  -0.980   2.235  0.00  0.00    -0.010 C 
ENDBRANCH   8  11
ENDBRANCH   1   9
BRANCH   4  17
ATOM     17  N   LIG    1        1.304   6.781   1.196  0.00  0.00    -0.680 N 
ATOM     18  H   LIG    1        0.806   7.556   0.891  0.00  0.00    +0.410 HD
ATOM     19  C   LIG    1        2.482   6.943   1.830  0.00  0.00    +0.510 C 
ATOM     20  O   LIG    1        3.063   5.981   2.286  0.00  0.00    -0.500 OA
BRANCH  19  21
ATOM     21  C   LIG    1        3.077   8.320   1.972  0.00  0.00    +0.070 C 
BRANCH  21  22
ATOM     22  C   LIG    1        4.406   8.226   2.725  0.00  0.00    -0.010 C 
ATOM     23  C   LIG    1        5.371   7.331   1.946  0.00  0.00    +0.020 C 
ATOM     24  C   LIG    1        4.164   7.629   4.113  0.00  0.00    +0.030 C 
BRANCH  22  25
ATOM     25  C   LIG    1        5.011   9.624   2.870  0.00  0.00    -0.050 C 
ATOM     26  C   LIG    1        6.285   9.928   2.080  0.00  0.00    +0.010 C 
ATOM     27  C   LIG    1        6.351   9.742   3.598  0.00  0.00    +0.000 C 
ENDBRANCH  22  25
ENDBRANCH  21  22
ENDBRANCH  19  21
ENDBRANCH   4  17
TORSDOF 6
