REMARK  Name = ZINCvU0000000BLd.0
REMARK                            x       y       z     vdW  Elec       q    Type
REMARK                         _______ _______ _______ _____ _____    ______ ____
ROOT
ATOM      1  N   LIG    1       -2.258   0.956  -0.595  0.00  0.00    -0.680 N 
ATOM      2  H   LIG    1       -3.149   1.332  -0.521  0.00  0.00    +0.400 HD
ATOM      3  C   LIG    1       -2.100  -0.340  -0.931  0.00  0.00    +0.710 C 
ATOM      4  N   LIG    1       -3.177  -1.100  -1.209  0.00  0.00    -0.620 N 
ATOM      5  O   LIG    1       -0.985  -0.822  -0.984  0.00  0.00    -0.560 OA
ENDROOT
BRANCH   1  12
ATOM      6  C   LIG    1       -2.577   3.779  -0.717  0.00  0.00    +0.090 C 
ATOM      7  C   LIG    1       -1.248   3.142  -0.401  0.00  0.00    -0.140 A 
ATOM      8  C   LIG    1       -0.143   3.934  -0.160  0.00  0.00    +0.050 A 
ATOM      9  C   LIG    1        1.077   3.353   0.131  0.00  0.00    +0.000 A 
ATOM     10  C   LIG    1        1.194   1.970   0.182  0.00  0.00    +0.160 A 
ATOM     11  C   LIG    1        0.086   1.171  -0.060  0.00  0.00    +0.010 A 
ATOM     12  C   LIG    1       -1.137   1.758  -0.351  0.00  0.00    +0.180 A 
BRANCH  10  13
ATOM     13  N   LIG    1        2.430   1.383   0.476  0.00  0.00    -0.670 N 
ATOM     14  H   LIG    1        2.471   0.601   1.050  0.00  0.00    +0.410 HD
ATOM     15  C   LIG    1        3.563   1.903  -0.036  0.00  0.00    +0.540 C 
ATOM     16  O   LIG    1        3.523   2.935  -0.670  0.00  0.00    -0.520 OA
BRANCH  15  17
ATOM     17  C   LIG    1        4.879   1.201   0.180  0.00  0.00    -0.070 C 
ATOM     18  C   LIG    1        5.904   1.886   1.087  0.00  0.00    +0.060 C 
ATOM     19  C   LIG    1        6.129   1.842  -0.426  0.00  0.00    +0.080 C 
ENDBRANCH  15  17
ENDBRANCH  10  13
ENDBRANCH   1  12
BRANCH   4  20
ATOM     20  C   LIG    1       -3.014  -2.530  -1.481  0.00  0.00    +0.260 C 
ATOM     21  C   LIG    1       -2.343  -3.204  -0.281  0.00  0.00    +0.010 C 
ATOM     22  C   LIG    1       -2.173  -4.698  -0.565  0.00  0.00    +0.010 C 
ATOM     23  C   LIG    1       -1.300  -4.884  -1.808  0.00  0.00    +0.000 C 
ATOM     24  C   LIG    1       -1.971  -4.211  -3.007  0.00  0.00    +0.010 C 
ATOM     25  C   LIG    1       -2.141  -2.717  -2.724  0.00  0.00    +0.010 C 
ENDBRANCH   4  20
BRANCH   4  26
ATOM     26  C   LIG    1       -4.512  -0.497  -1.239  0.00  0.00    +0.330 C 
BRANCH  26  27
ATOM     27  C   LIG    1       -4.811  -0.009  -2.633  0.00  0.00    -0.130 A 
ATOM     28  C   LIG    1       -4.478   1.282  -2.999  0.00  0.00    +0.050 A 
ATOM     29  C   LIG    1       -4.747   1.728  -4.279  0.00  0.00    -0.010 A 
ATOM     30  C   LIG    1       -5.361   0.887  -5.191  0.00  0.00    +0.110 A 
ATOM     31  C   LIG    1       -5.699  -0.404  -4.821  0.00  0.00    -0.010 A 
ATOM     32  F   LIG    1       -5.630   1.324  -6.441  0.00  0.00    -0.140 F 
ATOM     33  C   LIG    1       -5.424  -0.851  -3.543  0.00  0.00    +0.060 A 
ENDBRANCH  26  27
ENDBRANCH   4  26
TORSDOF 6
