REMARK  Name = ZINCrH000004nQgp.0
REMARK                            x       y       z     vdW  Elec       q    Type
REMARK                         _______ _______ _______ _____ _____    ______ ____
ROOT
ATOM      1  C   LIG    1        6.037   0.769  -0.050  0.00  0.00    +0.270 C 
ENDROOT
BRANCH   1   2
ATOM      2  N   LIG    1        4.572   0.749  -0.037  0.00  0.00    -0.560 N 
ATOM      3  C   LIG    1        3.796   1.848  -0.024  0.00  0.00    +0.580 C 
ATOM      4  C   LIG    1        2.380   1.424  -0.013  0.00  0.00    -0.130 A 
ATOM      5  C   LIG    1        1.169   2.097   0.002  0.00  0.00    +0.100 A 
ATOM      6  C   LIG    1       -0.017   1.378   0.010  0.00  0.00    +0.050 A 
ATOM      7  C   LIG    1        0.002  -0.004   0.002  0.00  0.00    +0.040 A 
ATOM      8  C   LIG    1        1.207  -0.691  -0.013  0.00  0.00    +0.100 A 
ATOM      9  C   LIG    1        2.399   0.015  -0.020  0.00  0.00    -0.140 A 
ATOM     10  O   LIG    1        4.192   2.996  -0.022  0.00  0.00    -0.440 OA
ATOM     11  C   LIG    1        3.826  -0.370  -0.035  0.00  0.00    +0.580 C 
ATOM     12  O   LIG    1        4.253  -1.507  -0.046  0.00  0.00    -0.460 OA
ENDBRANCH   1   2
BRANCH   1  13
ATOM     13  C   LIG    1        6.540   1.480   1.180  0.00  0.00    +0.510 C 
ATOM     14  N   LIG    1        7.865   1.621   1.382  0.00  0.00    -0.720 N 
ATOM     15  H   LIG    1        8.495   1.264   0.736  0.00  0.00    +0.400 HD
ATOM     16  O   LIG    1        5.753   1.927   1.987  0.00  0.00    -0.510 OA
BRANCH  14  17
ATOM     17  C   LIG    1        8.355   2.312   2.577  0.00  0.00    +0.230 C 
ATOM     18  C   LIG    1        8.383   3.820   2.318  0.00  0.00    +0.020 C 
BRANCH  17  19
ATOM     19  C   LIG    1        9.767   1.824   2.906  0.00  0.00    +0.020 C 
BRANCH  19  20
ATOM     20  C   LIG    1        9.719   0.343   3.287  0.00  0.00    +0.000 C 
BRANCH  20  21
ATOM     21  C   LIG    1       11.132  -0.145   3.616  0.00  0.00    +0.010 C 
BRANCH  21  22
ATOM     22  C   LIG    1       11.084  -1.626   3.996  0.00  0.00    -0.030 C 
ATOM     23  C   LIG    1       12.473  -2.082   4.445  0.00  0.00    +0.000 C 
ATOM     24  C   LIG    1       10.643  -2.450   2.785  0.00  0.00    +0.010 C 
ENDBRANCH  21  22
ENDBRANCH  20  21
ENDBRANCH  19  20
ENDBRANCH  17  19
ENDBRANCH  14  17
ENDBRANCH   1  13
BRANCH   1  25
ATOM     25  C   LIG    1        6.526   1.503  -1.300  0.00  0.00    +0.080 C 
BRANCH  25  26
ATOM     26  C   LIG    1        6.121   0.713  -2.546  0.00  0.00    +0.080 C 
BRANCH  26  28
ATOM     27  C   LIG    1        6.135   0.512  -5.378  0.00  0.00    +0.140 C 
ATOM     28  S   LIG    1        6.701   1.583  -4.028  0.00  0.00    -0.250 S 
ENDBRANCH  26  28
ENDBRANCH  25  26
ENDBRANCH   1  25
TORSDOF 10
