REMARK  Name = ZINCpe00000MJIlB.0
REMARK                            x       y       z     vdW  Elec       q    Type
REMARK                         _______ _______ _______ _____ _____    ______ ____
ROOT
ATOM      1  C   LIG    1        1.484  -3.278  -0.029  0.00  0.00    +0.260 C 
ATOM      2  C   LIG    1        1.438  -3.954   1.354  0.00  0.00    +0.050 C 
ATOM      3  C   LIG    1        0.851  -5.361   1.097  0.00  0.00    +0.040 C 
ATOM      4  C   LIG    1        1.139  -5.587  -0.408  0.00  0.00    +0.200 C 
ATOM      5  N   LIG    1        0.927  -4.240  -1.005  0.00  0.00    -0.500 NA
ENDROOT
BRANCH   1   9
ATOM      6  C   LIG    1        0.002  -0.004   0.002  0.00  0.00    +0.130 A 
ATOM      7  N   LIG    1       -1.039  -0.794   0.013  0.00  0.00    -0.350 NA
ATOM      8  O   LIG    1       -0.683  -1.953  -0.001  0.00  0.00    +0.120 OA
ATOM      9  C   LIG    1        0.652  -2.022  -0.015  0.00  0.00    +0.210 A 
ATOM     10  N   LIG    1        1.101  -0.792  -0.013  0.00  0.00    -0.440 NA
BRANCH   6  14
ATOM     11  N   LIG    1       -1.194   2.138   0.019  0.00  0.00    -0.830 N 
ATOM     12  H   LIG    1       -1.207   3.108   0.025  0.00  0.00    +0.420 HD
ATOM     13  H   LIG    1       -2.028   1.642   0.021  0.00  0.00    +0.410 HD
ATOM     14  C   LIG    1       -0.018   1.480   0.010  0.00  0.00    +0.620 C 
ATOM     15  O   LIG    1        1.026   2.102   0.004  0.00  0.00    -0.500 OA
ENDBRANCH   6  14
ENDBRANCH   1   9
BRANCH   5  16
ATOM     16  C   LIG    1        1.602  -4.123  -2.304  0.00  0.00    +0.210 C 
BRANCH  16  17
ATOM     17  C   LIG    1        1.188  -5.268  -3.191  0.00  0.00    +0.530 C 
ATOM     18  N   LIG    1        1.685  -5.368  -4.440  0.00  0.00    -0.550 N 
ATOM     19  C   LIG    1        1.358  -6.433  -5.392  0.00  0.00    +0.290 C 
ATOM     20  C   LIG    1        2.167  -6.104  -6.657  0.00  0.00    +0.090 C 
ATOM     21  C   LIG    1        2.916  -4.836  -6.313  0.00  0.00    -0.130 A 
ATOM     22  C   LIG    1        3.797  -4.075  -7.055  0.00  0.00    +0.060 A 
ATOM     23  C   LIG    1        4.350  -2.928  -6.514  0.00  0.00    -0.010 A 
ATOM     24  C   LIG    1        4.029  -2.553  -5.223  0.00  0.00    +0.050 A 
ATOM     25  C   LIG    1        3.153  -3.313  -4.477  0.00  0.00    -0.030 A 
ATOM     26  C   LIG    1        2.584  -4.467  -5.019  0.00  0.00    +0.140 A 
ATOM     27  O   LIG    1        0.407  -6.101  -2.781  0.00  0.00    -0.500 OA
ENDBRANCH  16  17
ENDBRANCH   5  16
TORSDOF 4
