REMARK  Name = ZINCrH000004mp7C.0
REMARK                            x       y       z     vdW  Elec       q    Type
REMARK                         _______ _______ _______ _____ _____    ______ ____
ROOT
ATOM      1  C   LIG    1       -4.477  -0.704   4.974  0.00  0.00    +0.360 C 
ENDROOT
BRANCH   1   2
ATOM      2  N   LIG    1       -4.032  -0.504   3.588  0.00  0.00    -0.540 NA
ATOM      3  C   LIG    1       -4.846   0.519   2.917  0.00  0.00    +0.200 C 
ATOM      4  C   LIG    1       -4.404   0.639   1.456  0.00  0.00    +0.200 C 
ATOM      5  N   LIG    1       -2.977   0.988   1.406  0.00  0.00    -0.540 NA
ATOM      6  C   LIG    1       -2.164  -0.035   2.078  0.00  0.00    +0.180 C 
ATOM      7  C   LIG    1       -2.606  -0.156   3.538  0.00  0.00    +0.180 C 
BRANCH   5   8
ATOM      8  C   LIG    1       -2.533   1.188   0.020  0.00  0.00    +0.270 C 
BRANCH   8   9
ATOM      9  C   LIG    1       -1.146   1.778   0.017  0.00  0.00    -0.160 A 
ATOM     10  C   LIG    1       -0.013   1.076   0.008  0.00  0.00    +0.010 A 
ATOM     11  C   LIG    1        1.145   1.836   0.001  0.00  0.00    +0.030 A 
ATOM     12  C   LIG    1        0.949   3.157   0.010  0.00  0.00    -0.150 A 
ATOM     13 CL   LIG    1        2.205   4.355   0.004  0.00  0.00    -0.010 Cl
ATOM     14  S   LIG    1       -0.777   3.497   0.028  0.00  0.00    +0.180 S 
ENDBRANCH   8   9
ENDBRANCH   5   8
ENDBRANCH   1   2
BRANCH   1  18
ATOM     15  C   LIG    1       -2.439  -3.231   6.518  0.00  0.00    +0.220 A 
ATOM     16  N   LIG    1       -3.457  -3.916   6.063  0.00  0.00    -0.380 NA
ATOM     17  O   LIG    1       -4.241  -3.176   5.507  0.00  0.00    +0.090 OA
ATOM     18  C   LIG    1       -3.794  -1.917   5.551  0.00  0.00    +0.190 A 
ATOM     19  N   LIG    1       -2.648  -1.937   6.185  0.00  0.00    -0.470 NA
BRANCH  15  23
ATOM     20  C   LIG    1        0.909  -4.787   8.629  0.00  0.00    +0.150 A 
ATOM     21  C   LIG    1       -0.101  -5.641   8.207  0.00  0.00    -0.010 A 
ATOM     22  C   LIG    1       -1.188  -5.139   7.522  0.00  0.00    +0.100 A 
ATOM     23  C   LIG    1       -1.271  -3.774   7.254  0.00  0.00    -0.070 A 
ATOM     24  C   LIG    1       -0.253  -2.920   7.675  0.00  0.00    +0.110 A 
ATOM     25  C   LIG    1        0.829  -3.426   8.364  0.00  0.00    -0.070 A 
BRANCH  20  27
ATOM     26  C   LIG    1        2.981  -4.350   9.708  0.00  0.00    +0.240 C 
ATOM     27  O   LIG    1        1.979  -5.284   9.303  0.00  0.00    -0.310 OA
ENDBRANCH  20  27
ENDBRANCH  15  23
ENDBRANCH   1  18
TORSDOF 6
