REMARK  Name = ZINCah0000004SYJ.0
REMARK                            x       y       z     vdW  Elec       q    Type
REMARK                         _______ _______ _______ _____ _____    ______ ____
ROOT
ATOM      1  C   LIG    1       -0.013   1.086   0.008  0.00  0.00    +0.150 C 
ATOM      2  C   LIG    1       -0.718   1.572   1.248  0.00  0.00    +0.110 A 
ATOM      3  C   LIG    1       -0.139   1.839   2.441  0.00  0.00    -0.160 A 
ATOM      4  C   LIG    1       -1.145   2.265   3.322  0.00  0.00    +0.340 A 
ATOM      5  N   LIG    1       -2.286   2.252   2.674  0.00  0.00    -0.350 NA
ATOM      6  N   LIG    1       -2.039   1.823   1.364  0.00  0.00    -0.350 N 
ENDROOT
BRANCH   4   7
ATOM      7  N   LIG    1       -0.963   2.640   4.659  0.00  0.00    -0.850 N 
ATOM      8  H   LIG    1       -1.723   2.922   5.191  0.00  0.00    +0.400 HD
ATOM      9  H   LIG    1       -0.077   2.618   5.052  0.00  0.00    +0.410 HD
ENDBRANCH   4   7
BRANCH   6  10
ATOM     10  C   LIG    1       -3.040   1.671   0.305  0.00  0.00    +0.220 C 
ATOM     11  C   LIG    1       -4.447   2.203   0.582  0.00  0.00    +0.060 C 
ATOM     12  C   LIG    1       -4.191   0.694   0.555  0.00  0.00    +0.030 C 
ENDBRANCH   6  10
TORSDOF 2
