REMARK  Name = ZINCvU0000000EGz.0
REMARK                            x       y       z     vdW  Elec       q    Type
REMARK                         _______ _______ _______ _____ _____    ______ ____
ROOT
ATOM      1  N   LIG    1       -0.662  -2.216  -0.138  0.00  0.00    -0.500 N 
ATOM      2  C   LIG    1       -1.107  -0.946  -0.221  0.00  0.00    +0.570 C 
ATOM      3  C   LIG    1        0.002  -0.004   0.002  0.00  0.00    +0.100 A 
ATOM      4  C   LIG    1        1.141  -0.727   0.218  0.00  0.00    -0.230 A 
ATOM      5  C   LIG    1        2.424  -0.061   0.464  0.00  0.00    +0.460 A 
ATOM      6  C   LIG    1        2.389   1.404   0.224  0.00  0.00    -0.210 A 
ATOM      7  C   LIG    1        3.569   2.147   0.216  0.00  0.00    +0.120 A 
ATOM      8  C   LIG    1        3.517   3.504  -0.014  0.00  0.00    +0.000 A 
ATOM      9  C   LIG    1        2.297   4.126  -0.239  0.00  0.00    +0.100 A 
ATOM     10  C   LIG    1        1.125   3.403  -0.231  0.00  0.00    +0.020 A 
ATOM     11  C   LIG    1        1.150   2.029   0.002  0.00  0.00    +0.140 A 
ATOM     12  O   LIG    1        3.424  -0.652   0.831  0.00  0.00    -0.420 OA
ATOM     13  O   LIG    1       -0.016   1.343   0.009  0.00  0.00    -0.180 OA
ATOM     14  O   LIG    1       -2.257  -0.626  -0.447  0.00  0.00    -0.450 OA
ATOM     15  C   LIG    1        0.782  -2.175   0.146  0.00  0.00    +0.370 C 
ENDROOT
BRANCH  15  16
ATOM     16  C   LIG    1        1.550  -2.846  -0.964  0.00  0.00    -0.080 A 
ATOM     17  C   LIG    1        1.121  -2.724  -2.272  0.00  0.00    +0.020 A 
ATOM     18  C   LIG    1        1.827  -3.335  -3.291  0.00  0.00    +0.050 A 
ATOM     19  C   LIG    1        2.957  -4.078  -3.000  0.00  0.00    -0.080 A 
ATOM     20  C   LIG    1        3.383  -4.204  -1.690  0.00  0.00    +0.060 A 
ATOM     21 BR   LIG    1        3.920  -4.920  -4.393  0.00  0.00    -0.040 Br
ATOM     22  C   LIG    1        2.679  -3.588  -0.673  0.00  0.00    +0.070 A 
ENDBRANCH  15  16
BRANCH   1  26
ATOM     23  C   LIG    1       -3.104  -5.128  -0.629  0.00  0.00    -0.380 A 
ATOM     24  C   LIG    1       -1.821  -5.548  -0.378  0.00  0.00    +0.200 A 
ATOM     25  N   LIG    1       -0.968  -4.573  -0.213  0.00  0.00    -0.500 NA
ATOM     26  C   LIG    1       -1.426  -3.356  -0.292  0.00  0.00    +0.290 A 
ATOM     27  C   LIG    1       -1.431  -7.002  -0.307  0.00  0.00    +0.180 C 
ATOM     28  S   LIG    1       -3.103  -3.366  -0.622  0.00  0.00    +0.280 S 
BRANCH  23  30
ATOM     29  C   LIG    1       -5.573  -5.346  -1.115  0.00  0.00    +0.060 C 
ATOM     30  C   LIG    1       -4.221  -5.957  -0.852  0.00  0.00    +0.430 C 
ATOM     31  O   LIG    1       -4.095  -7.165  -0.832  0.00  0.00    -0.450 OA
ENDBRANCH  23  30
ENDBRANCH   1  26
TORSDOF 3
