REMARK  Name = ZINCqH0000037kD3.0
REMARK                            x       y       z     vdW  Elec       q    Type
REMARK                         _______ _______ _______ _____ _____    ______ ____
ROOT
ATOM      1  C   LIG    1        0.315  -0.824   3.605  0.00  0.00    +0.110 A 
ATOM      2  C   LIG    1        1.319  -0.817   4.484  0.00  0.00    -0.130 A 
ATOM      3  S   LIG    1        1.019  -2.089   5.666  0.00  0.00    +0.250 S 
ATOM      4  C   LIG    1       -0.426  -2.514   4.858  0.00  0.00    +0.240 A 
ATOM      5  N   LIG    1       -0.604  -1.745   3.829  0.00  0.00    -0.480 NA
ENDROOT
BRANCH   4   6
ATOM      6  N   LIG    1       -1.286  -3.533   5.247  0.00  0.00    -0.610 N 
ATOM      7  H   LIG    1       -2.089  -3.712   4.735  0.00  0.00    +0.430 HD
ATOM      8  C   LIG    1       -1.003  -4.272   6.338  0.00  0.00    +0.610 C 
ATOM      9  O   LIG    1        0.005  -4.047   6.981  0.00  0.00    -0.490 OA
BRANCH   8  10
ATOM     10  C   LIG    1       -1.910  -5.348   6.749  0.00  0.00    -0.090 A 
ATOM     11  C   LIG    1       -1.744  -6.169   7.828  0.00  0.00    +0.070 A 
ATOM     12  C   LIG    1       -2.842  -7.044   7.842  0.00  0.00    -0.070 A 
ATOM     13  C   LIG    1       -3.620  -6.723   6.785  0.00  0.00    +0.230 A 
ATOM     14  O   LIG    1       -3.058  -5.697   6.132  0.00  0.00    -0.160 OA
ENDBRANCH   8  10
ENDBRANCH   4   6
BRANCH   1  15
ATOM     15  C   LIG    1        0.239   0.137   2.447  0.00  0.00    +0.160 C 
BRANCH  15  17
ATOM     16  N   LIG    1        0.020   0.020  -0.014  0.00  0.00    -0.610 N 
ATOM     17  C   LIG    1        0.105  -0.636   1.160  0.00  0.00    +0.520 C 
ATOM     18  O   LIG    1        0.074  -1.848   1.182  0.00  0.00    -0.520 OA
ATOM     19  C   LIG    1        0.058   1.484  -0.040  0.00  0.00    +0.280 C 
BRANCH  16  21
ATOM     20  C   LIG    1        1.112  -0.469  -2.147  0.00  0.00    +0.030 C 
ATOM     21  C   LIG    1       -0.111  -0.731  -1.265  0.00  0.00    +0.290 C 
BRANCH  21  22
ATOM     22  C   LIG    1       -1.357  -0.289  -1.988  0.00  0.00    -0.100 A 
ATOM     23  C   LIG    1       -2.461   0.131  -1.270  0.00  0.00    +0.020 A 
ATOM     24  C   LIG    1       -3.602   0.540  -1.934  0.00  0.00    +0.000 A 
ATOM     25  C   LIG    1       -3.642   0.521  -3.316  0.00  0.00    +0.000 A 
ATOM     26  C   LIG    1       -2.540   0.096  -4.034  0.00  0.00    +0.000 A 
ATOM     27  C   LIG    1       -1.397  -0.310  -3.370  0.00  0.00    +0.020 A 
ENDBRANCH  21  22
ENDBRANCH  16  21
ENDBRANCH  15  17
ENDBRANCH   1  15
TORSDOF 6
