REMARK  Name = ZINC5a0000003W9e.0
REMARK                            x       y       z     vdW  Elec       q    Type
REMARK                         _______ _______ _______ _____ _____    ______ ____
ROOT
ATOM      1  O   LIG    1        0.002  -0.004   0.002  0.00  0.00    -0.670 OA
ATOM      2  C   LIG    1       -0.015   1.215   0.009  0.00  0.00    +0.490 C 
ATOM      3  O   LIG    1        1.033   1.839   0.002  0.00  0.00    -0.690 OA
ENDROOT
BRANCH   2   4
ATOM      4  C   LIG    1       -1.330   1.951   0.019  0.00  0.00    +0.050 C 
ATOM      5 BR   LIG    1       -2.807   0.653   0.019  0.00  0.00    -0.180 Br
ENDBRANCH   2   4
TORSDOF 1
