REMARK  Name = ZINCqH0000008VZc.0
REMARK                            x       y       z     vdW  Elec       q    Type
REMARK                         _______ _______ _______ _____ _____    ______ ____
ROOT
ATOM      1  C   LIG    1        2.842   0.293   1.101  0.00  0.00    +0.030 C 
ATOM      2  C   LIG    1        2.698   1.224  -0.104  0.00  0.00    +0.190 C 
ENDROOT
BRANCH   2   3
ATOM      3  C   LIG    1        2.859   0.429  -1.374  0.00  0.00    +0.520 C 
ATOM      4  N   LIG    1        1.950  -0.510  -1.701  0.00  0.00    -0.670 N 
ATOM      5  H   LIG    1        1.230  -0.724  -1.086  0.00  0.00    +0.410 HD
ATOM      6  O   LIG    1        3.806   0.636  -2.103  0.00  0.00    -0.490 OA
BRANCH   4   7
ATOM      7  C   LIG    1        2.046  -1.183  -2.926  0.00  0.00    +0.150 A 
ATOM      8  C   LIG    1        3.292  -1.459  -3.471  0.00  0.00    +0.080 A 
ATOM      9  C   LIG    1        3.386  -2.127  -4.676  0.00  0.00    +0.020 A 
ATOM     10  C   LIG    1        2.237  -2.512  -5.347  0.00  0.00    +0.100 A 
ATOM     11  C   LIG    1        0.992  -2.234  -4.808  0.00  0.00    +0.020 A 
ATOM     12  F   LIG    1        2.332  -3.161  -6.528  0.00  0.00    -0.130 F 
ATOM     13  C   LIG    1        0.894  -1.570  -3.600  0.00  0.00    -0.040 A 
ATOM     14 CL   LIG    1       -0.666  -1.220  -2.925  0.00  0.00    -0.050 Cl
ENDBRANCH   4   7
ENDBRANCH   2   3
BRANCH   2  15
ATOM     15  N   LIG    1        3.732   2.266  -0.044  0.00  0.00    -0.510 NA
ATOM     16  C   LIG    1        3.428   3.250   1.004  0.00  0.00    +0.200 C 
BRANCH  15  17
ATOM     17  C   LIG    1        5.063   1.676   0.158  0.00  0.00    +0.240 C 
BRANCH  17  18
ATOM     18  C   LIG    1        6.116   2.736  -0.030  0.00  0.00    -0.070 A 
ATOM     19  C   LIG    1        6.662   2.953  -1.281  0.00  0.00    +0.060 A 
ATOM     20  C   LIG    1        7.626   3.928  -1.458  0.00  0.00    +0.010 A 
ATOM     21  C   LIG    1        8.055   4.684  -0.379  0.00  0.00    +0.050 A 
ATOM     22  O   LIG    1        9.011   5.635  -0.567  0.00  0.00    -0.310 OA
ATOM     23  C   LIG    1        9.145   6.624   0.459  0.00  0.00    +0.220 C 
ATOM     24  C   LIG    1        9.148   5.910   1.818  0.00  0.00    +0.220 C 
ATOM     25  O   LIG    1        7.912   5.199   1.953  0.00  0.00    -0.310 OA
ATOM     26  C   LIG    1        7.509   4.464   0.881  0.00  0.00    +0.050 A 
ATOM     27  C   LIG    1        6.540   3.488   1.051  0.00  0.00    +0.020 A 
ENDBRANCH  17  18
ENDBRANCH  15  17
ENDBRANCH   2  15
TORSDOF 5
