REMARK  Name = ZINCAx0000000iM6.0
REMARK                            x       y       z     vdW  Elec       q    Type
REMARK                         _______ _______ _______ _____ _____    ______ ____
ROOT
ATOM      1  C   LIG    1       -1.187   2.135   0.019  0.00  0.00    +0.570 C 
ATOM      2  N   LIG    1       -0.205   1.669   0.816  0.00  0.00    -0.610 N 
ATOM      3  C   LIG    1        1.113   2.319   0.836  0.00  0.00    +0.290 C 
ATOM      4  C   LIG    1        1.449   2.701   2.283  0.00  0.00    +0.310 C 
ATOM      5  N   LIG    1        1.223   1.530   3.142  0.00  0.00    -1.000 NA
ATOM      6  C   LIG    1       -0.095   0.880   3.122  0.00  0.00    +0.300 C 
ATOM      7  C   LIG    1       -0.431   0.499   1.675  0.00  0.00    +0.270 C 
ATOM      8  O   LIG    1       -1.024   3.163  -0.609  0.00  0.00    -0.530 OA
ENDROOT
BRANCH   1  12
ATOM      9  C   LIG    1       -4.853   0.014  -0.295  0.00  0.00    +0.160 A 
ATOM     10  C   LIG    1       -4.855   1.404  -0.288  0.00  0.00    -0.010 A 
ATOM     11  C   LIG    1       -3.668   2.096  -0.186  0.00  0.00    +0.120 A 
ATOM     12  C   LIG    1       -2.461   1.398  -0.090  0.00  0.00    -0.170 A 
ATOM     13  C   LIG    1       -2.463   0.001  -0.104  0.00  0.00    +0.090 A 
ATOM     14  C   LIG    1       -3.654  -0.683  -0.200  0.00  0.00    -0.080 A 
BRANCH   9  15
ATOM     15  O   LIG    1       -6.024  -0.664  -0.396  0.00  0.00    -0.300 OA
BRANCH  15  16
ATOM     16  C   LIG    1       -5.950  -2.091  -0.398  0.00  0.00    +0.300 C 
BRANCH  16  23
ATOM     17  C   LIG    1       -7.982  -2.874   2.007  0.00  0.00    +0.160 C 
ATOM     18  C   LIG    1       -8.229  -3.010   0.527  0.00  0.00    +0.040 A 
ATOM     19  N   LIG    1       -9.306  -3.465  -0.046  0.00  0.00    -0.360 NA
ATOM     20  O   LIG    1       -9.206  -3.458  -1.251  0.00  0.00    +0.100 OA
ATOM     21  C   LIG    1       -8.018  -2.978  -1.644  0.00  0.00    +0.010 A 
ATOM     22  C   LIG    1       -7.534  -2.819  -3.062  0.00  0.00    +0.190 C 
ATOM     23  C   LIG    1       -7.338  -2.666  -0.515  0.00  0.00    -0.220 A 
ENDBRANCH  16  23
ENDBRANCH  15  16
ENDBRANCH   9  15
ENDBRANCH   1  12
BRANCH   5  24
ATOM     24  S   LIG    1        2.432   0.953   4.116  0.00  0.00    +2.700 S 
ATOM     25  O   LIG    1        1.795   0.240   5.167  0.00  0.00    -0.950 OA
ATOM     26  O   LIG    1        3.320   2.039   4.339  0.00  0.00    -0.950 OA
BRANCH  24  27
ATOM     27  C   LIG    1        3.330  -0.240   3.180  0.00  0.00    -0.680 A 
ATOM     28  C   LIG    1        4.413   0.155   2.417  0.00  0.00    +0.140 A 
ATOM     29  C   LIG    1        5.119  -0.778   1.680  0.00  0.00    +0.020 A 
ATOM     30  C   LIG    1        4.743  -2.112   1.705  0.00  0.00    +0.110 A 
ATOM     31  O   LIG    1        5.444  -3.018   0.970  0.00  0.00    -0.300 OA
ATOM     32  C   LIG    1        5.269  -4.397   1.310  0.00  0.00    +0.230 C 
ATOM     33  C   LIG    1        3.767  -4.665   1.476  0.00  0.00    +0.230 C 
ATOM     34  O   LIG    1        3.273  -3.815   2.518  0.00  0.00    -0.300 OA
ATOM     35  C   LIG    1        3.656  -2.510   2.475  0.00  0.00    +0.030 A 
ATOM     36  C   LIG    1        2.954  -1.570   3.215  0.00  0.00    +0.140 A 
ENDBRANCH  24  27
ENDBRANCH   5  24
TORSDOF 6
