REMARK  Name = ZINCqH0000002bJL.0
REMARK                            x       y       z     vdW  Elec       q    Type
REMARK                         _______ _______ _______ _____ _____    ______ ____
ROOT
ATOM      1  C   LIG    1        2.107   0.793  -1.289  0.00  0.00    +0.550 C 
ATOM      2  N   LIG    1        3.335   0.238  -1.331  0.00  0.00    -0.610 N 
ATOM      3  C   LIG    1        3.916  -0.382  -0.132  0.00  0.00    +0.270 C 
ATOM      4  C   LIG    1        5.284   0.244   0.137  0.00  0.00    +0.040 C 
ATOM      5  C   LIG    1        6.140   0.154  -1.119  0.00  0.00    -0.070 C 
ATOM      6  C   LIG    1        7.550   0.708  -0.858  0.00  0.00    +0.270 C 
ATOM      7  N   LIG    1        8.362  -0.458  -0.480  0.00  0.00    -0.730 N 
ATOM      8  H   LIG    1        9.225  -0.404  -0.041  0.00  0.00    +0.410 HD
ATOM      9  C   LIG    1        7.753  -1.608  -0.821  0.00  0.00    +0.520 C 
ATOM     10  O   LIG    1        8.207  -2.716  -0.630  0.00  0.00    -0.530 OA
ATOM     11  C   LIG    1        5.486   0.875  -2.290  0.00  0.00    +0.040 C 
ATOM     12  C   LIG    1        6.420  -1.317  -1.478  0.00  0.00    +0.060 C 
ATOM     13  C   LIG    1        4.117   0.247  -2.575  0.00  0.00    +0.280 C 
ATOM     14  O   LIG    1        1.640   1.306  -2.283  0.00  0.00    -0.540 OA
ENDROOT
BRANCH   1  21
ATOM     15  C   LIG    1        0.066  -3.028   0.262  0.00  0.00    +0.000 C 
ATOM     16  C   LIG    1        0.506  -2.179   1.456  0.00  0.00    +0.020 C 
ATOM     17  C   LIG    1       -0.203  -0.822   1.405  0.00  0.00    +0.050 C 
ATOM     18  C   LIG    1        0.104  -0.152   0.063  0.00  0.00    -0.080 C 
ATOM     19  C   LIG    1       -0.098   1.359  -0.041  0.00  0.00    +0.070 C 
ATOM     20  C   LIG    1       -0.214  -1.000  -1.172  0.00  0.00    +0.050 C 
ATOM     21  C   LIG    1        1.316   0.776  -0.006  0.00  0.00    -0.070 C 
ATOM     22  C   LIG    1        0.495  -2.352  -1.041  0.00  0.00    +0.020 C 
BRANCH  15  23
ATOM     23  C   LIG    1        0.715  -4.410   0.354  0.00  0.00    -0.060 C 
ATOM     24  C   LIG    1        0.280  -5.092   1.653  0.00  0.00    +0.020 C 
ATOM     25  C   LIG    1        2.238  -4.261   0.342  0.00  0.00    +0.020 C 
BRANCH  23  27
ATOM     26  C   LIG    1        0.925  -6.643  -0.747  0.00  0.00    +0.010 C 
ATOM     27  C   LIG    1        0.276  -5.261  -0.839  0.00  0.00    +0.000 C 
ENDBRANCH  23  27
ENDBRANCH  15  23
ENDBRANCH   1  21
TORSDOF 3
