REMARK  Name = ZINCpk00000xIgT0.0
REMARK                            x       y       z     vdW  Elec       q    Type
REMARK                         _______ _______ _______ _____ _____    ______ ____
ROOT
ATOM      1  C   LIG    1       -0.573   2.873   1.650  0.00  0.00    -0.290 C 
ATOM      2  C   LIG    1       -0.542   1.551   1.376  0.00  0.00    +0.270 C 
ATOM      3  N   LIG    1       -1.302   0.666   2.087  0.00  0.00    -0.530 N 
ATOM      4  C   LIG    1       -2.121   1.024   3.084  0.00  0.00    +0.720 C 
ATOM      5  N   LIG    1       -2.264   2.308   3.469  0.00  0.00    -0.710 N 
ATOM      6  H   LIG    1       -2.863   2.545   4.194  0.00  0.00    +0.430 HD
ATOM      7  O   LIG    1       -2.758   0.163   3.659  0.00  0.00    -0.570 OA
ATOM      8  C   LIG    1       -1.214  -0.754   1.740  0.00  0.00    +0.330 C 
ATOM      9  C   LIG    1        0.348   1.044   0.272  0.00  0.00    +0.160 C 
ATOM     10  C   LIG    1       -1.487   3.342   2.765  0.00  0.00    +0.370 C 
ENDROOT
BRANCH  10  11
ATOM     11  C   LIG    1       -2.458   4.338   2.186  0.00  0.00    -0.310 A 
ATOM     12  C   LIG    1       -2.341   5.685   2.479  0.00  0.00    +0.290 A 
ATOM     13  N   LIG    1       -3.201   6.552   1.965  0.00  0.00    -0.540 NA
ATOM     14  C   LIG    1       -4.188   6.157   1.163  0.00  0.00    +0.410 A 
ATOM     15  C   LIG    1       -5.079   7.110   0.638  0.00  0.00    +0.030 A 
ATOM     16  C   LIG    1       -6.088   6.703  -0.182  0.00  0.00    +0.140 A 
ATOM     17  C   LIG    1       -6.223   5.342  -0.491  0.00  0.00    +0.000 A 
ATOM     18  C   LIG    1       -5.356   4.440   0.023  0.00  0.00    +0.280 A 
ATOM     19  N   LIG    1       -4.344   4.837   0.844  0.00  0.00    -0.430 N 
ATOM     20 CL   LIG    1       -1.068   6.239   3.522  0.00  0.00    +0.010 Cl
ATOM     21  C   LIG    1       -3.488   3.918   1.339  0.00  0.00    +0.530 A 
ATOM     22  O   LIG    1       -3.615   2.736   1.057  0.00  0.00    -0.510 OA
ENDBRANCH  10  11
BRANCH   1  23
ATOM     23  C   LIG    1        0.217   3.790   0.918  0.00  0.00    +0.530 C 
ATOM     24  O   LIG    1        0.940   3.392   0.025  0.00  0.00    -0.520 OA
BRANCH  23  26
ATOM     25  C   LIG    1        0.993   5.976   0.432  0.00  0.00    +0.260 C 
ATOM     26  O   LIG    1        0.169   5.107   1.212  0.00  0.00    -0.350 OA
ENDBRANCH  23  26
ENDBRANCH   1  23
TORSDOF 3
