REMARK  Name = ZINCpk00000dHIuL.0
REMARK                            x       y       z     vdW  Elec       q    Type
REMARK                         _______ _______ _______ _____ _____    ______ ____
ROOT
ATOM      1  O   LIG    1        2.350  -2.733  -0.130  0.00  0.00    -0.520 OA
ATOM      2  C   LIG    1        1.283  -2.158  -0.021  0.00  0.00    +0.600 C 
ATOM      3  N   LIG    1        0.142  -2.867   0.088  0.00  0.00    -0.610 N 
ATOM      4  C   LIG    1       -1.166  -2.195   0.112  0.00  0.00    +0.300 C 
ATOM      5  C   LIG    1       -2.070  -2.862  -0.936  0.00  0.00    +0.190 C 
ATOM      6  N   LIG    1       -2.112  -4.310  -0.690  0.00  0.00    -0.480 N 
ATOM      7  C   LIG    1       -0.784  -4.917  -0.854  0.00  0.00    +0.190 C 
ATOM      8  C   LIG    1        0.173  -4.334   0.192  0.00  0.00    +0.300 C 
ENDROOT
BRANCH   2   9
ATOM      9  C   LIG    1        1.238  -0.691  -0.010  0.00  0.00    -0.320 A 
ATOM     10  C   LIG    1        1.025   0.009   1.179  0.00  0.00    +0.420 A 
ATOM     11  N   LIG    1        0.991   1.327   1.147  0.00  0.00    -0.520 NA
ATOM     12  C   LIG    1        1.153   2.022   0.023  0.00  0.00    +0.380 A 
ATOM     13  S   LIG    1        1.137   3.781  -0.188  0.00  0.00    +0.050 S 
ATOM     14  C   LIG    1        1.429   3.768  -1.981  0.00  0.00    +0.150 C 
ATOM     15  C   LIG    1        1.535   2.286  -2.332  0.00  0.00    +0.300 C 
ATOM     16  N   LIG    1        1.365   1.417  -1.170  0.00  0.00    -0.530 N 
ATOM     17  C   LIG    1        1.411   0.048  -1.203  0.00  0.00    +0.550 A 
ATOM     18  O   LIG    1        1.600  -0.531  -2.258  0.00  0.00    -0.510 OA
ENDBRANCH   2   9
BRANCH   6  19
ATOM     19  C   LIG    1       -3.052  -4.932  -1.516  0.00  0.00    +0.100 A 
ATOM     20  C   LIG    1       -2.666  -5.974  -2.348  0.00  0.00    +0.000 A 
ATOM     21  C   LIG    1       -3.598  -6.591  -3.160  0.00  0.00    +0.020 A 
ATOM     22  C   LIG    1       -4.915  -6.163  -3.153  0.00  0.00    +0.070 A 
ATOM     23  C   LIG    1       -5.301  -5.120  -2.328  0.00  0.00    +0.010 A 
ATOM     24  F   LIG    1       -5.824  -6.764  -3.951  0.00  0.00    -0.140 F 
ATOM     25  C   LIG    1       -4.374  -4.504  -1.511  0.00  0.00    +0.030 A 
ENDBRANCH   6  19
TORSDOF 2
