REMARK  Name = ZINCpe000000WIV5.0
REMARK                            x       y       z     vdW  Elec       q    Type
REMARK                         _______ _______ _______ _____ _____    ______ ____
ROOT
ATOM      1  N   LIG    1       -2.852   1.610   0.036  0.00  0.00    -0.490 N 
ATOM      2  C   LIG    1       -2.207   1.109  -1.184  0.00  0.00    +0.210 C 
ATOM      3  C   LIG    1       -0.756   1.594  -1.230  0.00  0.00    +0.040 C 
ATOM      4  C   LIG    1       -0.013   1.086   0.008  0.00  0.00    +0.230 C 
ATOM      5  C   LIG    1       -0.732   1.581   1.266  0.00  0.00    +0.050 C 
ATOM      6  C   LIG    1       -2.185   1.096   1.239  0.00  0.00    +0.210 C 
ENDROOT
BRANCH   1  10
ATOM      7  C   LIG    1       -6.910   0.676   0.067  0.00  0.00    -0.690 A 
ATOM      8  C   LIG    1       -6.354   1.371   1.126  0.00  0.00    +0.140 A 
ATOM      9  C   LIG    1       -5.008   1.682   1.119  0.00  0.00    -0.020 A 
ATOM     10  C   LIG    1       -4.213   1.296   0.047  0.00  0.00    +0.170 A 
ATOM     11  C   LIG    1       -4.776   0.603  -1.017  0.00  0.00    -0.050 A 
ATOM     12  C   LIG    1       -6.122   0.290  -1.001  0.00  0.00    +0.150 A 
BRANCH   7  14
ATOM     13  C   LIG    1       -9.424   1.697  -0.726  0.00  0.00    -0.260 C 
ATOM     14  S   LIG    1       -8.627   0.281   0.081  0.00  0.00    +2.500 S 
ATOM     15  O   LIG    1       -8.966   0.237   1.460  0.00  0.00    -0.940 OA
ATOM     16  O   LIG    1       -8.726  -0.878  -0.735  0.00  0.00    -0.940 OA
ENDBRANCH   7  14
ENDBRANCH   1  10
BRANCH   4  17
ATOM     17  N   LIG    1        1.361   1.594  -0.002  0.00  0.00    -0.480 N 
ATOM     18  C   LIG    1        1.734   2.906  -0.005  0.00  0.00    +0.390 A 
ATOM     19  N   LIG    1        3.031   2.989  -0.012  0.00  0.00    -0.440 NA
ATOM     20  C   LIG    1        3.559   1.735  -0.024  0.00  0.00    -0.160 A 
ATOM     21  C   LIG    1        2.498   0.841  -0.017  0.00  0.00    +0.370 A 
BRANCH  20  22
ATOM     22  C   LIG    1        4.984   1.392  -0.039  0.00  0.00    +0.620 C 
ATOM     23  O   LIG    1        5.329   0.225  -0.048  0.00  0.00    -0.570 OA
ATOM     24  N   LIG    1        5.912   2.369  -0.044  0.00  0.00    -0.840 N 
ATOM     25  H   LIG    1        6.855   2.143  -0.054  0.00  0.00    +0.400 HD
ATOM     26  H   LIG    1        5.636   3.300  -0.036  0.00  0.00    +0.410 HD
ENDBRANCH  20  22
BRANCH  21  27
ATOM     27  N   LIG    1        2.577  -0.537  -0.025  0.00  0.00    -0.830 N 
ATOM     28  H   LIG    1        3.444  -0.973  -0.036  0.00  0.00    +0.430 HD
ATOM     29  H   LIG    1        1.766  -1.069  -0.020  0.00  0.00    +0.400 HD
ENDBRANCH  21  27
ENDBRANCH   4  17
TORSDOF 5
