REMARK  Name = ZINCrD00000F5LEu.1
REMARK                            x       y       z     vdW  Elec       q    Type
REMARK                         _______ _______ _______ _____ _____    ______ ____
ROOT
ATOM      1  N   LIG    1        2.528   1.738  -0.141  0.00  0.00    -0.450 NA
ATOM      2  C   LIG    1        3.543   2.531  -0.358  0.00  0.00    +0.350 C 
ENDROOT
BRANCH   2   3
ATOM      3  C   LIG    1        4.880   1.969  -0.569  0.00  0.00    -0.290 A 
ATOM      4  C   LIG    1        6.043   2.673  -0.814  0.00  0.00    +0.230 A 
ATOM      5  N   LIG    1        7.059   1.786  -0.948  0.00  0.00    -0.480 N 
ATOM      6  H   LIG    1        7.984   2.020  -1.123  0.00  0.00    +0.440 HD
ATOM      7  N   LIG    1        6.572   0.484  -0.801  0.00  0.00    -0.360 N 
ATOM      8  C   LIG    1        6.162   4.172  -0.912  0.00  0.00    +0.180 C 
ATOM      9  C   LIG    1        5.245   0.543  -0.568  0.00  0.00    +0.550 A 
ATOM     10  O   LIG    1        4.496  -0.399  -0.390  0.00  0.00    -0.480 OA
BRANCH   7  11
ATOM     11  C   LIG    1        7.335  -0.686  -0.882  0.00  0.00    +0.170 A 
ATOM     12  C   LIG    1        8.699  -0.611  -1.135  0.00  0.00    -0.040 A 
ATOM     13  C   LIG    1        9.450  -1.768  -1.209  0.00  0.00    +0.040 A 
ATOM     14  C   LIG    1        8.844  -3.000  -1.043  0.00  0.00    -0.010 A 
ATOM     15  C   LIG    1        7.486  -3.078  -0.798  0.00  0.00    +0.050 A 
ATOM     16  C   LIG    1        6.730  -1.925  -0.717  0.00  0.00    +0.020 A 
ENDBRANCH   7  11
ENDBRANCH   2   3
BRANCH   1  22
ATOM     17  C   LIG    1        0.208   1.679  -0.757  0.00  0.00    +0.130 A 
ATOM     18  C   LIG    1       -1.065   2.210  -0.655  0.00  0.00    -0.040 A 
ATOM     19  C   LIG    1       -1.300   3.301   0.162  0.00  0.00    +0.010 A 
ATOM     20  C   LIG    1       -0.258   3.879   0.876  0.00  0.00    +0.120 A 
ATOM     21  C   LIG    1        1.024   3.360   0.778  0.00  0.00    +0.020 A 
ATOM     22  C   LIG    1        1.265   2.256  -0.039  0.00  0.00    +0.080 A 
BRANCH  20  23
ATOM     23  N   LIG    1       -0.502   4.988   1.696  0.00  0.00    -0.670 N 
ATOM     24  H   LIG    1       -1.179   5.636   1.446  0.00  0.00    +0.410 HD
ATOM     25  C   LIG    1        0.203   5.154   2.833  0.00  0.00    +0.510 C 
ATOM     26  O   LIG    1        0.982   4.298   3.194  0.00  0.00    -0.520 OA
ATOM     27  C   LIG    1        0.022   6.404   3.656  0.00  0.00    +0.110 C 
ENDBRANCH  20  23
BRANCH  17  29
ATOM     28  C   LIG    1       -0.688   0.067  -2.257  0.00  0.00    +0.220 C 
ATOM     29  O   LIG    1        0.436   0.603  -1.556  0.00  0.00    -0.290 OA
ENDBRANCH  17  29
ENDBRANCH   1  22
TORSDOF 5
