REMARK  Name = ZINCpe000000YnR0.0
REMARK                            x       y       z     vdW  Elec       q    Type
REMARK                         _______ _______ _______ _____ _____    ______ ____
ROOT
ATOM      1  C   LIG    1        6.191   7.524  -0.022  0.00  0.00    +0.590 C 
ATOM      2  N   LIG    1        5.199   6.617   0.071  0.00  0.00    -0.590 N 
ATOM      3  C   LIG    1        4.508   6.391   1.348  0.00  0.00    +0.290 C 
ATOM      4  C   LIG    1        4.560   4.896   1.679  0.00  0.00    +0.050 C 
ATOM      5  C   LIG    1        3.988   4.098   0.505  0.00  0.00    +0.100 C 
ATOM      6  C   LIG    1        4.836   4.346  -0.745  0.00  0.00    +0.030 C 
ATOM      7  C   LIG    1        4.787   5.835  -1.102  0.00  0.00    +0.290 C 
ATOM      8  O   LIG    1        6.500   8.188   0.949  0.00  0.00    -0.520 OA
ENDROOT
BRANCH   5   9
ATOM      9  C   LIG    1        4.006   2.629   0.840  0.00  0.00    +0.140 A 
ATOM     10  N   LIG    1        5.063   1.913   1.123  0.00  0.00    -0.240 NA
ATOM     11  N   LIG    1        4.726   0.694   1.361  0.00  0.00    -0.290 NA
ATOM     12  C   LIG    1        3.415   0.567   1.240  0.00  0.00    +0.190 A 
ATOM     13  C   LIG    1        2.529  -0.518   1.384  0.00  0.00    +0.080 A 
ATOM     14  C   LIG    1        1.199  -0.321   1.182  0.00  0.00    +0.060 A 
ATOM     15  C   LIG    1        0.727   0.959   0.845  0.00  0.00    +0.030 A 
ATOM     16  C   LIG    1        1.587   1.990   0.709  0.00  0.00    +0.230 A 
ATOM     17  N   LIG    1        2.925   1.805   0.903  0.00  0.00    -0.390 N 
ENDBRANCH   5   9
BRANCH   1  21
ATOM     18  C   LIG    1        6.109   7.317  -4.798  0.00  0.00    +0.360 C 
ATOM     19  N   LIG    1        6.862   7.613  -3.576  0.00  0.00    -0.340 N 
ATOM     20  N   LIG    1        6.289   7.461  -2.438  0.00  0.00    -0.180 NA
ATOM     21  C   LIG    1        6.903   7.713  -1.304  0.00  0.00    +0.020 A 
ATOM     22  C   LIG    1        8.248   8.158  -1.306  0.00  0.00    +0.120 A 
ATOM     23  C   LIG    1        8.872   8.319  -2.507  0.00  0.00    -0.010 A 
ATOM     24  C   LIG    1        8.137   8.031  -3.679  0.00  0.00    +0.480 A 
ATOM     25  O   LIG    1        8.655   8.161  -4.775  0.00  0.00    -0.520 OA
ENDBRANCH   1  21
TORSDOF 2
