REMARK  Name = ZINCvU00000006A1.0
REMARK                            x       y       z     vdW  Elec       q    Type
REMARK                         _______ _______ _______ _____ _____    ______ ____
ROOT
ATOM      1  C   LIG    1        2.035  -3.462   0.012  0.00  0.00    -0.240 A 
ATOM      2  C   LIG    1        2.330  -2.474  -0.860  0.00  0.00    +0.260 A 
ATOM      3  N   LIG    1        1.474  -1.444  -0.628  0.00  0.00    -0.320 N 
ATOM      4  N   LIG    1        0.619  -1.819   0.417  0.00  0.00    -0.270 NA
ATOM      5  C   LIG    1        0.953  -3.032   0.804  0.00  0.00    +0.130 A 
ENDROOT
BRANCH   3   6
ATOM      6  C   LIG    1        1.447  -0.224  -1.316  0.00  0.00    +0.160 A 
ATOM      7  C   LIG    1        0.511   0.744  -0.979  0.00  0.00    +0.020 A 
ATOM      8  C   LIG    1        0.487   1.946  -1.659  0.00  0.00    +0.040 A 
ATOM      9  C   LIG    1        1.395   2.186  -2.674  0.00  0.00    +0.000 A 
ATOM     10  C   LIG    1        2.329   1.223  -3.012  0.00  0.00    +0.040 A 
ATOM     11  C   LIG    1        2.357   0.019  -2.336  0.00  0.00    -0.010 A 
ENDBRANCH   3   6
BRANCH   5  12
ATOM     12  C   LIG    1        0.302  -3.811   1.888  0.00  0.00    -0.020 A 
ATOM     13  C   LIG    1        0.008  -5.160   1.700  0.00  0.00    +0.030 A 
ATOM     14  C   LIG    1       -0.592  -5.880   2.713  0.00  0.00    +0.010 A 
ATOM     15  C   LIG    1       -0.911  -5.263   3.908  0.00  0.00    +0.020 A 
ATOM     16  C   LIG    1       -0.626  -3.922   4.098  0.00  0.00    +0.010 A 
ATOM     17  C   LIG    1       -0.021  -3.194   3.095  0.00  0.00    +0.040 A 
ENDBRANCH   5  12
BRANCH   1  18
ATOM     18  C   LIG    1        2.736  -4.793   0.114  0.00  0.00    +0.370 C 
BRANCH  18  19
ATOM     19  N   LIG    1        2.998  -5.311  -1.230  0.00  0.00    -0.600 N 
ATOM     20  C   LIG    1        4.085  -4.897  -1.912  0.00  0.00    +0.550 C 
ATOM     21  O   LIG    1        4.303  -5.327  -3.028  0.00  0.00    -0.530 OA
BRANCH  20  22
ATOM     22  C   LIG    1        5.007  -3.925  -1.306  0.00  0.00    -0.100 C 
ATOM     23  C   LIG    1        6.080  -3.516  -1.978  0.00  0.00    +0.150 C 
ENDBRANCH  20  22
BRANCH  19  24
ATOM     24  C   LIG    1        2.080  -6.279  -1.835  0.00  0.00    +0.290 C 
BRANCH  24  25
ATOM     25  C   LIG    1        1.003  -5.535  -2.626  0.00  0.00    +0.010 C 
BRANCH  25  26
ATOM     26  C   LIG    1        1.647  -4.823  -3.817  0.00  0.00    -0.020 C 
ATOM     27  C   LIG    1        1.688  -3.293  -3.788  0.00  0.00    -0.010 C 
ATOM     28  C   LIG    1        0.729  -4.015  -4.738  0.00  0.00    +0.010 C 
ENDBRANCH  25  26
BRANCH  25  29
ATOM     29  C   LIG    1       -0.040  -6.535  -3.132  0.00  0.00    +0.170 C 
BRANCH  29  31
ATOM     30  C   LIG    1       -2.079  -5.222  -4.189  0.00  0.00    -0.010 C 
ATOM     31  C   LIG    1       -1.174  -5.804  -3.720  0.00  0.00    -0.170 C 
ENDBRANCH  29  31
ENDBRANCH  25  29
ENDBRANCH  24  25
ENDBRANCH  19  24
ENDBRANCH  18  19
ENDBRANCH   1  18
TORSDOF 10
