REMARK  Name = ZINCc70000002LCL.0
REMARK                            x       y       z     vdW  Elec       q    Type
REMARK                         _______ _______ _______ _____ _____    ______ ____
ROOT
ATOM      1  O   LIG    1        0.002  -0.004   0.002  0.00  0.00    -0.940 OA
ATOM      2  S   LIG    1       -0.017   1.417   0.010  0.00  0.00    +2.420 S 
ATOM      3  C   LIG    1       -0.962   1.960   1.472  0.00  0.00    -0.340 C 
ATOM      4  C   LIG    1       -1.533   3.376   1.248  0.00  0.00    +0.030 C 
ATOM      5  C   LIG    1       -0.502   4.212   0.509  0.00  0.00    +0.230 C 
ATOM      6  N   LIG    1       -1.030   4.319  -0.858  0.00  0.00    -0.710 NA
ATOM      7  H   LIG    1       -2.039   4.341  -0.856  0.00  0.00    +0.350 HD
ATOM      8  C   LIG    1       -0.554   3.407  -1.796  0.00  0.00    +0.270 C 
ATOM      9  O   LIG    1        1.220   2.116   0.002  0.00  0.00    -0.940 OA
ATOM     10  C   LIG    1       -0.974   1.966  -1.405  0.00  0.00    -0.390 C 
ENDROOT
BRANCH   8  11
ATOM     11  C   LIG    1       -1.129   3.747  -3.172  0.00  0.00    -0.040 C 
ATOM     12  C   LIG    1       -0.143   3.896  -4.332  0.00  0.00    +0.020 C 
ATOM     13  C   LIG    1       -0.824   5.134  -3.742  0.00  0.00    +0.030 C 
ENDBRANCH   8  11
TORSDOF 1
