REMARK  Name = ZINCah0000002vVt.0
REMARK                            x       y       z     vdW  Elec       q    Type
REMARK                         _______ _______ _______ _____ _____    ______ ____
ROOT
ATOM      1  C   LIG    1        1.200   2.059   0.002  0.00  0.00    +0.130 A 
ATOM      2  C   LIG    1       -0.017   1.380   0.010  0.00  0.00    +0.020 A 
ATOM      3  C   LIG    1        0.002  -0.004   0.002  0.00  0.00    +0.000 A 
ATOM      4  C   LIG    1        1.223  -0.665  -0.013  0.00  0.00    +0.260 A 
ATOM      5  N   LIG    1        2.359   0.012  -0.020  0.00  0.00    -0.500 NA
ATOM      6  C   LIG    1        2.380   1.331  -0.013  0.00  0.00    +0.220 A 
ENDROOT
BRANCH   1   8
ATOM      7  C   LIG    1        2.514   4.164   0.000  0.00  0.00    +0.270 C 
ATOM      8  N   LIG    1        1.230   3.459   0.008  0.00  0.00    -0.750 N 
ATOM      9  H   LIG    1        0.400   3.962   0.019  0.00  0.00    +0.400 HD
ENDBRANCH   1   8
BRANCH   4  10
ATOM     10  O   LIG    1        1.251  -2.022  -0.020  0.00  0.00    -0.310 OA
ATOM     11  C   LIG    1        2.538  -2.644  -0.036  0.00  0.00    +0.250 C 
ENDBRANCH   4  10
TORSDOF 2
