REMARK  Name = ZINCvU0000000J07.0
REMARK                            x       y       z     vdW  Elec       q    Type
REMARK                         _______ _______ _______ _____ _____    ______ ____
ROOT
ATOM      1  O   LIG    1        3.522  -2.011  -0.144  0.00  0.00    -0.500 OA
ATOM      2  C   LIG    1        2.497  -2.666  -0.138  0.00  0.00    +0.590 C 
ATOM      3  N   LIG    1        1.304  -2.050  -0.022  0.00  0.00    -0.660 N 
ATOM      4  H   LIG    1        0.493  -2.575   0.060  0.00  0.00    +0.410 HD
ENDROOT
BRANCH   3   5
ATOM      5  C   LIG    1        1.236  -0.651  -0.019  0.00  0.00    +0.070 A 
ATOM      6  C   LIG    1        2.142   0.102  -0.763  0.00  0.00    +0.120 A 
ATOM      7  C   LIG    1        2.037   1.481  -0.730  0.00  0.00    -0.010 A 
ATOM      8  C   LIG    1        1.039   2.066   0.038  0.00  0.00    +0.310 A 
ATOM      9  N   LIG    1        0.195   1.321   0.732  0.00  0.00    -0.520 NA
ATOM     10  C   LIG    1        0.265   0.004   0.725  0.00  0.00    +0.290 A 
BRANCH   8  11
ATOM     11  O   LIG    1        0.928   3.418   0.077  0.00  0.00    -0.290 OA
BRANCH  11  12
ATOM     12  C   LIG    1       -0.118   3.961   0.885  0.00  0.00    +0.250 C 
BRANCH  12  13
ATOM     13  C   LIG    1       -0.086   5.488   0.804  0.00  0.00    +0.460 C 
ATOM     14  F   LIG    1        1.149   5.953   1.267  0.00  0.00    -0.170 F 
ATOM     15  F   LIG    1       -1.111   6.019   1.595  0.00  0.00    -0.170 F 
ATOM     16  F   LIG    1       -0.267   5.889  -0.524  0.00  0.00    -0.170 F 
ENDBRANCH  12  13
ENDBRANCH  11  12
ENDBRANCH   8  11
ENDBRANCH   3   5
BRANCH   2  17
ATOM     17  C   LIG    1        2.560  -4.134  -0.258  0.00  0.00    -0.220 A 
ATOM     18  C   LIG    1        3.703  -4.897  -0.389  0.00  0.00    +0.050 A 
ATOM     19  N   LIG    1        3.320  -6.185  -0.464  0.00  0.00    -0.270 N 
ATOM     20  N   LIG    1        1.924  -6.237  -0.389  0.00  0.00    -0.240 NA
ATOM     21  C   LIG    1        1.462  -5.022  -0.267  0.00  0.00    +0.300 A 
BRANCH  19  22
ATOM     22  C   LIG    1        4.175  -7.287  -0.599  0.00  0.00    +0.120 A 
ATOM     23  C   LIG    1        5.336  -7.179  -1.352  0.00  0.00    +0.040 A 
ATOM     24  C   LIG    1        6.179  -8.265  -1.480  0.00  0.00    +0.060 A 
ATOM     25  C   LIG    1        5.862  -9.464  -0.866  0.00  0.00    -0.020 A 
ATOM     26  C   LIG    1        4.703  -9.577  -0.119  0.00  0.00    +0.060 A 
ATOM     27 CL   LIG    1        6.921 -10.830  -1.034  0.00  0.00    -0.050 Cl
ATOM     28  C   LIG    1        3.859  -8.492   0.016  0.00  0.00    +0.070 A 
ENDBRANCH  19  22
BRANCH  18  29
ATOM     29  C   LIG    1        5.119  -4.383  -0.436  0.00  0.00    +0.530 C 
ATOM     30  F   LIG    1        5.983  -5.346   0.097  0.00  0.00    -0.170 F 
ATOM     31  F   LIG    1        5.213  -3.206   0.314  0.00  0.00    -0.130 F 
ATOM     32  F   LIG    1        5.476  -4.120  -1.764  0.00  0.00    -0.160 F 
ENDBRANCH  18  29
ENDBRANCH   2  17
TORSDOF 7
