REMARK  Name = ZINCpe000000T2u0.0
REMARK                            x       y       z     vdW  Elec       q    Type
REMARK                         _______ _______ _______ _____ _____    ______ ____
ROOT
ATOM      1  C   LIG    1       -0.783   2.008   4.924  0.00  0.00    +0.520 C 
ATOM      2  N   LIG    1       -1.252   2.538   3.777  0.00  0.00    -0.690 N 
ATOM      3  H   LIG    1       -1.903   3.257   3.806  0.00  0.00    +0.410 HD
ATOM      4  C   LIG    1       -0.817   2.070   2.591  0.00  0.00    +0.690 C 
ATOM      5  N   LIG    1       -1.286   2.600   1.444  0.00  0.00    -0.730 N 
ATOM      6  H   LIG    1       -1.938   3.318   1.472  0.00  0.00    +0.400 HD
ATOM      7  O   LIG    1       -0.001   1.170   2.555  0.00  0.00    -0.530 OA
ATOM      8  O   LIG    1        0.031   1.110   4.888  0.00  0.00    -0.460 OA
ENDROOT
BRANCH   1   9
ATOM      9  C   LIG    1       -1.269   2.532   6.251  0.00  0.00    +0.070 C 
BRANCH   9  10
ATOM     10  C   LIG    1       -0.585   1.764   7.384  0.00  0.00    +0.200 C 
BRANCH  10  18
ATOM     11  C   LIG    1       -0.308   1.675   9.787  0.00  0.00    +0.200 C 
ATOM     12  C   LIG    1       -0.722   0.242   9.973  0.00  0.00    +0.490 C 
ATOM     13  N   LIG    1       -1.852  -0.256   9.459  0.00  0.00    -0.720 N 
ATOM     14  H   LIG    1       -2.072  -1.184   9.638  0.00  0.00    +0.400 HD
ATOM     15  C   LIG    1       -2.768   0.533   8.641  0.00  0.00    +0.230 C 
ATOM     16  C   LIG    1       -2.500   2.026   8.846  0.00  0.00    +0.220 C 
ATOM     17  O   LIG    1       -0.003  -0.492  10.616  0.00  0.00    -0.530 OA
ATOM     18  N   LIG    1       -1.059   2.275   8.677  0.00  0.00    -0.520 NA
BRANCH  11  20
ATOM     19  C   LIG    1        1.592   3.179   9.180  0.00  0.00    +0.040 C 
ATOM     20  C   LIG    1        1.190   1.734   9.478  0.00  0.00    -0.010 C 
ATOM     21  C   LIG    1        1.980   1.222  10.684  0.00  0.00    +0.030 C 
ENDBRANCH  11  20
ENDBRANCH  10  18
ENDBRANCH   9  10
ENDBRANCH   1   9
BRANCH   5  22
ATOM     22  C   LIG    1       -0.813   2.091   0.154  0.00  0.00    +0.340 C 
BRANCH  22  23
ATOM     23  C   LIG    1       -1.488   2.847  -0.962  0.00  0.00    -0.110 A 
ATOM     24  C   LIG    1       -2.681   2.387  -1.486  0.00  0.00    +0.020 A 
ATOM     25  C   LIG    1       -3.302   3.082  -2.506  0.00  0.00    +0.010 A 
ATOM     26  C   LIG    1       -2.724   4.233  -3.010  0.00  0.00    +0.010 A 
ATOM     27  C   LIG    1       -1.528   4.690  -2.490  0.00  0.00    +0.010 A 
ATOM     28  C   LIG    1       -0.910   3.997  -1.466  0.00  0.00    +0.020 A 
ENDBRANCH  22  23
ENDBRANCH   5  22
TORSDOF 6
