REMARK  Name = ZINCqH0000000tSj.0
REMARK                            x       y       z     vdW  Elec       q    Type
REMARK                         _______ _______ _______ _____ _____    ______ ____
ROOT
ATOM      1  C   LIG    1        2.339   4.117  -0.647  0.00  0.00    +0.550 C 
ATOM      2  N   LIG    1        1.317   3.277  -0.010  0.00  0.00    -0.740 N 
ATOM      3  H   LIG    1        0.544   3.676   0.419  0.00  0.00    +0.420 HD
ATOM      4  C   LIG    1        1.482   1.897  -0.035  0.00  0.00    +0.240 A 
ATOM      5  C   LIG    1        0.403   1.030  -0.038  0.00  0.00    -0.050 A 
ATOM      6  C   LIG    1        0.622  -0.334  -0.074  0.00  0.00    +0.080 A 
ATOM      7  C   LIG    1        1.912  -0.840  -0.107  0.00  0.00    -0.040 A 
ATOM      8  C   LIG    1        2.998   0.010  -0.101  0.00  0.00    +0.120 A 
ATOM      9  C   LIG    1        2.792   1.387  -0.063  0.00  0.00    -0.200 A 
ATOM     10  C   LIG    1        3.917   2.340  -0.046  0.00  0.00    +0.580 C 
ATOM     11  O   LIG    1        5.046   1.954   0.185  0.00  0.00    -0.510 OA
ATOM     12  N   LIG    1        3.677   3.645  -0.290  0.00  0.00    -0.620 N 
ENDROOT
BRANCH   1  16
ATOM     13  C   LIG    1        1.864   3.950  -4.891  0.00  0.00    +0.160 A 
ATOM     14  C   LIG    1        0.760   3.802  -4.061  0.00  0.00    +0.020 A 
ATOM     15  C   LIG    1        0.917   3.856  -2.690  0.00  0.00    +0.060 A 
ATOM     16  C   LIG    1        2.171   4.057  -2.143  0.00  0.00    -0.150 A 
ATOM     17  C   LIG    1        3.272   4.210  -2.967  0.00  0.00    +0.040 A 
ATOM     18  C   LIG    1        3.122   4.151  -4.339  0.00  0.00    -0.020 A 
BRANCH  13  21
ATOM     19  C   LIG    1        0.360   4.194  -8.332  0.00  0.00    +0.110 C 
ATOM     20  C   LIG    1        0.579   4.360  -6.851  0.00  0.00    +0.510 C 
ATOM     21  N   LIG    1        1.708   3.895  -6.280  0.00  0.00    -0.680 N 
ATOM     22  H   LIG    1        2.413   3.522  -6.833  0.00  0.00    +0.410 HD
ATOM     23  O   LIG    1       -0.260   4.912  -6.172  0.00  0.00    -0.520 OA
ENDBRANCH  13  21
ENDBRANCH   1  16
BRANCH  12  24
ATOM     24  C   LIG    1        4.777   4.608  -0.195  0.00  0.00    +0.340 C 
BRANCH  24  25
ATOM     25  C   LIG    1        4.860   5.148   1.235  0.00  0.00    +0.430 C 
ATOM     26  F   LIG    1        3.656   5.780   1.565  0.00  0.00    -0.180 F 
ATOM     27  F   LIG    1        5.910   6.067   1.326  0.00  0.00    -0.180 F 
ATOM     28  F   LIG    1        5.088   4.089   2.120  0.00  0.00    -0.170 F 
ENDBRANCH  24  25
ENDBRANCH  12  24
TORSDOF 4
