REMARK  Name = ZINCnE000001RLSK.0
REMARK                            x       y       z     vdW  Elec       q    Type
REMARK                         _______ _______ _______ _____ _____    ______ ____
ROOT
ATOM      1  N   LIG    1        1.893   4.266   0.007  0.00  0.00    -0.730 N 
ATOM      2  H   LIG    1        0.924   4.305   0.017  0.00  0.00    +0.400 HD
ATOM      3  C   LIG    1        2.519   3.072  -0.005  0.00  0.00    +0.600 C 
ATOM      4  O   LIG    1        3.734   3.022  -0.018  0.00  0.00    -0.520 OA
ENDROOT
BRANCH   3   5
ATOM      5  C   LIG    1        1.732   1.829  -0.005  0.00  0.00    -0.260 A 
ATOM      6  C   LIG    1        2.254   0.596  -0.016  0.00  0.00    +0.190 A 
ATOM      7  C   LIG    1        1.327  -0.454  -0.013  0.00  0.00    -0.070 A 
ATOM      8  C   LIG    1        1.569  -1.862  -0.023  0.00  0.00    -0.070 A 
ATOM      9  C   LIG    1        0.504  -2.750  -0.018  0.00  0.00    +0.040 A 
ATOM     10  C   LIG    1       -0.798  -2.279  -0.003  0.00  0.00    +0.040 A 
ATOM     11  C   LIG    1       -1.050  -0.926   0.007  0.00  0.00    +0.010 A 
ATOM     12  C   LIG    1        0.002  -0.004   0.002  0.00  0.00    -0.120 A 
ATOM     13  S   LIG    1       -0.022   1.756   0.012  0.00  0.00    +0.060 S 
BRANCH   8  14
ATOM     14  C   LIG    1        2.950  -2.371  -0.039  0.00  0.00    +0.520 C 
ATOM     15  O   LIG    1        3.890  -1.588  -0.044  0.00  0.00    -0.670 OA
ATOM     16  O   LIG    1        3.157  -3.577  -0.048  0.00  0.00    -0.680 OA
ENDBRANCH   8  14
ENDBRANCH   3   5
BRANCH   1  20
ATOM     17  C   LIG    1        3.035   8.295  -0.809  0.00  0.00    +0.130 C 
ATOM     18  C   LIG    1        3.861   7.168  -1.433  0.00  0.00    +0.050 C 
ATOM     19  C   LIG    1        3.042   5.875  -1.432  0.00  0.00    +0.020 C 
ATOM     20  C   LIG    1        2.677   5.503   0.007  0.00  0.00    +0.230 C 
ATOM     21  C   LIG    1        1.852   6.630   0.631  0.00  0.00    +0.020 C 
ATOM     22  C   LIG    1        2.670   7.923   0.630  0.00  0.00    +0.050 C 
BRANCH  17  24
ATOM     23  N   LIG    1        4.430  10.498  -0.810  0.00  0.00    -0.440 NA
ATOM     24  C   LIG    1        3.822   9.538  -0.810  0.00  0.00    +0.210 C 
ENDBRANCH  17  24
ENDBRANCH   1  20
TORSDOF 4
