REMARK  Name = ZINCpe00000MJJwY.0
REMARK                            x       y       z     vdW  Elec       q    Type
REMARK                         _______ _______ _______ _____ _____    ______ ____
ROOT
ATOM      1  C   LIG    1       -0.166   2.444  -2.035  0.00  0.00    +0.610 C 
ATOM      2  N   LIG    1       -0.308   3.064  -0.847  0.00  0.00    -0.600 N 
ATOM      3  C   LIG    1        0.427   2.610   0.345  0.00  0.00    +0.300 C 
ATOM      4  C   LIG    1        1.379   3.729   0.768  0.00  0.00    +0.090 C 
ATOM      5  C   LIG    1        0.666   5.053   0.792  0.00  0.00    -0.240 A 
ATOM      6  C   LIG    1        1.227   6.095   1.523  0.00  0.00    +0.370 A 
ATOM      7  N   LIG    1        0.627   7.272   1.540  0.00  0.00    -0.560 NA
ATOM      8  C   LIG    1       -0.498   7.466   0.869  0.00  0.00    +0.570 A 
ATOM      9  N   LIG    1       -1.060   6.494   0.168  0.00  0.00    -0.570 NA
ATOM     10  C   LIG    1       -0.510   5.287   0.113  0.00  0.00    +0.210 A 
ATOM     11  C   LIG    1       -1.202   4.218  -0.692  0.00  0.00    +0.370 C 
ATOM     12  O   LIG    1        0.650   1.551  -2.161  0.00  0.00    -0.510 OA
ENDROOT
BRANCH   1  19
ATOM     13  C   LIG    1       -2.386   3.765  -7.460  0.00  0.00    +0.070 C 
ATOM     14  C   LIG    1       -1.753   4.568  -6.321  0.00  0.00    +0.260 C 
ATOM     15  O   LIG    1       -0.387   4.871  -6.641  0.00  0.00    -0.370 OA
ATOM     16  C   LIG    1        0.366   5.448  -5.572  0.00  0.00    +0.150 C 
ATOM     17  C   LIG    1        0.658   4.381  -4.505  0.00  0.00    +0.100 C 
ATOM     18  C   LIG    1       -0.633   3.666  -4.216  0.00  0.00    -0.150 A 
ATOM     19  C   LIG    1       -0.997   2.848  -3.181  0.00  0.00    -0.020 A 
ATOM     20  N   LIG    1       -2.293   2.478  -3.433  0.00  0.00    -0.280 N 
ATOM     21  N   LIG    1       -2.698   3.029  -4.526  0.00  0.00    -0.250 NA
ATOM     22  C   LIG    1       -3.097   1.593  -2.586  0.00  0.00    +0.370 C 
ATOM     23  C   LIG    1        1.685   5.996  -6.119  0.00  0.00    +0.060 C 
ATOM     24  C   LIG    1       -1.757   3.751  -5.053  0.00  0.00    +0.000 A 
ENDBRANCH   1  19
BRANCH   8  25
ATOM     25  N   LIG    1       -1.100   8.712   0.901  0.00  0.00    -0.820 N 
ATOM     26  H   LIG    1       -1.925   8.865   0.413  0.00  0.00    +0.420 HD
ATOM     27  H   LIG    1       -0.698   9.432   1.411  0.00  0.00    +0.420 HD
ENDBRANCH   8  25
TORSDOF 2
