REMARK  Name = ZINCrg00000yV7E7.0
REMARK                            x       y       z     vdW  Elec       q    Type
REMARK                         _______ _______ _______ _____ _____    ______ ____
ROOT
ATOM      1  N   LIG    1       -4.495   2.588  -8.416  0.00  0.00    -0.450 N 
ATOM      2  C   LIG    1       -3.122   3.127  -8.589  0.00  0.00    +0.200 C 
ATOM      3  C   LIG    1       -3.079   4.313  -7.593  0.00  0.00    +0.180 C 
ATOM      4  C   LIG    1       -3.895   3.785  -6.391  0.00  0.00    +0.250 C 
ATOM      5  C   LIG    1       -4.778   2.663  -6.966  0.00  0.00    +0.220 C 
ENDROOT
BRANCH   1   8
ATOM      6  C   LIG    1       -4.955  -0.956  -8.467  0.00  0.00    +0.580 A 
ATOM      7  N   LIG    1       -4.877   0.294  -8.035  0.00  0.00    -0.600 NA
ATOM      8  C   LIG    1       -4.576   1.282  -8.871  0.00  0.00    +0.390 A 
ATOM      9  C   LIG    1       -4.350   0.986 -10.217  0.00  0.00    -0.150 A 
ATOM     10  C   LIG    1       -4.436  -0.331 -10.625  0.00  0.00    +0.370 A 
ATOM     11  N   LIG    1       -4.739  -1.266  -9.737  0.00  0.00    -0.580 NA
BRANCH   6  13
ATOM     12  C   LIG    1       -5.362  -3.350  -8.029  0.00  0.00    +0.310 C 
ATOM     13  N   LIG    1       -5.270  -1.961  -7.570  0.00  0.00    -0.700 N 
ATOM     14  H   LIG    1       -5.431  -1.747  -6.638  0.00  0.00    +0.410 HD
ENDBRANCH   6  13
ENDBRANCH   1   8
BRANCH   4  15
ATOM     15  N   LIG    1       -2.998   3.250  -5.363  0.00  0.00    -0.710 N 
ATOM     16  H   LIG    1       -2.102   2.966  -5.602  0.00  0.00    +0.410 HD
ATOM     17  C   LIG    1       -3.418   3.154  -4.086  0.00  0.00    +0.570 C 
ATOM     18  O   LIG    1       -4.541   3.511  -3.787  0.00  0.00    -0.530 OA
BRANCH  17  19
ATOM     19  C   LIG    1       -2.514   2.614  -3.049  0.00  0.00    -0.190 A 
ATOM     20  C   LIG    1       -1.222   2.201  -3.377  0.00  0.00    +0.300 A 
ATOM     21  N   LIG    1       -0.418   1.721  -2.453  0.00  0.00    -0.480 NA
ATOM     22  C   LIG    1       -0.785   1.607  -1.187  0.00  0.00    +0.140 A 
ATOM     23  C   LIG    1       -0.013   1.086   0.008  0.00  0.00    +0.100 C 
ATOM     24  C   LIG    1       -0.776   1.604   1.245  0.00  0.00    +0.050 C 
ATOM     25  C   LIG    1       -2.214   1.765   0.701  0.00  0.00    +0.090 C 
ATOM     26  C   LIG    1       -2.051   1.997  -0.785  0.00  0.00    -0.160 A 
ATOM     27  C   LIG    1       -2.936   2.508  -1.719  0.00  0.00    +0.150 A 
ENDBRANCH  17  19
ENDBRANCH   4  15
BRANCH   3  28
ATOM     28  O   LIG    1       -1.734   4.599  -7.204  0.00  0.00    -0.380 OA
ATOM     29  C   LIG    1       -1.124   5.654  -7.952  0.00  0.00    +0.220 C 
ENDBRANCH   3  28
TORSDOF 5
