REMARK  Name = ZINCqH0000036KMq.0
REMARK                            x       y       z     vdW  Elec       q    Type
REMARK                         _______ _______ _______ _____ _____    ______ ____
ROOT
ATOM      1  N   LIG    1       -1.816   5.179  -1.341  0.00  0.00    -0.680 NA
ATOM      2  H   LIG    1       -0.964   5.315  -1.864  0.00  0.00    +0.350 HD
ENDROOT
BRANCH   1   4
ATOM      3  C   LIG    1       -4.123   5.995  -1.244  0.00  0.00    +0.050 C 
ATOM      4  C   LIG    1       -2.650   6.388  -1.367  0.00  0.00    +0.190 C 
BRANCH   4   5
ATOM      5  C   LIG    1       -2.432   7.120  -2.666  0.00  0.00    -0.070 A 
ATOM      6  C   LIG    1       -2.300   6.410  -3.845  0.00  0.00    +0.030 A 
ATOM      7  C   LIG    1       -2.105   7.079  -5.040  0.00  0.00    +0.050 A 
ATOM      8  C   LIG    1       -2.031   8.458  -5.057  0.00  0.00    +0.000 A 
ATOM      9  C   LIG    1       -2.158   9.173  -3.874  0.00  0.00    +0.140 A 
ATOM     10  C   LIG    1       -2.359   8.500  -2.677  0.00  0.00    +0.000 A 
BRANCH   9  11
ATOM     11  N   LIG    1       -2.084  10.573  -3.888  0.00  0.00    -0.410 N 
ATOM     12  C   LIG    1       -1.890  11.368  -4.988  0.00  0.00    +0.130 A 
ATOM     13  C   LIG    1       -1.885  12.642  -4.553  0.00  0.00    +0.160 A 
ATOM     14  N   LIG    1       -2.070  12.632  -3.224  0.00  0.00    -0.480 NA
ATOM     15  C   LIG    1       -2.196  11.399  -2.815  0.00  0.00    +0.400 A 
ENDBRANCH   9  11
ENDBRANCH   4   5
ENDBRANCH   1   4
BRANCH   1  16
ATOM     16  C   LIG    1       -1.526   4.769   0.040  0.00  0.00    +0.350 C 
BRANCH  16  17
ATOM     17  C   LIG    1       -0.671   3.528   0.026  0.00  0.00    +0.170 A 
ATOM     18  N   LIG    1        0.632   3.491   0.014  0.00  0.00    -0.270 NA
ATOM     19  N   LIG    1        1.028   2.267   0.004  0.00  0.00    -0.280 NA
ATOM     20  C   LIG    1       -0.018   1.474   0.010  0.00  0.00    +0.220 A 
ATOM     21  O   LIG    1       -1.114   2.259   0.019  0.00  0.00    -0.210 OA
BRANCH  20  22
ATOM     22  C   LIG    1        0.002  -0.004   0.002  0.00  0.00    -0.030 A 
ATOM     23  C   LIG    1       -1.195  -0.721   0.015  0.00  0.00    +0.050 A 
ATOM     24  C   LIG    1       -1.169  -2.101   0.000  0.00  0.00    +0.010 A 
ATOM     25  C   LIG    1        0.040  -2.773  -0.014  0.00  0.00    +0.040 A 
ATOM     26  C   LIG    1        1.230  -2.068  -0.020  0.00  0.00    +0.020 A 
ATOM     27  C   LIG    1        1.218  -0.688  -0.013  0.00  0.00    +0.070 A 
ENDBRANCH  20  22
ENDBRANCH  16  17
ENDBRANCH   1  16
TORSDOF 6
