REMARK  Name = ZINCrD00000hQ44G.1
REMARK                            x       y       z     vdW  Elec       q    Type
REMARK                         _______ _______ _______ _____ _____    ______ ____
ROOT
ATOM      1  C   LIG    1        1.208  -0.680  -0.013  0.00  0.00    -0.090 A 
ATOM      2  C   LIG    1        0.002  -0.004   0.002  0.00  0.00    +0.050 A 
ATOM      3  C   LIG    1       -0.017   1.377   0.010  0.00  0.00    -0.030 A 
ATOM      4  C   LIG    1        1.176   2.086   0.002  0.00  0.00    +0.130 A 
ATOM      5  C   LIG    1        2.385   1.405  -0.013  0.00  0.00    -0.090 A 
ATOM      6  C   LIG    1        2.398   0.024  -0.021  0.00  0.00    +0.100 A 
ENDROOT
BRANCH   1   9
ATOM      7  C   LIG    1        1.925  -2.891   1.143  0.00  0.00    -0.060 C 
ATOM      8  C   LIG    1        2.573  -2.877  -0.244  0.00  0.00    +0.060 C 
ATOM      9  C   LIG    1        1.226  -2.187  -0.021  0.00  0.00    +0.050 C 
BRANCH   7  11
ATOM     10  N   LIG    1        3.174  -2.593   3.258  0.00  0.00    -0.610 N 
ATOM     11  C   LIG    1        2.545  -2.025   2.210  0.00  0.00    +0.540 C 
ATOM     12  O   LIG    1        2.477  -0.817   2.125  0.00  0.00    -0.510 OA
ATOM     13  C   LIG    1        3.256  -4.052   3.360  0.00  0.00    +0.280 C 
BRANCH  10  14
ATOM     14  C   LIG    1        3.776  -1.751   4.294  0.00  0.00    +0.280 C 
BRANCH  14  18
ATOM     15  C   LIG    1        2.304   1.507   6.762  0.00  0.00    +0.160 C 
ATOM     16  N   LIG    1        2.049   0.074   6.560  0.00  0.00    -0.490 NA
ATOM     17  C   LIG    1        3.310  -0.698   6.593  0.00  0.00    +0.170 C 
ATOM     18  C   LIG    1        2.744  -1.476   5.391  0.00  0.00    -0.030 C 
ATOM     19  C   LIG    1        1.873  -0.235   5.124  0.00  0.00    +0.180 C 
ENDBRANCH  14  18
ENDBRANCH  10  14
ENDBRANCH   7  11
ENDBRANCH   1   9
BRANCH   4  20
ATOM     20  O   LIG    1        1.160   3.445   0.009  0.00  0.00    -0.310 OA
BRANCH  20  21
ATOM     21  C   LIG    1        2.426   4.108   0.001  0.00  0.00    +0.240 C 
BRANCH  21  22
ATOM     22  C   LIG    1        2.211   5.600   0.010  0.00  0.00    -0.100 A 
ATOM     23  C   LIG    1        2.107   6.291  -1.183  0.00  0.00    +0.020 A 
ATOM     24  C   LIG    1        1.905   7.659  -1.174  0.00  0.00    +0.010 A 
ATOM     25  C   LIG    1        1.818   8.337   0.028  0.00  0.00    +0.010 A 
ATOM     26  C   LIG    1        1.927   7.646   1.220  0.00  0.00    +0.010 A 
ATOM     27  C   LIG    1        2.124   6.278   1.212  0.00  0.00    +0.020 A 
ENDBRANCH  21  22
ENDBRANCH  20  21
ENDBRANCH   4  20
TORSDOF 7
