REMARK  Name = ZINCqH0000004PfN.0
REMARK                            x       y       z     vdW  Elec       q    Type
REMARK                         _______ _______ _______ _____ _____    ______ ____
ROOT
ATOM      1  C   LIG    1        3.256   0.965   1.499  0.00  0.00    +0.530 C 
ATOM      2  N   LIG    1        2.089   0.843   0.837  0.00  0.00    -0.610 N 
ATOM      3  C   LIG    1        1.474   1.875  -0.018  0.00  0.00    +0.250 C 
ATOM      4  C   LIG    1       -0.038   1.536  -0.022  0.00  0.00    +0.040 C 
ATOM      5  C   LIG    1       -0.010  -0.015  -0.029  0.00  0.00    +0.040 C 
ATOM      6  C   LIG    1        1.219  -0.342   0.845  0.00  0.00    +0.260 C 
ATOM      7  O   LIG    1        3.669   0.047   2.176  0.00  0.00    -0.510 OA
ENDROOT
BRANCH   6   8
ATOM      8  C   LIG    1        1.956  -1.524   0.270  0.00  0.00    -0.040 A 
ATOM      9  C   LIG    1        2.786  -1.355  -0.823  0.00  0.00    -0.050 A 
ATOM     10  C   LIG    1        3.469  -2.436  -1.350  0.00  0.00    +0.050 A 
ATOM     11  C   LIG    1        3.316  -3.690  -0.793  0.00  0.00    -0.080 A 
ATOM     12  C   LIG    1        2.478  -3.865   0.302  0.00  0.00    +0.220 A 
ATOM     13  C   LIG    1        1.798  -2.776   0.833  0.00  0.00    -0.060 A 
BRANCH  12  14
ATOM     14  N   LIG    1        2.321  -5.132   0.868  0.00  0.00    -0.640 N 
ATOM     15  C   LIG    1        2.938  -6.299   0.234  0.00  0.00    +0.280 C 
ATOM     16  C   LIG    1        1.539  -5.293   2.096  0.00  0.00    +0.280 C 
ENDBRANCH  12  14
ENDBRANCH   6   8
BRANCH   1  17
ATOM     17  C   LIG    1        4.049   2.243   1.400  0.00  0.00    +0.150 C 
BRANCH  17  22
ATOM     18  C   LIG    1        6.571   1.646   1.823  0.00  0.00    +0.040 A 
ATOM     19  N   LIG    1        7.344   1.725   2.867  0.00  0.00    -0.360 NA
ATOM     20  O   LIG    1        6.753   2.166   3.826  0.00  0.00    +0.100 OA
ATOM     21  C   LIG    1        5.477   2.450   3.530  0.00  0.00    -0.010 A 
ATOM     22  C   LIG    1        5.303   2.122   2.228  0.00  0.00    -0.180 A 
BRANCH  18  24
ATOM     23  C   LIG    1        7.462   2.317  -0.392  0.00  0.00    +0.040 C 
ATOM     24  C   LIG    1        6.953   1.147   0.453  0.00  0.00    +0.110 C 
ENDBRANCH  18  24
BRANCH  21  25
ATOM     25  C   LIG    1        4.440   3.019   4.464  0.00  0.00    +0.140 C 
ATOM     26  C   LIG    1        3.704   1.877   5.167  0.00  0.00    +0.040 C 
ENDBRANCH  21  25
ENDBRANCH  17  22
ENDBRANCH   1  17
TORSDOF 6
