REMARK  Name = ZINCAx0000000axe.0
REMARK                            x       y       z     vdW  Elec       q    Type
REMARK                         _______ _______ _______ _____ _____    ______ ____
ROOT
ATOM      1  O   LIG    1       -6.416   1.248  -9.361  0.00  0.00    -0.510 OA
ATOM      2  C   LIG    1       -6.996   1.729  -8.410  0.00  0.00    +0.510 C 
ATOM      3  N   LIG    1       -6.676   1.341  -7.160  0.00  0.00    -0.690 N 
ATOM      4  H   LIG    1       -7.140   1.725  -6.399  0.00  0.00    +0.420 HD
ENDROOT
BRANCH   2   5
ATOM      5  C   LIG    1       -8.064   2.750  -8.625  0.00  0.00    +0.510 C 
ATOM      6  N   LIG    1       -8.384   3.138  -9.876  0.00  0.00    -0.640 N 
ATOM      7  H   LIG    1       -7.969   2.705 -10.639  0.00  0.00    +0.430 HD
ATOM      8  O   LIG    1       -8.645   3.231  -7.674  0.00  0.00    -0.500 OA
BRANCH   6   9
ATOM      9  C   LIG    1       -9.314   4.163 -10.074  0.00  0.00    +0.070 A 
ATOM     10  C   LIG    1      -10.404   4.303  -9.216  0.00  0.00    +0.120 A 
ATOM     11  C   LIG    1      -11.296   5.335  -9.447  0.00  0.00    -0.020 A 
ATOM     12  C   LIG    1      -11.084   6.185 -10.525  0.00  0.00    +0.350 A 
ATOM     13  N   LIG    1      -10.041   6.020 -11.323  0.00  0.00    -0.480 NA
ATOM     14  C   LIG    1       -9.167   5.051 -11.130  0.00  0.00    +0.300 A 
BRANCH  12  15
ATOM     15  N   LIG    1      -11.982   7.227 -10.771  0.00  0.00    -0.440 N 
ATOM     16  C   LIG    1      -13.099   7.519 -10.046  0.00  0.00    +0.490 A 
ATOM     17  N   LIG    1      -13.701   8.555 -10.551  0.00  0.00    -0.470 NA
ATOM     18  C   LIG    1      -13.019   8.995 -11.640  0.00  0.00    +0.040 A 
ATOM     19  C   LIG    1      -13.219  10.044 -12.542  0.00  0.00    +0.060 A 
ATOM     20  C   LIG    1      -12.327  10.239 -13.572  0.00  0.00    +0.010 A 
ATOM     21  C   LIG    1      -11.231   9.402 -13.723  0.00  0.00    +0.030 A 
ATOM     22  C   LIG    1      -11.018   8.363 -12.841  0.00  0.00    +0.050 A 
ATOM     23  C   LIG    1      -11.907   8.150 -11.797  0.00  0.00    +0.060 A 
ENDBRANCH  12  15
ENDBRANCH   6   9
ENDBRANCH   2   5
BRANCH   3  24
ATOM     24  C   LIG    1       -5.628   0.339  -6.949  0.00  0.00    +0.340 C 
BRANCH  24  25
ATOM     25  C   LIG    1       -5.466   0.085  -5.472  0.00  0.00    -0.100 A 
ATOM     26  C   LIG    1       -6.212  -0.903  -4.856  0.00  0.00    +0.020 A 
ATOM     27  C   LIG    1       -6.067  -1.139  -3.501  0.00  0.00    +0.030 A 
ATOM     28  C   LIG    1       -5.176  -0.389  -2.759  0.00  0.00    +0.030 A 
ATOM     29  C   LIG    1       -4.425   0.604  -3.375  0.00  0.00    +0.140 A 
ATOM     30  C   LIG    1       -4.577   0.842  -4.735  0.00  0.00    +0.010 A 
BRANCH  29  31
ATOM     31  N   LIG    1       -3.521   1.365  -2.627  0.00  0.00    -0.670 N 
ATOM     32  H   LIG    1       -3.384   2.302  -2.839  0.00  0.00    +0.410 HD
ATOM     33  C   LIG    1       -2.841   0.798  -1.611  0.00  0.00    +0.510 C 
ATOM     34  O   LIG    1       -3.074  -0.348  -1.291  0.00  0.00    -0.490 OA
BRANCH  33  35
ATOM     35  C   LIG    1       -1.792   1.589  -0.872  0.00  0.00    +0.160 C 
ATOM     36  C   LIG    1       -0.625   1.925  -1.820  0.00  0.00    +0.020 C 
ATOM     37  C   LIG    1        0.612   1.294  -1.137  0.00  0.00    +0.020 C 
ATOM     38  C   LIG    1        0.139   1.157   0.333  0.00  0.00    +0.210 C 
ATOM     39  O   LIG    1       -1.255   0.801   0.204  0.00  0.00    -0.350 OA
ENDBRANCH  33  35
ENDBRANCH  29  31
ENDBRANCH  24  25
ENDBRANCH   3  24
TORSDOF 7
