REMARK  Name = ZINCpk00000eawFW.2
REMARK                            x       y       z     vdW  Elec       q    Type
REMARK                         _______ _______ _______ _____ _____    ______ ____
ROOT
ATOM      1  N   LIG    1        3.349  -0.822   0.011  0.00  0.00    -0.490 N 
ATOM      2  C   LIG    1        3.490  -1.624  -1.212  0.00  0.00    +0.170 C 
ATOM      3  C   LIG    1        4.944  -2.089  -1.349  0.00  0.00    +0.310 C 
ATOM      4  N   LIG    1        5.335  -2.773  -0.107  0.00  0.00    -0.600 N 
ATOM      5  C   LIG    1        5.096  -2.086   1.171  0.00  0.00    +0.290 C 
ATOM      6  C   LIG    1        5.897  -3.998  -0.140  0.00  0.00    +0.540 C 
ATOM      7  O   LIG    1        6.274  -4.520   0.888  0.00  0.00    -0.540 OA
ATOM      8  C   LIG    1        3.636  -1.622   1.209  0.00  0.00    +0.180 C 
ENDROOT
BRANCH   6   9
ATOM      9  C   LIG    1        6.057  -4.719  -1.453  0.00  0.00    +0.070 C 
ATOM     10  C   LIG    1        4.693  -5.252  -1.929  0.00  0.00    +0.060 C 
ATOM     11  C   LIG    1        4.454  -4.583  -3.301  0.00  0.00    +0.160 C 
ATOM     12  C   LIG    1        5.885  -4.199  -3.753  0.00  0.00    +0.170 C 
ATOM     13  C   LIG    1        7.043  -5.878  -1.295  0.00  0.00    +0.070 C 
ATOM     14  N   LIG    1        6.540  -3.779  -2.488  0.00  0.00    -0.500 NA
ATOM     15  C   LIG    1        8.002  -3.834  -2.609  0.00  0.00    +0.200 C 
BRANCH  11  16
ATOM     16  O   LIG    1        3.865  -5.507  -4.219  0.00  0.00    -0.380 OA
ATOM     17  C   LIG    1        3.019  -4.897  -5.196  0.00  0.00    +0.200 C 
ENDBRANCH  11  16
ENDBRANCH   6   9
BRANCH   1  23
ATOM     18  C   LIG    1        1.936   1.142   0.048  0.00  0.00    +0.150 A 
ATOM     19  C   LIG    1        0.675   1.709   0.124  0.00  0.00    -0.080 A 
ATOM     20  C   LIG    1       -0.442   0.900   0.237  0.00  0.00    +0.050 A 
ATOM     21  C   LIG    1       -0.303  -0.474   0.275  0.00  0.00    -0.030 A 
ATOM     22  C   LIG    1        0.953  -1.048   0.201  0.00  0.00    +0.010 A 
ATOM     23  C   LIG    1        2.076  -0.244   0.087  0.00  0.00    +0.050 A 
BRANCH  18  25
ATOM     24  C   LIG    1        2.814   3.348  -0.097  0.00  0.00    +0.220 C 
ATOM     25  O   LIG    1        3.034   1.936  -0.063  0.00  0.00    -0.290 OA
ENDBRANCH  18  25
ENDBRANCH   1  23
TORSDOF 4
