REMARK  Name = ZINCrH00000tj16o.0
REMARK                            x       y       z     vdW  Elec       q    Type
REMARK                         _______ _______ _______ _____ _____    ______ ____
ROOT
ATOM      1  O   LIG    1        2.420  -4.058  -0.041  0.00  0.00    -0.430 OA
ATOM      2  C   LIG    1        1.406  -4.723  -0.034  0.00  0.00    +0.510 C 
ATOM      3  N   LIG    1        0.202  -4.117  -0.020  0.00  0.00    -0.650 N 
ATOM      4  H   LIG    1       -0.609  -4.649  -0.014  0.00  0.00    +0.420 HD
ENDROOT
BRANCH   3   5
ATOM      5  C   LIG    1        0.123  -2.724  -0.012  0.00  0.00    +0.410 A 
ATOM      6  N   LIG    1        1.233  -2.004  -0.020  0.00  0.00    -0.460 NA
ATOM      7  C   LIG    1        1.203  -0.685  -0.013  0.00  0.00    +0.390 A 
ATOM      8  C   LIG    1        0.002  -0.004   0.002  0.00  0.00    -0.260 A 
ATOM      9  C   LIG    1       -1.186  -0.722   0.015  0.00  0.00    +0.180 A 
ATOM     10  C   LIG    1       -1.123  -2.105   0.002  0.00  0.00    -0.130 A 
ATOM     11 CL   LIG    1       -2.577  -3.053   0.011  0.00  0.00    -0.030 Cl
BRANCH   8  12
ATOM     12  C   LIG    1       -0.018   1.503   0.010  0.00  0.00    +0.520 C 
ATOM     13  F   LIG    1       -0.673   1.954   1.161  0.00  0.00    -0.170 F 
ATOM     14  F   LIG    1       -0.695   1.966  -1.123  0.00  0.00    -0.170 F 
ATOM     15  F   LIG    1        1.294   1.987   0.000  0.00  0.00    -0.170 F 
ENDBRANCH   8  12
ENDBRANCH   3   5
BRANCH   2  16
ATOM     16  C   LIG    1        1.491  -6.227  -0.042  0.00  0.00    +0.270 C 
BRANCH  16  17
ATOM     17  O   LIG    1        2.886  -6.633  -0.057  0.00  0.00    -0.330 OA
BRANCH  17  18
ATOM     18  C   LIG    1        3.137  -7.951  -0.066  0.00  0.00    +0.480 C 
ATOM     19  O   LIG    1        2.222  -8.741  -0.061  0.00  0.00    -0.500 OA
BRANCH  18  20
ATOM     20  C   LIG    1        4.560  -8.447  -0.082  0.00  0.00    +0.130 C 
BRANCH  20  21
ATOM     21  C   LIG    1        4.567  -9.977  -0.089  0.00  0.00    +0.220 C 
BRANCH  21  22
ATOM     22  O   LIG    1        5.916 -10.447  -0.104  0.00  0.00    -0.310 OA
BRANCH  22  23
ATOM     23  C   LIG    1        6.100 -11.794  -0.112  0.00  0.00    +0.130 A 
ATOM     24  C   LIG    1        5.005 -12.645  -0.100  0.00  0.00    -0.080 A 
ATOM     25  C   LIG    1        5.194 -14.013  -0.114  0.00  0.00    +0.050 A 
ATOM     26  C   LIG    1        6.475 -14.535  -0.129  0.00  0.00    -0.040 A 
ATOM     27  C   LIG    1        7.568 -13.688  -0.135  0.00  0.00    +0.050 A 
ATOM     28  C   LIG    1        7.384 -12.319  -0.127  0.00  0.00    -0.020 A 
ENDBRANCH  22  23
ENDBRANCH  21  22
ENDBRANCH  20  21
ENDBRANCH  18  20
ENDBRANCH  17  18
ENDBRANCH  16  17
ENDBRANCH   2  16
TORSDOF 9
