REMARK  Name = ZINCrH00000No4C6.2
REMARK                            x       y       z     vdW  Elec       q    Type
REMARK                         _______ _______ _______ _____ _____    ______ ____
ROOT
ATOM      1  N   LIG    1       -3.126   0.770  -1.359  0.00  0.00    -0.510 NA
ENDROOT
BRANCH   1   2
ATOM      2  C   LIG    1       -4.163  -0.269  -1.399  0.00  0.00    +0.280 C 
BRANCH   2   6
ATOM      3  C   LIG    1       -4.510  -1.518  -4.923  0.00  0.00    +0.310 A 
ATOM      4  N   LIG    1       -5.483  -0.689  -5.177  0.00  0.00    -0.530 NA
ATOM      5  S   LIG    1       -5.755   0.211  -3.765  0.00  0.00    +0.280 S 
ATOM      6  C   LIG    1       -4.531  -0.557  -2.831  0.00  0.00    -0.140 A 
ATOM      7  C   LIG    1       -3.966  -1.468  -3.653  0.00  0.00    -0.010 A 
BRANCH   3   9
ATOM      8  C   LIG    1       -4.681  -2.351  -7.144  0.00  0.00    +0.260 C 
ATOM      9  O   LIG    1       -4.050  -2.386  -5.862  0.00  0.00    -0.290 OA
ENDBRANCH   3   9
ENDBRANCH   2   6
ENDBRANCH   1   2
BRANCH   1  10
ATOM     10  C   LIG    1       -3.619   2.028  -1.936  0.00  0.00    +0.170 C 
BRANCH  10  11
ATOM     11  C   LIG    1       -2.432   2.922  -2.301  0.00  0.00    +0.030 C 
BRANCH  11  12
ATOM     12  C   LIG    1       -1.592   2.238  -3.382  0.00  0.00    -0.030 C 
ATOM     13  C   LIG    1       -0.221   1.696  -2.974  0.00  0.00    +0.020 C 
ATOM     14  C   LIG    1       -0.320   2.951  -3.844  0.00  0.00    -0.010 C 
ENDBRANCH  11  12
BRANCH  11  15
ATOM     15  C   LIG    1       -2.946   4.263  -2.826  0.00  0.00    +0.180 C 
BRANCH  15  16
ATOM     16  O   LIG    1       -3.642   4.949  -1.783  0.00  0.00    -0.570 OA
ATOM     17  H   LIG    1       -4.061   5.773  -2.066  0.00  0.00    +0.380 HD
ENDBRANCH  15  16
ENDBRANCH  11  15
ENDBRANCH  10  11
ENDBRANCH   1  10
BRANCH   1  18
ATOM     18  C   LIG    1       -2.638   0.975   0.011  0.00  0.00    +0.270 C 
BRANCH  18  19
ATOM     19  C   LIG    1       -3.766   1.472   0.877  0.00  0.00    -0.110 A 
ATOM     20  C   LIG    1       -3.949   2.808   1.064  0.00  0.00    +0.040 A 
ATOM     21  C   LIG    1       -4.992   3.284   1.857  0.00  0.00    +0.030 A 
ATOM     22  C   LIG    1       -5.853   2.428   2.471  0.00  0.00    +0.050 A 
ATOM     23  C   LIG    1       -5.694   1.041   2.307  0.00  0.00    +0.120 A 
ATOM     24  N   LIG    1       -6.525   0.176   2.898  0.00  0.00    -0.470 NA
ATOM     25  C   LIG    1       -6.382  -1.118   2.748  0.00  0.00    +0.290 A 
ATOM     26  C   LIG    1       -5.360  -1.657   1.969  0.00  0.00    -0.030 A 
ATOM     27  C   LIG    1       -4.476  -0.829   1.337  0.00  0.00    +0.070 A 
ATOM     28  C   LIG    1       -4.633   0.559   1.501  0.00  0.00    -0.090 A 
ENDBRANCH  18  19
ENDBRANCH   1  18
TORSDOF 10
