REMARK  Name = ZINCpe00000MJLDi.0
REMARK                            x       y       z     vdW  Elec       q    Type
REMARK                         _______ _______ _______ _____ _____    ______ ____
ROOT
ATOM      1  C   LIG    1        0.039   0.003   0.097  0.00  0.00    +0.500 C 
ATOM      2  N   LIG    1        1.069  -0.595   0.729  0.00  0.00    -0.610 N 
ATOM      3  C   LIG    1        2.090   0.200   1.428  0.00  0.00    +0.270 C 
ATOM      4  C   LIG    1        2.243  -0.357   2.852  0.00  0.00    +0.190 C 
ATOM      5  N   LIG    1        2.519  -1.798   2.782  0.00  0.00    -0.480 N 
ATOM      6  C   LIG    1        1.395  -2.527   2.179  0.00  0.00    +0.180 C 
ATOM      7  C   LIG    1        1.204  -2.060   0.733  0.00  0.00    +0.290 C 
ATOM      8  O   LIG    1       -0.848  -0.669  -0.386  0.00  0.00    -0.520 OA
ENDROOT
BRANCH   1  15
ATOM      9  C   LIG    1       -0.015   5.898   1.821  0.00  0.00    +0.100 C 
ATOM     10  C   LIG    1        0.172   4.412   1.985  0.00  0.00    +0.520 C 
ATOM     11  N   LIG    1       -0.522   3.555   1.210  0.00  0.00    -0.600 N 
ATOM     12  C   LIG    1       -1.464   4.056   0.200  0.00  0.00    +0.260 C 
ATOM     13  C   LIG    1       -1.111   3.435  -1.155  0.00  0.00    +0.030 C 
ATOM     14  C   LIG    1       -1.083   1.911  -1.022  0.00  0.00    +0.080 C 
ATOM     15  C   LIG    1       -0.009   1.505  -0.010  0.00  0.00    +0.110 C 
ATOM     16  C   LIG    1       -0.350   2.104   1.359  0.00  0.00    +0.260 C 
ATOM     17  O   LIG    1        0.947   3.986   2.816  0.00  0.00    -0.550 OA
BRANCH  15  18
ATOM     18  O   LIG    1        1.262   1.994  -0.441  0.00  0.00    -0.540 OA
ATOM     19  H   LIG    1        2.008   1.659   0.076  0.00  0.00    +0.380 HD
ENDBRANCH  15  18
ENDBRANCH   1  15
BRANCH   5  20
ATOM     20  C   LIG    1        2.829  -2.311   4.045  0.00  0.00    +0.100 A 
ATOM     21  C   LIG    1        2.097  -3.370   4.565  0.00  0.00    +0.000 A 
ATOM     22  C   LIG    1        2.408  -3.878   5.811  0.00  0.00    +0.010 A 
ATOM     23  C   LIG    1        3.442  -3.325   6.547  0.00  0.00    +0.070 A 
ATOM     24  C   LIG    1        4.170  -2.265   6.033  0.00  0.00    +0.010 A 
ATOM     25  F   LIG    1        3.742  -3.820   7.767  0.00  0.00    -0.140 F 
ATOM     26  C   LIG    1        3.866  -1.757   4.785  0.00  0.00    +0.030 A 
ENDBRANCH   5  20
TORSDOF 3
