REMARK  Name = ZINCnE00000eJY4W.0
REMARK                            x       y       z     vdW  Elec       q    Type
REMARK                         _______ _______ _______ _____ _____    ______ ____
ROOT
ATOM      1  N   LIG    1        2.894   3.422   0.881  0.00  0.00    -0.670 N 
ATOM      2  H   LIG    1        3.459   2.654   1.056  0.00  0.00    +0.430 HD
ENDROOT
BRANCH   1   3
ATOM      3  C   LIG    1        3.188   4.645   1.460  0.00  0.00    +0.340 A 
ATOM      4  N   LIG    1        2.532   5.753   1.321  0.00  0.00    -0.350 NA
ATOM      5  N   LIG    1        2.976   6.892   1.982  0.00  0.00    -0.310 N 
ATOM      6  C   LIG    1        2.625   8.219   2.129  0.00  0.00    +0.420 A 
ATOM      7  N   LIG    1        3.465   8.821   2.913  0.00  0.00    -0.420 NA
ATOM      8  CA  LIG    1        4.410   7.933   3.324  0.00  0.00    +0.050 A 
ATOM      9  C   LIG    1        4.096   6.716   2.733  0.00  0.00    -0.080 A 
ATOM     10  S   LIG    1        4.537   5.015   2.549  0.00  0.00    +0.120 S 
BRANCH   8  11
ATOM     11  C   LIG    1        5.498   8.197   4.186  0.00  0.00    +0.550 C 
ATOM     12  OXT LIG    1        6.280   7.299   4.478  0.00  0.00    -0.690 OA
ATOM     13  O   LIG    1        5.660   9.323   4.641  0.00  0.00    -0.670 OA
ENDBRANCH   8  11
ENDBRANCH   1   3
BRANCH   1  15
ATOM     14  C   LIG    1        2.110   3.704  -1.419  0.00  0.00    +0.060 C 
ATOM     15  C   LIG    1        1.728   3.288   0.003  0.00  0.00    +0.360 C 
BRANCH  15  16
ATOM     16  C   LIG    1        1.264   1.855   0.000  0.00  0.00    +0.030 A 
ATOM     17  C   LIG    1       -0.018   1.464   0.010  0.00  0.00    -0.030 A 
ATOM     18  C   LIG    1        0.002  -0.004   0.002  0.00  0.00    -0.130 A 
ATOM     19  C   LIG    1       -0.981  -0.992   0.006  0.00  0.00    +0.060 A 
ATOM     20  C   LIG    1       -0.613  -2.319  -0.005  0.00  0.00    -0.010 A 
ATOM     21  C   LIG    1        0.729  -2.672  -0.020  0.00  0.00    +0.050 A 
ATOM     22  C   LIG    1        1.711  -1.705  -0.023  0.00  0.00    +0.020 A 
ATOM     23  C   LIG    1        1.361  -0.361  -0.013  0.00  0.00    +0.060 A 
ATOM     24  O   LIG    1        2.075   0.783  -0.014  0.00  0.00    -0.190 OA
ENDBRANCH  15  16
ENDBRANCH   1  15
TORSDOF 4
