REMARK  Name = ZINCrH000004tWIO.0
REMARK                            x       y       z     vdW  Elec       q    Type
REMARK                         _______ _______ _______ _____ _____    ______ ____
ROOT
ATOM      1  O   LIG    1       -0.837  -5.644   5.051  0.00  0.00    -0.510 OA
ATOM      2  C   LIG    1       -0.587  -4.648   4.405  0.00  0.00    +0.510 C 
ATOM      3  N   LIG    1       -1.574  -3.789   4.082  0.00  0.00    -0.670 N 
ATOM      4  H   LIG    1       -1.365  -2.960   3.625  0.00  0.00    +0.410 HD
ENDROOT
BRANCH   3   5
ATOM      5  C   LIG    1       -2.901  -4.094   4.407  0.00  0.00    +0.140 A 
ATOM      6  C   LIG    1       -3.930  -3.710   3.558  0.00  0.00    -0.010 A 
ATOM      7  C   LIG    1       -5.238  -4.018   3.878  0.00  0.00    +0.050 A 
ATOM      8  C   LIG    1       -5.524  -4.697   5.048  0.00  0.00    -0.090 A 
ATOM      9  C   LIG    1       -4.501  -5.075   5.898  0.00  0.00    +0.020 A 
ATOM     10  C   LIG    1       -3.191  -4.776   5.581  0.00  0.00    +0.020 A 
BRANCH   8  11
ATOM     11  C   LIG    1       -6.952  -5.025   5.397  0.00  0.00    +0.230 C 
BRANCH  11  12
ATOM     12  N   LIG    1       -7.529  -3.926   6.183  0.00  0.00    -0.530 NA
ATOM     13  C   LIG    1       -6.872  -3.814   7.494  0.00  0.00    +0.140 C 
ATOM     14  C   LIG    1       -7.461  -2.623   8.254  0.00  0.00    +0.220 C 
ATOM     15  O   LIG    1       -8.877  -2.791   8.370  0.00  0.00    -0.390 OA
ATOM     16  C   LIG    1       -9.549  -2.902   7.113  0.00  0.00    +0.220 C 
ATOM     17  C   LIG    1       -8.981  -4.096   6.341  0.00  0.00    +0.150 C 
ENDBRANCH  11  12
ENDBRANCH   8  11
ENDBRANCH   3   5
BRANCH   2  18
ATOM     18  C   LIG    1        0.828  -4.371   3.965  0.00  0.00    +0.120 C 
BRANCH  18  19
ATOM     19  C   LIG    1        1.731  -5.475   4.451  0.00  0.00    -0.070 A 
ATOM     20  C   LIG    1        2.341  -5.374   5.687  0.00  0.00    +0.060 A 
ATOM     21  C   LIG    1        3.170  -6.387   6.133  0.00  0.00    +0.020 A 
ATOM     22  C   LIG    1        3.384  -7.502   5.345  0.00  0.00    +0.070 A 
ATOM     23  C   LIG    1        2.777  -7.600   4.107  0.00  0.00    -0.180 A 
ATOM     24  C   LIG    1        1.948  -6.588   3.661  0.00  0.00    +0.080 A 
BRANCH  23  25
ATOM     25  C   LIG    1        3.015  -8.814   3.245  0.00  0.00    +0.510 C 
ATOM     26  F   LIG    1        1.885  -9.054   2.457  0.00  0.00    -0.180 F 
ATOM     27  F   LIG    1        3.259  -9.924   4.061  0.00  0.00    -0.180 F 
ATOM     28  F   LIG    1        4.121  -8.590   2.419  0.00  0.00    -0.180 F 
ENDBRANCH  23  25
ENDBRANCH  18  19
ENDBRANCH   2  18
TORSDOF 6
