REMARK  Name = ZINCfA000001yMp1.0
REMARK                            x       y       z     vdW  Elec       q    Type
REMARK                         _______ _______ _______ _____ _____    ______ ____
ROOT
ATOM      1  C   LIG    1        3.733  -0.574  -0.036  0.00  0.00    +0.350 C 
ENDROOT
BRANCH   1   2
ATOM      2  C   LIG    1        2.383   0.096  -0.020  0.00  0.00    -0.150 A 
ATOM      3  C   LIG    1        1.224  -0.664  -0.013  0.00  0.00    +0.100 A 
ATOM      4  C   LIG    1        0.002  -0.004   0.002  0.00  0.00    +0.080 A 
ATOM      5  C   LIG    1       -0.017   1.380   0.010  0.00  0.00    +0.310 A 
ATOM      6  N   LIG    1        1.108   2.069   0.003  0.00  0.00    -0.420 NA
ATOM      7  F   LIG    1       -1.153  -0.704   0.009  0.00  0.00    -0.100 F 
ATOM      8  C   LIG    1        2.285   1.476  -0.012  0.00  0.00    +0.120 A 
ATOM      9 BR   LIG    1        3.860   2.524  -0.022  0.00  0.00    +0.020 Br
ENDBRANCH   1   2
BRANCH   1  10
ATOM     10  N   LIG    1        4.319  -0.463  -1.379  0.00  0.00    -0.500 N 
ATOM     11  H   LIG    1        4.423   0.511  -1.621  0.00  0.00    +0.420 HD
ATOM     12  H   LIG    1        3.712  -0.913  -2.048  0.00  0.00    +0.430 HD
BRANCH  10  14
ATOM     13  C   LIG    1        5.612  -2.516  -0.779  0.00  0.00    +0.130 C 
ATOM     14  C   LIG    1        5.635  -1.115  -1.395  0.00  0.00    +0.020 C 
ATOM     15  C   LIG    1        6.770  -0.225  -0.862  0.00  0.00    +0.060 C 
ATOM     16  C   LIG    1        7.642  -0.795  -1.993  0.00  0.00    +0.070 C 
ATOM     17  C   LIG    1        6.336  -1.055  -2.762  0.00  0.00    +0.070 C 
ENDBRANCH  10  14
ENDBRANCH   1  10
TORSDOF 3
