REMARK  Name = ZINCrD00000F5LkV.0
REMARK                            x       y       z     vdW  Elec       q    Type
REMARK                         _______ _______ _______ _____ _____    ______ ____
ROOT
ATOM      1  N   LIG    1       -2.360   1.713   0.906  0.00  0.00    -0.640 NA
ATOM      2  C   LIG    1       -3.539   2.204   0.504  0.00  0.00    +0.470 A 
ATOM      3  C   LIG    1       -4.685   1.397   0.538  0.00  0.00    -0.010 A 
ATOM      4  C   LIG    1       -5.881   1.916   0.131  0.00  0.00    +0.130 A 
ATOM      5  C   LIG    1       -5.938   3.238  -0.324  0.00  0.00    -0.060 A 
ATOM      6  C   LIG    1       -4.816   3.997  -0.352  0.00  0.00    +0.290 A 
ATOM      7  N   LIG    1       -3.627   3.490   0.057  0.00  0.00    -0.470 N 
ENDROOT
BRANCH   1   9
ATOM      8  O   LIG    1       -1.637   3.353   2.203  0.00  0.00    -0.540 OA
ATOM      9  C   LIG    1       -1.401   2.539   1.325  0.00  0.00    +0.560 C 
BRANCH   9  10
ATOM     10  C   LIG    1       -0.052   2.470   0.726  0.00  0.00    -0.270 A 
ATOM     11  C   LIG    1        0.964   3.319   1.136  0.00  0.00    +0.220 A 
ATOM     12  C   LIG    1        2.221   3.214   0.485  0.00  0.00    -0.160 A 
ATOM     13  C   LIG    1        3.343   3.883   0.993  0.00  0.00    +0.100 A 
ATOM     14  C   LIG    1        4.559   3.721   0.393  0.00  0.00    +0.000 A 
ATOM     15  C   LIG    1        4.692   2.906  -0.723  0.00  0.00    +0.090 A 
ATOM     16  C   LIG    1        3.597   2.258  -1.254  0.00  0.00    +0.010 A 
ATOM     17  C   LIG    1        2.349   2.414  -0.666  0.00  0.00    +0.150 A 
ATOM     18  O   LIG    1        1.262   1.805  -1.197  0.00  0.00    -0.280 OA
ATOM     19  C   LIG    1        0.266   1.499  -0.336  0.00  0.00    +0.510 A 
ATOM     20  O   LIG    1       -0.348   0.453  -0.434  0.00  0.00    -0.400 OA
ENDBRANCH   9  10
ENDBRANCH   1   9
BRANCH   7  21
ATOM     21  C   LIG    1       -2.427   4.329   0.017  0.00  0.00    +0.340 C 
BRANCH  21  22
ATOM     22  C   LIG    1       -2.520   5.285  -1.145  0.00  0.00    -0.120 A 
ATOM     23  C   LIG    1       -2.008   4.927  -2.377  0.00  0.00    +0.030 A 
ATOM     24  C   LIG    1       -2.098   5.802  -3.444  0.00  0.00    +0.020 A 
ATOM     25  C   LIG    1       -2.692   7.039  -3.275  0.00  0.00    +0.030 A 
ATOM     26  C   LIG    1       -3.200   7.399  -2.041  0.00  0.00    +0.010 A 
ATOM     27  C   LIG    1       -3.114   6.522  -0.975  0.00  0.00    +0.020 A 
ENDBRANCH  21  22
ENDBRANCH   7  21
TORSDOF 4
