REMARK  Name = ZINCrD000000C9di.0
REMARK                            x       y       z     vdW  Elec       q    Type
REMARK                         _______ _______ _______ _____ _____    ______ ____
ROOT
ATOM      1  C   LIG    1       -2.864  -0.648  -3.364  0.00  0.00    -0.140 A 
ATOM      2  C   LIG    1       -2.310  -1.743  -4.029  0.00  0.00    +0.060 A 
ATOM      3  C   LIG    1       -1.391  -2.546  -3.384  0.00  0.00    +0.010 A 
ATOM      4  C   LIG    1       -1.020  -2.267  -2.080  0.00  0.00    +0.080 A 
ATOM      5  C   LIG    1       -1.566  -1.183  -1.415  0.00  0.00    -0.130 A 
ATOM      6  C   LIG    1       -2.489  -0.376  -2.047  0.00  0.00    +0.110 A 
ENDROOT
BRANCH   1   8
ATOM      7  O   LIG    1       -4.329   1.169  -3.468  0.00  0.00    -0.510 OA
ATOM      8  C   LIG    1       -3.848   0.216  -4.050  0.00  0.00    +0.560 C 
ATOM      9  N   LIG    1       -4.211  -0.052  -5.319  0.00  0.00    -0.670 N 
ATOM     10  H   LIG    1       -3.779  -0.771  -5.806  0.00  0.00    +0.410 HD
BRANCH   9  11
ATOM     11  C   LIG    1       -5.212   0.706  -5.935  0.00  0.00    +0.140 A 
ATOM     12  C   LIG    1       -6.084   0.107  -6.835  0.00  0.00    -0.010 A 
ATOM     13  C   LIG    1       -7.074   0.858  -7.438  0.00  0.00    +0.030 A 
ATOM     14  C   LIG    1       -7.192   2.206  -7.154  0.00  0.00    -0.010 A 
ATOM     15  C   LIG    1       -6.322   2.806  -6.262  0.00  0.00    +0.030 A 
ATOM     16  C   LIG    1       -5.333   2.061  -5.652  0.00  0.00    +0.020 A 
ENDBRANCH   9  11
ENDBRANCH   1   8
BRANCH   5  17
ATOM     17  C   LIG    1       -1.155  -0.888   0.004  0.00  0.00    +0.440 C 
BRANCH  17  18
ATOM     18  N   LIG    1        0.004   0.009   0.001  0.00  0.00    -0.450 N 
ATOM     19  N   LIG    1        1.354  -0.371  -0.016  0.00  0.00    -0.240 NA
ATOM     20  C   LIG    1        2.072   0.718  -0.014  0.00  0.00    +0.320 A 
ATOM     21  O   LIG    1        1.249   1.789   0.003  0.00  0.00    -0.260 OA
ATOM     22  C   LIG    1       -0.024   1.358   0.012  0.00  0.00    +0.610 A 
ATOM     23  O   LIG    1       -1.020   2.058   0.023  0.00  0.00    -0.470 OA
BRANCH  20  24
ATOM     24  C   LIG    1        3.543   0.770  -0.028  0.00  0.00    +0.020 A 
ATOM     25  C   LIG    1        4.303   1.901  -0.032  0.00  0.00    +0.050 A 
ATOM     26  C   LIG    1        5.648   1.486  -0.045  0.00  0.00    -0.060 A 
ATOM     27  C   LIG    1        5.645   0.138  -0.056  0.00  0.00    +0.230 A 
ATOM     28  O   LIG    1        4.373  -0.291  -0.046  0.00  0.00    -0.150 OA
ENDBRANCH  20  24
ENDBRANCH  17  18
ENDBRANCH   5  17
TORSDOF 5
