REMARK  Name = ZINCpk00000xI94O.0
REMARK                            x       y       z     vdW  Elec       q    Type
REMARK                         _______ _______ _______ _____ _____    ______ ____
ROOT
ATOM      1  O   LIG    1        0.628   8.206  -1.254  0.00  0.00    -0.230 OA
ENDROOT
BRANCH   1   3
ATOM      2  C   LIG    1        0.191   6.046  -0.443  0.00  0.00    +0.290 C 
ATOM      3  N   LIG    1        0.089   7.326  -0.284  0.00  0.00    -0.330 NA
BRANCH   2   7
ATOM      4  C   LIG    1       -1.428   3.411   2.471  0.00  0.00    +0.130 A 
ATOM      5  C   LIG    1       -1.537   4.783   2.640  0.00  0.00    -0.040 A 
ATOM      6  C   LIG    1       -1.013   5.641   1.696  0.00  0.00    +0.070 A 
ATOM      7  C   LIG    1       -0.370   5.129   0.567  0.00  0.00    -0.060 A 
ATOM      8  C   LIG    1       -0.255   3.747   0.400  0.00  0.00    +0.000 A 
ATOM      9  C   LIG    1       -0.787   2.893   1.346  0.00  0.00    +0.100 A 
BRANCH   9  10
ATOM     10  O   LIG    1       -0.682   1.547   1.184  0.00  0.00    -0.300 OA
ATOM     11  C   LIG    1       -0.013   1.086   0.008  0.00  0.00    +0.240 C 
ENDBRANCH   9  10
BRANCH   4  12
ATOM     12  O   LIG    1       -1.946   2.569   3.404  0.00  0.00    -0.300 OA
BRANCH  12  14
ATOM     13  C   LIG    1       -3.105   2.070   5.465  0.00  0.00    +0.070 C 
ATOM     14  C   LIG    1       -2.589   3.167   4.531  0.00  0.00    +0.170 C 
ENDBRANCH  12  14
ENDBRANCH   4  12
ENDBRANCH   2   7
ENDBRANCH   1   3
BRANCH   1  15
ATOM     15  C   LIG    1        0.443   9.590  -0.950  0.00  0.00    +0.330 C 
BRANCH  15  16
ATOM     16  C   LIG    1        1.052  10.430  -2.042  0.00  0.00    +0.430 A 
ATOM     17  N   LIG    1        0.321  10.787  -3.083  0.00  0.00    -0.620 NA
ATOM     18  C   LIG    1        0.855  11.530  -4.051  0.00  0.00    +0.630 A 
ATOM     19  N   LIG    1        2.125  11.911  -3.968  0.00  0.00    -0.650 NA
ATOM     20  C   LIG    1        2.857  11.550  -2.920  0.00  0.00    +0.630 A 
ATOM     21  N   LIG    1        2.314  10.811  -1.954  0.00  0.00    -0.620 NA
BRANCH  20  22
ATOM     22  N   LIG    1        4.176  11.943  -2.830  0.00  0.00    -0.800 N 
ATOM     23  H   LIG    1        4.710  11.679  -2.064  0.00  0.00    +0.420 HD
ATOM     24  H   LIG    1        4.570  12.484  -3.532  0.00  0.00    +0.420 HD
ENDBRANCH  20  22
BRANCH  18  25
ATOM     25  N   LIG    1        0.091  11.903  -5.137  0.00  0.00    -0.580 N 
ATOM     26  C   LIG    1        0.680  12.720  -6.201  0.00  0.00    +0.310 C 
ATOM     27  C   LIG    1       -1.310  11.483  -5.227  0.00  0.00    +0.310 C 
ENDBRANCH  18  25
ENDBRANCH  15  16
ENDBRANCH   1  15
TORSDOF 9
