REMARK  Name = ZINCpe000027pGZg.0
REMARK                            x       y       z     vdW  Elec       q    Type
REMARK                         _______ _______ _______ _____ _____    ______ ____
ROOT
ATOM      1  C   LIG    1        1.126  -0.038   5.401  0.00  0.00    +0.370 C 
ATOM      2  N   LIG    1        0.939   0.848   4.249  0.00  0.00    -0.280 N 
ATOM      3  C   LIG    1       -0.033   0.713   3.321  0.00  0.00    +0.170 A 
ATOM      4  C   LIG    1        0.128   1.714   2.424  0.00  0.00    -0.180 A 
ATOM      5  C   LIG    1        1.244   2.454   2.880  0.00  0.00    -0.010 A 
ATOM      6  N   LIG    1        1.671   1.868   3.980  0.00  0.00    -0.260 NA
ENDROOT
BRANCH   5   7
ATOM      7  C   LIG    1        1.820   3.656   2.243  0.00  0.00    +0.600 C 
ATOM      8  N   LIG    1        2.892   4.262   2.793  0.00  0.00    -0.720 N 
ATOM      9  H   LIG    1        3.284   3.909   3.606  0.00  0.00    +0.410 HD
ATOM     10  O   LIG    1        1.329   4.099   1.223  0.00  0.00    -0.520 OA
BRANCH   8  11
ATOM     11  C   LIG    1        3.463   5.454   2.161  0.00  0.00    +0.310 C 
BRANCH  11  12
ATOM     12  C   LIG    1        4.643   5.932   2.967  0.00  0.00    -0.040 C 
ATOM     13  C   LIG    1        5.823   6.092   2.385  0.00  0.00    +0.040 C 
BRANCH  13  14
ATOM     14  C   LIG    1        6.980   6.561   3.175  0.00  0.00    -0.110 A 
ATOM     15  C   LIG    1        8.231   6.734   2.572  0.00  0.00    +0.080 A 
ATOM     16  C   LIG    1        9.282   7.176   3.357  0.00  0.00    -0.030 A 
ATOM     17  C   LIG    1        9.065   7.429   4.699  0.00  0.00    +0.260 A 
ATOM     18  N   LIG    1        7.875   7.257   5.241  0.00  0.00    -0.480 NA
ATOM     19  C   LIG    1        6.843   6.845   4.535  0.00  0.00    +0.270 A 
ENDBRANCH  13  14
ENDBRANCH  11  12
ENDBRANCH   8  11
ENDBRANCH   5   7
BRANCH   4  20
ATOM     20  C   LIG    1       -0.710   1.985   1.201  0.00  0.00    +0.300 C 
BRANCH  20  21
ATOM     21  N   LIG    1       -0.018   1.475   0.010  0.00  0.00    -0.500 NA
ATOM     22  C   LIG    1        0.002  -0.004   0.002  0.00  0.00    +0.160 C 
ATOM     23  C   LIG    1        1.333  -0.434  -0.643  0.00  0.00    -0.020 C 
ATOM     24  C   LIG    1        2.070   0.885  -0.966  0.00  0.00    +0.160 C 
ATOM     25  C   LIG    1        1.405   1.899  -0.001  0.00  0.00    +0.210 C 
BRANCH  24  26
ATOM     26  O   LIG    1        3.467   0.764  -0.694  0.00  0.00    -0.560 OA
ATOM     27  H   LIG    1        3.913   0.086  -1.221  0.00  0.00    +0.380 HD
ENDBRANCH  24  26
ENDBRANCH  20  21
ENDBRANCH   4  20
TORSDOF 7
