REMARK  Name = ZINCqH0000037JT3.0
REMARK                            x       y       z     vdW  Elec       q    Type
REMARK                         _______ _______ _______ _____ _____    ______ ____
ROOT
ATOM      1  N   LIG    1       -6.590   3.044  -2.663  0.00  0.00    -0.680 N 
ATOM      2  H   LIG    1       -6.203   3.919  -2.821  0.00  0.00    +0.410 HD
ATOM      3  C   LIG    1       -5.987   2.183  -1.819  0.00  0.00    +0.710 C 
ATOM      4  N   LIG    1       -4.899   2.570  -1.125  0.00  0.00    -0.740 N 
ATOM      5  H   LIG    1       -4.548   3.468  -1.234  0.00  0.00    +0.400 HD
ATOM      6  O   LIG    1       -6.426   1.058  -1.683  0.00  0.00    -0.570 OA
ENDROOT
BRANCH   1  13
ATOM      7  C   LIG    1       -8.542   5.056  -3.124  0.00  0.00    +0.100 C 
ATOM      8  C   LIG    1       -8.752   3.628  -3.557  0.00  0.00    -0.120 A 
ATOM      9  C   LIG    1       -9.915   3.269  -4.200  0.00  0.00    +0.100 A 
ATOM     10  C   LIG    1      -10.111   1.943  -4.597  0.00  0.00    -0.160 A 
ATOM     11  C   LIG    1       -9.123   0.988  -4.344  0.00  0.00    +0.060 A 
ATOM     12  C   LIG    1       -7.960   1.355  -3.704  0.00  0.00    +0.020 A 
ATOM     13  C   LIG    1       -7.768   2.675  -3.311  0.00  0.00    +0.190 A 
BRANCH  10  14
ATOM     14  C   LIG    1      -11.358   1.553  -5.282  0.00  0.00    +0.570 C 
ATOM     15  O   LIG    1      -12.217   2.386  -5.502  0.00  0.00    -0.540 OA
ATOM     16  N   LIG    1      -11.546   0.275  -5.665  0.00  0.00    -0.850 N 
ATOM     17  H   LIG    1      -12.366   0.018  -6.115  0.00  0.00    +0.410 HD
ATOM     18  H   LIG    1      -10.861  -0.390  -5.489  0.00  0.00    +0.400 HD
ENDBRANCH  10  14
ENDBRANCH   1  13
BRANCH   4  19
ATOM     19  C   LIG    1       -4.244   1.635  -0.207  0.00  0.00    +0.260 C 
ATOM     20  C   LIG    1       -5.016   1.592   1.113  0.00  0.00    +0.020 C 
BRANCH  19  21
ATOM     21  C   LIG    1       -2.809   2.097   0.055  0.00  0.00    +0.040 C 
ATOM     22  C   LIG    1       -2.835   3.501   0.657  0.00  0.00    +0.030 C 
ATOM     23  C   LIG    1       -1.416   3.858   1.110  0.00  0.00    +0.020 C 
ATOM     24  C   LIG    1       -1.065   2.997   2.322  0.00  0.00    +0.080 C 
ATOM     25  C   LIG    1       -1.335   1.543   2.035  0.00  0.00    -0.070 A 
ATOM     26  C   LIG    1       -0.741   0.599   2.861  0.00  0.00    +0.000 A 
ATOM     27  C   LIG    1       -0.953  -0.748   2.653  0.00  0.00    +0.000 A 
ATOM     28  C   LIG    1       -1.764  -1.163   1.613  0.00  0.00    +0.000 A 
ATOM     29  C   LIG    1       -2.354  -0.226   0.789  0.00  0.00    +0.000 A 
ATOM     30  C   LIG    1       -2.140   1.130   0.996  0.00  0.00    -0.070 A 
ENDBRANCH  19  21
ENDBRANCH   4  19
TORSDOF 4
