REMARK  Name = ZINCqH0000007lWf.0
REMARK                            x       y       z     vdW  Elec       q    Type
REMARK                         _______ _______ _______ _____ _____    ______ ____
ROOT
ATOM      1  C   LIG    1       -5.389   5.774   3.895  0.00  0.00    +0.520 C 
ATOM      2  N   LIG    1       -5.770   4.535   3.526  0.00  0.00    -0.670 N 
ATOM      3  H   LIG    1       -6.691   4.255   3.646  0.00  0.00    +0.420 HD
ATOM      4  O   LIG    1       -4.223   6.098   3.817  0.00  0.00    -0.520 OA
ENDROOT
BRANCH   2   5
ATOM      5  C   LIG    1       -4.836   3.650   2.971  0.00  0.00    +0.100 A 
ATOM      6  C   LIG    1       -5.228   2.762   1.975  0.00  0.00    +0.070 A 
ATOM      7  C   LIG    1       -4.312   1.892   1.418  0.00  0.00    -0.040 A 
ATOM      8  C   LIG    1       -2.997   1.889   1.856  0.00  0.00    +0.170 A 
ATOM      9  C   LIG    1       -2.595   2.781   2.860  0.00  0.00    -0.040 A 
ATOM     10  C   LIG    1       -3.524   3.663   3.415  0.00  0.00    +0.130 A 
BRANCH   9  11
ATOM     11  C   LIG    1       -1.236   2.788   3.313  0.00  0.00    +0.260 C 
ATOM     12  N   LIG    1       -0.159   2.794   3.673  0.00  0.00    -0.410 NA
ENDBRANCH   9  11
BRANCH   8  13
ATOM     13  O   LIG    1       -2.100   1.028   1.311  0.00  0.00    -0.300 OA
BRANCH  13  14
ATOM     14  C   LIG    1       -2.554   0.221   0.223  0.00  0.00    +0.150 C 
ATOM     15  C   LIG    1       -2.439   1.011  -1.082  0.00  0.00    +0.030 C 
ATOM     16  C   LIG    1       -1.695  -1.042   0.131  0.00  0.00    +0.070 C 
ENDBRANCH  13  14
ENDBRANCH   8  13
ENDBRANCH   2   5
BRANCH   1  17
ATOM     17  C   LIG    1       -6.412   6.756   4.404  0.00  0.00    +0.080 C 
BRANCH  17  18
ATOM     18  C   LIG    1       -5.722   8.077   4.751  0.00  0.00    +0.210 C 
BRANCH  18  19
ATOM     19  O   LIG    1       -6.692   9.009   5.234  0.00  0.00    -0.320 OA
BRANCH  19  23
ATOM     20  C   LIG    1       -5.322  12.751   6.312  0.00  0.00    +0.090 A 
ATOM     21  C   LIG    1       -6.671  12.446   6.426  0.00  0.00    +0.030 A 
ATOM     22  C   LIG    1       -7.129  11.194   6.065  0.00  0.00    +0.030 A 
ATOM     23  C   LIG    1       -6.241  10.242   5.588  0.00  0.00    +0.090 A 
ATOM     24  C   LIG    1       -4.892  10.544   5.479  0.00  0.00    -0.040 A 
ATOM     25  C   LIG    1       -4.434  11.798   5.835  0.00  0.00    -0.040 A 
BRANCH  20  27
ATOM     26  C   LIG    1       -3.470  14.228   6.523  0.00  0.00    +0.230 C 
ATOM     27  O   LIG    1       -4.871  13.983   6.667  0.00  0.00    -0.320 OA
ENDBRANCH  20  27
ENDBRANCH  19  23
ENDBRANCH  18  19
ENDBRANCH  17  18
ENDBRANCH   1  17
TORSDOF 9
