REMARK  Name = ZINCqH0000007XUt.0
REMARK                            x       y       z     vdW  Elec       q    Type
REMARK                         _______ _______ _______ _____ _____    ______ ____
ROOT
ATOM      1  C   LIG    1        2.151   6.315  -0.524  0.00  0.00    -0.080 A 
ATOM      2  C   LIG    1        3.154   5.392  -0.289  0.00  0.00    +0.010 A 
ATOM      3  C   LIG    1        2.862   4.043  -0.266  0.00  0.00    +0.050 A 
ATOM      4  C   LIG    1        1.554   3.612  -0.481  0.00  0.00    -0.020 A 
ATOM      5  C   LIG    1        0.549   4.546  -0.724  0.00  0.00    +0.030 A 
ATOM      6  C   LIG    1        0.851   5.893  -0.738  0.00  0.00    +0.020 A 
ENDROOT
BRANCH   4   7
ATOM      7  C   LIG    1        1.235   2.164  -0.458  0.00  0.00    +0.140 A 
ATOM      8  C   LIG    1       -0.010   1.698  -0.659  0.00  0.00    -0.100 A 
ATOM      9  S   LIG    1        0.032  -0.060  -0.553  0.00  0.00    +0.090 S 
ATOM     10  C   LIG    1        1.764  -0.002  -0.239  0.00  0.00    +0.330 A 
ATOM     11  N   LIG    1        2.161   1.233  -0.236  0.00  0.00    -0.520 NA
BRANCH  10  12
ATOM     12  N   LIG    1        2.577  -1.105  -0.028  0.00  0.00    -0.630 N 
ATOM     13  H   LIG    1        3.537  -0.993   0.048  0.00  0.00    +0.430 HD
BRANCH  12  14
ATOM     14  C   LIG    1        2.011  -2.380   0.077  0.00  0.00    +0.150 A 
ATOM     15  C   LIG    1        0.781  -2.547   0.698  0.00  0.00    +0.010 A 
ATOM     16  C   LIG    1        0.223  -3.807   0.797  0.00  0.00    +0.020 A 
ATOM     17  C   LIG    1        0.894  -4.904   0.284  0.00  0.00    +0.080 A 
ATOM     18  C   LIG    1        2.123  -4.741  -0.332  0.00  0.00    +0.020 A 
ATOM     19  F   LIG    1        0.348  -6.136   0.386  0.00  0.00    -0.140 F 
ATOM     20  C   LIG    1        2.683  -3.483  -0.436  0.00  0.00    +0.030 A 
ENDBRANCH  12  14
ENDBRANCH  10  12
ENDBRANCH   4   7
BRANCH   1  21
ATOM     21  C   LIG    1        2.476   7.786  -0.548  0.00  0.00    +0.070 C 
BRANCH  21  22
ATOM     22  C   LIG    1        2.845   8.204  -1.973  0.00  0.00    +0.270 C 
BRANCH  22  23
ATOM     23  N   LIG    1        3.161   9.635  -1.996  0.00  0.00    -1.120 NA
ATOM     24  H   LIG    1        2.911  10.199  -1.247  0.00  0.00    +0.420 HD
BRANCH  23  26
ATOM     25  C   LIG    1        2.775  10.098  -4.673  0.00  0.00    -0.280 C 
ATOM     26  S   LIG    1        3.944  10.289  -3.300  0.00  0.00    +2.620 S 
ATOM     27  O   LIG    1        5.075   9.448  -3.487  0.00  0.00    -0.960 OA
ATOM     28  O   LIG    1        4.099  11.661  -2.964  0.00  0.00    -0.960 OA
ENDBRANCH  23  26
ENDBRANCH  22  23
ENDBRANCH  21  22
ENDBRANCH   1  21
TORSDOF 7
