REMARK  Name = ZINCrH000004tYp3.0
REMARK                            x       y       z     vdW  Elec       q    Type
REMARK                         _______ _______ _______ _____ _____    ______ ____
ROOT
ATOM      1  O   LIG    1       -1.936   1.811  -3.712  0.00  0.00    -0.470 OA
ATOM      2  C   LIG    1       -2.591   2.260  -2.795  0.00  0.00    +0.510 C 
ATOM      3  N   LIG    1       -2.126   2.181  -1.533  0.00  0.00    -0.610 N 
ATOM      4  C   LIG    1       -2.949   2.632  -0.402  0.00  0.00    +0.270 C 
ATOM      5  C   LIG    1       -3.046   1.496   0.621  0.00  0.00    +0.010 C 
ATOM      6  C   LIG    1       -1.636   1.043   1.011  0.00  0.00    +0.010 C 
ATOM      7  C   LIG    1       -0.908   0.517  -0.228  0.00  0.00    +0.040 C 
ATOM      8  C   LIG    1       -0.786   1.642  -1.261  0.00  0.00    +0.320 C 
ENDROOT
BRANCH   8   9
ATOM      9  C   LIG    1       -0.190   1.097  -2.533  0.00  0.00    +0.230 A 
ATOM     10  N   LIG    1       -0.566   0.007  -3.144  0.00  0.00    -0.470 NA
ATOM     11  C   LIG    1        0.183  -0.166  -4.243  0.00  0.00    +0.150 A 
ATOM     12  C   LIG    1        1.063   0.852  -4.311  0.00  0.00    +0.110 A 
ATOM     13  N   LIG    1        0.827   1.653  -3.227  0.00  0.00    -0.560 N 
ATOM     14  H   LIG    1        1.301   2.468  -3.000  0.00  0.00    +0.410 HD
ENDBRANCH   8   9
BRANCH   2  15
ATOM     15  C   LIG    1       -3.924   2.908  -3.068  0.00  0.00    +0.160 C 
BRANCH  15  16
ATOM     16  C   LIG    1       -4.209   2.868  -4.547  0.00  0.00    +0.080 A 
ATOM     17  C   LIG    1       -5.321   2.329  -5.055  0.00  0.00    -0.070 A 
ATOM     18  S   LIG    1       -5.252   2.494  -6.808  0.00  0.00    +0.160 S 
ATOM     19  C   LIG    1       -3.731   3.264  -6.684  0.00  0.00    +0.030 A 
ATOM     20  N   LIG    1       -3.378   3.357  -5.446  0.00  0.00    -0.420 NA
BRANCH  19  21
ATOM     21  C   LIG    1       -2.918   3.763  -7.852  0.00  0.00    +0.310 C 
BRANCH  21  22
ATOM     22  O   LIG    1       -2.049   2.723  -8.306  0.00  0.00    -0.300 OA
BRANCH  22  23
ATOM     23  C   LIG    1       -1.242   3.010  -9.361  0.00  0.00    +0.130 A 
ATOM     24  C   LIG    1       -1.290   4.265  -9.950  0.00  0.00    -0.080 A 
ATOM     25  C   LIG    1       -0.465   4.557 -11.019  0.00  0.00    +0.050 A 
ATOM     26  C   LIG    1        0.400   3.595 -11.508  0.00  0.00    -0.040 A 
ATOM     27  C   LIG    1        0.446   2.342 -10.926  0.00  0.00    +0.050 A 
ATOM     28  C   LIG    1       -0.373   2.048  -9.853  0.00  0.00    -0.020 A 
ENDBRANCH  22  23
ENDBRANCH  21  22
ENDBRANCH  19  21
ENDBRANCH  15  16
ENDBRANCH   2  15
TORSDOF 6
