REMARK  Name = ZINCrg000000shuL.0
REMARK                            x       y       z     vdW  Elec       q    Type
REMARK                         _______ _______ _______ _____ _____    ______ ____
ROOT
ATOM      1  C   LIG    1        2.959   4.147  -1.290  0.00  0.00    +0.520 C 
ATOM      2  N   LIG    1        4.103   4.804  -1.565  0.00  0.00    -0.610 N 
ATOM      3  C   LIG    1        4.897   5.407  -0.485  0.00  0.00    +0.270 C 
ATOM      4  C   LIG    1        6.329   4.854  -0.568  0.00  0.00    +0.290 C 
ATOM      5  N   LIG    1        6.803   4.985  -1.953  0.00  0.00    -1.010 NA
ATOM      6  C   LIG    1        6.006   4.387  -3.033  0.00  0.00    +0.290 C 
ATOM      7  C   LIG    1        4.576   4.935  -2.950  0.00  0.00    +0.280 C 
ATOM      8  O   LIG    1        2.310   3.657  -2.190  0.00  0.00    -0.520 OA
ENDROOT
BRANCH   5   9
ATOM      9  S   LIG    1        8.208   5.793  -2.290  0.00  0.00    +2.780 S 
ATOM     10  O   LIG    1        8.728   5.215  -3.480  0.00  0.00    -0.970 OA
ATOM     11  O   LIG    1        8.938   5.854  -1.073  0.00  0.00    -0.970 OA
BRANCH   9  12
ATOM     12  N   LIG    1        7.799   7.352  -2.669  0.00  0.00    -1.010 NA
ATOM     13  C   LIG    1        7.815   8.409  -1.645  0.00  0.00    +0.270 C 
ATOM     14  C   LIG    1        8.625   9.595  -2.193  0.00  0.00    +0.140 C 
ATOM     15  O   LIG    1        8.110   9.962  -3.475  0.00  0.00    -0.370 OA
ATOM     16  C   LIG    1        8.228   8.939  -4.467  0.00  0.00    +0.200 C 
ATOM     17  C   LIG    1        9.697   8.537  -4.614  0.00  0.00    +0.010 C 
ATOM     18  C   LIG    1        8.502  10.782  -1.235  0.00  0.00    +0.070 C 
ATOM     19  C   LIG    1        7.403   7.721  -4.037  0.00  0.00    +0.270 C 
ENDBRANCH   9  12
ENDBRANCH   5   9
BRANCH   1  20
ATOM     20  C   LIG    1        2.486   4.020   0.135  0.00  0.00    +0.110 C 
BRANCH  20  27
ATOM     21  C   LIG    1        2.531   1.131   0.185  0.00  0.00    +0.080 C 
ATOM     22  C   LIG    1        1.215   1.865   0.193  0.00  0.00    -0.070 A 
ATOM     23  C   LIG    1        0.029   1.155   0.223  0.00  0.00    +0.000 A 
ATOM     24  C   LIG    1       -1.179   1.828   0.225  0.00  0.00    +0.010 A 
ATOM     25  C   LIG    1       -1.201   3.210   0.206  0.00  0.00    +0.000 A 
ATOM     26  C   LIG    1       -0.015   3.919   0.176  0.00  0.00    +0.020 A 
ATOM     27  C   LIG    1        1.193   3.247   0.169  0.00  0.00    -0.070 A 
ENDBRANCH  20  27
ENDBRANCH   1  20
TORSDOF 4
