REMARK  Name = ZINCqH0000034jv9.0
REMARK                            x       y       z     vdW  Elec       q    Type
REMARK                         _______ _______ _______ _____ _____    ______ ____
ROOT
ATOM      1  N   LIG    1        1.653   4.255  -0.865  0.00  0.00    -0.740 N 
ATOM      2  H   LIG    1        0.694   4.210  -0.999  0.00  0.00    +0.400 HD
ATOM      3  C   LIG    1        2.323   3.171  -0.425  0.00  0.00    +0.720 C 
ATOM      4  N   LIG    1        1.660   2.026  -0.170  0.00  0.00    -0.630 N 
ATOM      5  C   LIG    1        0.228   1.787  -0.428  0.00  0.00    +0.240 C 
ATOM      6  C   LIG    1        0.102   0.250  -0.571  0.00  0.00    +0.040 C 
ATOM      7  C   LIG    1        1.119  -0.246   0.491  0.00  0.00    +0.040 C 
ATOM      8  C   LIG    1        2.244   0.808   0.411  0.00  0.00    +0.240 C 
ATOM      9  O   LIG    1        3.526   3.227  -0.258  0.00  0.00    -0.580 OA
ENDROOT
BRANCH   1  10
ATOM     10  C   LIG    1        2.375   5.499  -1.142  0.00  0.00    +0.420 C 
BRANCH  10  14
ATOM     11  C   LIG    1        0.163   7.795  -2.890  0.00  0.00    +0.210 A 
ATOM     12  N   LIG    1       -0.027   8.180  -1.660  0.00  0.00    -0.480 NA
ATOM     13  C   LIG    1        0.732   7.421  -0.849  0.00  0.00    +0.020 A 
ATOM     14  C   LIG    1        1.403   6.548  -1.618  0.00  0.00    -0.080 A 
ATOM     15  C   LIG    1        0.814   7.531   0.652  0.00  0.00    +0.160 C 
ATOM     16  O   LIG    1        1.048   6.790  -2.895  0.00  0.00    -0.190 OA
BRANCH  11  18
ATOM     17  C   LIG    1        0.359   9.534  -4.648  0.00  0.00    +0.050 C 
ATOM     18  C   LIG    1       -0.499   8.388  -4.107  0.00  0.00    +0.170 C 
ENDBRANCH  11  18
ENDBRANCH  10  14
ENDBRANCH   1  10
BRANCH   8  19
ATOM     19  C   LIG    1        2.779   1.106   1.813  0.00  0.00    +0.080 C 
BRANCH  19  20
ATOM     20  C   LIG    1        3.452  -0.124   2.365  0.00  0.00    -0.090 A 
ATOM     21  C   LIG    1        2.762  -0.967   3.216  0.00  0.00    +0.040 A 
ATOM     22  C   LIG    1        3.376  -2.099   3.719  0.00  0.00    +0.040 A 
ATOM     23  C   LIG    1        4.686  -2.384   3.381  0.00  0.00    +0.020 A 
ATOM     24  C   LIG    1        5.381  -1.540   2.534  0.00  0.00    +0.070 A 
ATOM     25  F   LIG    1        6.661  -1.818   2.203  0.00  0.00    -0.130 F 
ATOM     26  C   LIG    1        4.763  -0.407   2.025  0.00  0.00    +0.070 A 
ATOM     27  F   LIG    1        5.441   0.418   1.198  0.00  0.00    -0.120 F 
ENDBRANCH  19  20
ENDBRANCH   8  19
TORSDOF 5
