REMARK  Name = ZINCrD0000075tnY.0
REMARK                            x       y       z     vdW  Elec       q    Type
REMARK                         _______ _______ _______ _____ _____    ______ ____
ROOT
ATOM      1  O   LIG    1       -3.527   6.049  -0.995  0.00  0.00    -0.320 OA
ENDROOT
BRANCH   1   3
ATOM      2  O   LIG    1       -4.829   4.317  -1.432  0.00  0.00    -0.490 OA
ATOM      3  C   LIG    1       -4.697   5.518  -1.381  0.00  0.00    +0.490 C 
BRANCH   3   4
ATOM      4  C   LIG    1       -5.848   6.418  -1.750  0.00  0.00    +0.150 C 
BRANCH   4   5
ATOM      5  S   LIG    1       -7.275   5.410  -2.223  0.00  0.00    +0.060 S 
BRANCH   5   6
ATOM      6  C   LIG    1       -8.438   6.680  -2.595  0.00  0.00    +0.200 A 
ATOM      7  C   LIG    1       -9.750   6.354  -3.026  0.00  0.00    -0.160 A 
ATOM      8  C   LIG    1      -10.376   5.063  -3.239  0.00  0.00    +0.060 A 
ATOM      9  C   LIG    1      -11.629   5.116  -3.649  0.00  0.00    -0.010 A 
ATOM     10  S   LIG    1      -12.177   6.774  -3.816  0.00  0.00    +0.180 S 
ATOM     11  C   LIG    1      -10.621   7.410  -3.303  0.00  0.00    +0.100 A 
ATOM     12  N   LIG    1      -10.187   8.668  -3.153  0.00  0.00    -0.490 NA
ATOM     13  C   LIG    1       -8.963   8.919  -2.751  0.00  0.00    +0.540 A 
ATOM     14  N   LIG    1       -8.103   7.957  -2.471  0.00  0.00    -0.530 NA
ENDBRANCH   5   6
ENDBRANCH   4   5
ENDBRANCH   3   4
ENDBRANCH   1   3
BRANCH   1  15
ATOM     15  C   LIG    1       -2.463   5.122  -0.653  0.00  0.00    +0.270 C 
BRANCH  15  16
ATOM     16  C   LIG    1       -1.234   5.894  -0.247  0.00  0.00    +0.520 C 
ATOM     17  N   LIG    1       -0.084   5.243   0.013  0.00  0.00    -0.550 N 
ATOM     18  C   LIG    1       -0.045   3.774   0.034  0.00  0.00    +0.270 C 
ATOM     19  C   LIG    1        0.759   3.344   1.268  0.00  0.00    +0.020 C 
ATOM     20  C   LIG    1        2.194   3.850   1.124  0.00  0.00    +0.080 C 
ATOM     21  C   LIG    1        2.206   5.322   0.806  0.00  0.00    -0.110 A 
ATOM     22  C   LIG    1        3.355   6.052   1.057  0.00  0.00    +0.030 A 
ATOM     23  C   LIG    1        3.400   7.402   0.768  0.00  0.00    -0.020 A 
ATOM     24  C   LIG    1        2.293   8.035   0.233  0.00  0.00    +0.030 A 
ATOM     25  C   LIG    1        1.144   7.313  -0.024  0.00  0.00    +0.010 A 
ATOM     26  C   LIG    1        1.097   5.955   0.267  0.00  0.00    +0.150 A 
ATOM     27  O   LIG    1       -1.282   7.103  -0.153  0.00  0.00    -0.490 OA
ENDBRANCH  15  16
ENDBRANCH   1  15
TORSDOF 6
