REMARK  Name = ZINCrg000000q0Au.0
REMARK                            x       y       z     vdW  Elec       q    Type
REMARK                         _______ _______ _______ _____ _____    ______ ____
ROOT
ATOM      1  C   LIG    1       -8.068   1.662   1.151  0.00  0.00    +0.260 C 
ATOM      2  C   LIG    1       -8.381   2.914   0.329  0.00  0.00    +0.030 C 
ATOM      3  C   LIG    1       -7.076   3.628  -0.033  0.00  0.00    +0.050 C 
ATOM      4  C   LIG    1       -6.207   2.699  -0.879  0.00  0.00    +0.270 C 
ATOM      5  N   LIG    1       -6.022   1.431  -0.159  0.00  0.00    -0.610 N 
ATOM      6  C   LIG    1       -4.786   0.944   0.067  0.00  0.00    +0.530 C 
ATOM      7  O   LIG    1       -4.649  -0.147   0.580  0.00  0.00    -0.490 OA
ATOM      8  C   LIG    1       -7.210   0.708   0.314  0.00  0.00    +0.300 C 
ENDROOT
BRANCH   6   9
ATOM      9  C   LIG    1       -3.575   1.754  -0.318  0.00  0.00    +0.150 C 
ATOM     10  C   LIG    1       -3.443   2.963   0.617  0.00  0.00    +0.250 C 
ATOM     11  O   LIG    1       -2.279   3.703   0.233  0.00  0.00    -0.300 OA
ATOM     12  C   LIG    1       -1.145   2.984   0.006  0.00  0.00    +0.040 A 
ATOM     13  C   LIG    1        0.080   3.633  -0.014  0.00  0.00    +0.030 A 
ATOM     14  C   LIG    1        1.239   2.917  -0.248  0.00  0.00    +0.030 A 
ATOM     15  C   LIG    1        1.180   1.553  -0.462  0.00  0.00    +0.030 A 
ATOM     16  C   LIG    1       -0.038   0.899  -0.443  0.00  0.00    +0.030 A 
ATOM     17  C   LIG    1       -1.205   1.612  -0.213  0.00  0.00    +0.050 A 
ATOM     18  O   LIG    1       -2.395   0.953  -0.184  0.00  0.00    -0.280 OA
ENDBRANCH   6   9
BRANCH   1  21
ATOM     19  C   LIG    1      -11.354   0.215   1.513  0.00  0.00    -0.090 A 
ATOM     20  C   LIG    1      -10.442   0.925   0.782  0.00  0.00    +0.320 A 
ATOM     21  N   LIG    1       -9.319   0.997   1.524  0.00  0.00    -0.350 N 
ATOM     22  N   LIG    1       -9.575   0.307   2.717  0.00  0.00    -0.050 NA
ATOM     23  N   LIG    1      -10.784  -0.135   2.679  0.00  0.00    -0.180 NA
BRANCH  19  24
ATOM     24  C   LIG    1      -12.728  -0.111   1.093  0.00  0.00    +0.560 C 
ATOM     25  O   LIG    1      -13.137   0.260   0.011  0.00  0.00    -0.500 OA
BRANCH  24  27
ATOM     26  C   LIG    1      -14.873  -1.105   1.431  0.00  0.00    +0.290 C 
ATOM     27  O   LIG    1      -13.531  -0.820   1.910  0.00  0.00    -0.340 OA
ENDBRANCH  24  27
ENDBRANCH  19  24
ENDBRANCH   1  21
TORSDOF 4
