REMARK  Name = ZINCkj00000AJuFz.0
REMARK                            x       y       z     vdW  Elec       q    Type
REMARK                         _______ _______ _______ _____ _____    ______ ____
ROOT
ATOM      1  N   LIG    1        2.178  -0.862  -0.796  0.00  0.00    -0.720 N 
ATOM      2  H   LIG    1        2.360  -1.107   0.124  0.00  0.00    +0.400 HD
ATOM      3  C   LIG    1        3.178  -0.843  -1.699  0.00  0.00    +0.610 C 
ATOM      4  O   LIG    1        2.936  -0.625  -2.872  0.00  0.00    -0.540 OA
ENDROOT
BRANCH   3   5
ATOM      5  C   LIG    1        4.513  -1.076  -1.282  0.00  0.00    -0.160 A 
ATOM      6  C   LIG    1        4.936  -1.432  -0.012  0.00  0.00    +0.300 A 
ATOM      7  N   LIG    1        6.253  -1.558  -0.034  0.00  0.00    -0.480 NA
ATOM      8  C   LIG    1        6.711  -1.292  -1.257  0.00  0.00    +0.240 A 
ATOM      9  C   LIG    1        8.013  -1.283  -1.788  0.00  0.00    +0.120 A 
ATOM     10  C   LIG    1        8.199  -0.968  -3.101  0.00  0.00    +0.060 A 
ATOM     11  C   LIG    1        7.089  -0.658  -3.903  0.00  0.00    +0.100 A 
ATOM     12  C   LIG    1        5.843  -0.674  -3.373  0.00  0.00    +0.210 A 
ATOM     13  F   LIG    1        7.265  -0.345  -5.205  0.00  0.00    -0.110 F 
ATOM     14  N   LIG    1        5.652  -0.987  -2.062  0.00  0.00    -0.310 N 
ENDBRANCH   3   5
BRANCH   1  19
ATOM     15  C   LIG    1        0.003  -0.000   0.002  0.00  0.00    -0.020 C 
ATOM     16  C   LIG    1       -1.426  -0.545  -0.165  0.00  0.00    +0.030 C 
ATOM     17  C   LIG    1       -1.434  -1.369  -1.469  0.00  0.00    +0.030 C 
ATOM     18  C   LIG    1        0.047  -1.775  -1.671  0.00  0.00    +0.030 C 
ATOM     19  C   LIG    1        0.815  -0.512  -1.205  0.00  0.00    +0.270 C 
BRANCH  15  20
ATOM     20  C   LIG    1       -0.016   1.529   0.010  0.00  0.00    +0.280 C 
BRANCH  20  21
ATOM     21  N   LIG    1       -0.703   2.004   1.219  0.00  0.00    -0.640 N 
ATOM     22  H   LIG    1       -1.650   1.656   1.226  0.00  0.00    +0.430 HD
ATOM     23  H   LIG    1       -0.716   3.013   1.224  0.00  0.00    +0.440 HD
ATOM     24  H   LIG    1       -0.215   1.670   2.036  0.00  0.00    +0.440 HD
ENDBRANCH  20  21
ENDBRANCH  15  20
ENDBRANCH   1  19
TORSDOF 4
