REMARK  Name = ZINCrH000004q9RJ.2
REMARK                            x       y       z     vdW  Elec       q    Type
REMARK                         _______ _______ _______ _____ _____    ______ ____
ROOT
ATOM      1  C   LIG    1       -1.125   3.080   0.609  0.00  0.00    +0.610 C 
ATOM      2  N   LIG    1       -1.191   1.870   0.018  0.00  0.00    -0.660 N 
ATOM      3  H   LIG    1       -0.426   1.528  -0.471  0.00  0.00    +0.420 HD
ATOM      4  O   LIG    1       -2.110   3.546   1.151  0.00  0.00    -0.490 OA
ENDROOT
BRANCH   1   7
ATOM      5  C   LIG    1       -0.710   5.880   1.898  0.00  0.00    +0.140 C 
ATOM      6  C   LIG    1        0.319   5.055   1.168  0.00  0.00    -0.060 A 
ATOM      7  C   LIG    1        0.136   3.833   0.605  0.00  0.00    -0.050 A 
ATOM      8  O   LIG    1        1.287   3.416   0.037  0.00  0.00    -0.190 OA
ATOM      9  C   LIG    1        2.263   4.330   0.204  0.00  0.00    +0.080 A 
ATOM     10  C   LIG    1        3.597   4.379  -0.182  0.00  0.00    +0.030 A 
ATOM     11  C   LIG    1        4.365   5.477   0.142  0.00  0.00    +0.060 A 
ATOM     12  C   LIG    1        3.822   6.538   0.853  0.00  0.00    -0.010 A 
ATOM     13  C   LIG    1        2.512   6.512   1.244  0.00  0.00    +0.070 A 
ATOM     14  C   LIG    1        1.717   5.409   0.924  0.00  0.00    -0.150 A 
ENDBRANCH   1   7
BRANCH   2  15
ATOM     15  C   LIG    1       -2.360   1.109   0.110  0.00  0.00    +0.140 A 
ATOM     16  C   LIG    1       -2.285  -0.275   0.192  0.00  0.00    -0.010 A 
ATOM     17  C   LIG    1       -3.442  -1.023   0.287  0.00  0.00    +0.050 A 
ATOM     18  C   LIG    1       -4.674  -0.397   0.291  0.00  0.00    -0.090 A 
ATOM     19  C   LIG    1       -4.753   0.981   0.204  0.00  0.00    +0.020 A 
ATOM     20  C   LIG    1       -3.600   1.736   0.113  0.00  0.00    +0.020 A 
BRANCH  18  21
ATOM     21  C   LIG    1       -5.935  -1.217   0.390  0.00  0.00    +0.230 C 
BRANCH  21  22
ATOM     22  N   LIG    1       -6.394  -1.574  -0.959  0.00  0.00    -0.530 NA
ATOM     23  C   LIG    1       -6.815  -0.380  -1.705  0.00  0.00    +0.170 C 
ATOM     24  C   LIG    1       -7.210  -0.783  -3.128  0.00  0.00    +0.180 C 
ATOM     25  N   LIG    1       -8.293  -1.774  -3.070  0.00  0.00    -0.550 NA
ATOM     26  C   LIG    1       -7.872  -2.968  -2.325  0.00  0.00    +0.180 C 
ATOM     27  C   LIG    1       -8.752  -2.131  -4.420  0.00  0.00    +0.190 C 
ATOM     28  C   LIG    1       -7.477  -2.565  -0.902  0.00  0.00    +0.180 C 
ENDBRANCH  21  22
ENDBRANCH  18  21
ENDBRANCH   2  15
TORSDOF 4
