REMARK  Name = ZINCnE000001TyJ5.0
REMARK                            x       y       z     vdW  Elec       q    Type
REMARK                         _______ _______ _______ _____ _____    ______ ____
ROOT
ATOM      1  C   LIG    1        7.043   1.752  -0.932  0.00  0.00    -0.030 C 
ATOM      2  C   LIG    1        7.192   0.232  -0.834  0.00  0.00    +0.020 C 
ATOM      3  C   LIG    1        5.828  -0.430  -1.041  0.00  0.00    +0.010 C 
ATOM      4  C   LIG    1        4.867   0.034   0.064  0.00  0.00    +0.250 C 
ATOM      5  N   LIG    1        4.830   1.503   0.065  0.00  0.00    -0.600 N 
ATOM      6  C   LIG    1        3.657   2.160  -0.022  0.00  0.00    +0.540 C 
ATOM      7  O   LIG    1        3.645   3.372  -0.114  0.00  0.00    -0.510 OA
ATOM      8  C   LIG    1        6.096   2.241   0.168  0.00  0.00    +0.280 C 
ENDROOT
BRANCH   6   9
ATOM      9  C   LIG    1        2.384   1.408  -0.004  0.00  0.00    -0.070 A 
ATOM     10  C   LIG    1        2.105   0.529   1.044  0.00  0.00    +0.050 A 
ATOM     11  C   LIG    1        0.915  -0.170   1.054  0.00  0.00    +0.050 A 
ATOM     12  C   LIG    1        0.001  -0.002   0.030  0.00  0.00    +0.030 A 
ATOM     13  C   LIG    1        0.273   0.868  -1.012  0.00  0.00    +0.060 A 
ATOM     14  C   LIG    1        1.458   1.573  -1.035  0.00  0.00    -0.140 A 
BRANCH  14  15
ATOM     15  C   LIG    1        1.752   2.519  -2.170  0.00  0.00    +0.500 C 
ATOM     16  F   LIG    1        2.918   2.111  -2.827  0.00  0.00    -0.170 F 
ATOM     17  F   LIG    1        1.929   3.812  -1.666  0.00  0.00    -0.150 F 
ATOM     18  F   LIG    1        0.683   2.512  -3.072  0.00  0.00    -0.180 F 
ENDBRANCH  14  15
ENDBRANCH   6   9
BRANCH   1  19
ATOM     19  C   LIG    1        8.413   2.412  -0.758  0.00  0.00    +0.040 C 
BRANCH  19  20
ATOM     20  C   LIG    1        8.284   3.921  -0.976  0.00  0.00    -0.070 C 
BRANCH  20  22
ATOM     21  O   LIG    1       10.607   3.889  -0.532  0.00  0.00    -0.700 OA
ATOM     22  C   LIG    1        9.632   4.570  -0.804  0.00  0.00    +0.490 C 
ATOM     23  O   LIG    1        9.749   5.776  -0.937  0.00  0.00    -0.710 OA
ENDBRANCH  20  22
ENDBRANCH  19  20
ENDBRANCH   1  19
TORSDOF 5
