REMARK  Name = ZINCrg00000zGCPs.0
REMARK                            x       y       z     vdW  Elec       q    Type
REMARK                         _______ _______ _______ _____ _____    ______ ____
ROOT
ATOM      1  C   LIG    1        1.620   1.376   0.295  0.00  0.00    +0.240 C 
ATOM      2  C   LIG    1        2.102   1.723  -1.125  0.00  0.00    +0.020 C 
ATOM      3  C   LIG    1        0.888   1.540  -2.059  0.00  0.00    +0.020 C 
ATOM      4  C   LIG    1       -0.338   1.697  -1.125  0.00  0.00    +0.020 C 
ATOM      5  C   LIG    1        0.130   0.994   0.173  0.00  0.00    +0.240 C 
ENDROOT
BRANCH   1   7
ATOM      6  C   LIG    1        2.932   2.746   1.824  0.00  0.00    +0.590 C 
ATOM      7  N   LIG    1        1.770   2.538   1.174  0.00  0.00    -0.720 N 
ATOM      8  H   LIG    1        1.033   3.159   1.288  0.00  0.00    +0.390 HD
ATOM      9  O   LIG    1        3.856   1.968   1.681  0.00  0.00    -0.500 OA
BRANCH   6  14
ATOM     10  C   LIG    1        4.255   4.188   3.416  0.00  0.00    +0.350 A 
ATOM     11  N   LIG    1        4.255   5.255   4.156  0.00  0.00    -0.540 NA
ATOM     12  S   LIG    1        2.734   5.989   4.010  0.00  0.00    +0.360 S 
ATOM     13  C   LIG    1        2.078   4.835   2.917  0.00  0.00    +0.020 A 
ATOM     14  C   LIG    1        3.083   3.913   2.707  0.00  0.00    -0.220 A 
BRANCH  10  16
ATOM     15  C   LIG    1        6.490   3.754   4.098  0.00  0.00    +0.260 C 
ATOM     16  O   LIG    1        5.344   3.380   3.331  0.00  0.00    -0.270 OA
ENDBRANCH  10  16
ENDBRANCH   6  14
ENDBRANCH   1   7
BRANCH   5  17
ATOM     17  N   LIG    1       -0.622   1.491   1.328  0.00  0.00    -0.720 N 
ATOM     18  H   LIG    1       -0.283   2.240   1.842  0.00  0.00    +0.390 HD
ATOM     19  C   LIG    1       -1.786   0.907   1.676  0.00  0.00    +0.530 C 
ATOM     20  O   LIG    1       -2.211  -0.030   1.033  0.00  0.00    -0.520 OA
BRANCH  19  21
ATOM     21  C   LIG    1       -2.560   1.418   2.864  0.00  0.00    -0.020 C 
ATOM     22  C   LIG    1       -3.273   0.253   3.551  0.00  0.00    +0.290 C 
ATOM     23  N   LIG    1       -4.202   0.747   4.561  0.00  0.00    -0.720 N 
ATOM     24  H   LIG    1       -4.498   0.129   5.247  0.00  0.00    +0.400 HD
ATOM     25  C   LIG    1       -4.668   1.996   4.600  0.00  0.00    +0.520 C 
ATOM     26  C   LIG    1       -4.255   3.066   3.631  0.00  0.00    +0.080 C 
ATOM     27  O   LIG    1       -5.470   2.282   5.464  0.00  0.00    -0.550 OA
ATOM     28  C   LIG    1       -3.612   2.430   2.396  0.00  0.00    -0.050 C 
ATOM     29  C   LIG    1       -4.681   1.716   1.567  0.00  0.00    +0.040 C 
ATOM     30  C   LIG    1       -2.943   3.514   1.548  0.00  0.00    +0.050 C 
ENDBRANCH  19  21
ENDBRANCH   5  17
TORSDOF 5
