REMARK  Name = ZINCpk000005U3jR.0
REMARK                            x       y       z     vdW  Elec       q    Type
REMARK                         _______ _______ _______ _____ _____    ______ ____
ROOT
ATOM      1  C   LIG    1        6.466   0.103  -1.688  0.00  0.00    +0.510 C 
ATOM      2  N   LIG    1        5.309   0.742  -1.427  0.00  0.00    -0.730 N 
ATOM      3  H   LIG    1        4.750   1.051  -2.157  0.00  0.00    +0.400 HD
ATOM      4  O   LIG    1        7.165  -0.283  -0.775  0.00  0.00    -0.530 OA
ENDROOT
BRANCH   1   5
ATOM      5  C   LIG    1        6.892  -0.133  -3.114  0.00  0.00    +0.120 C 
BRANCH   5  10
ATOM      6  C   LIG    1        9.458  -2.914  -3.153  0.00  0.00    -0.140 A 
ATOM      7  C   LIG    1       10.648  -2.187  -3.161  0.00  0.00    +0.050 A 
ATOM      8  C   LIG    1       10.610  -0.807  -3.154  0.00  0.00    +0.010 A 
ATOM      9  C   LIG    1        9.395  -0.146  -3.144  0.00  0.00    +0.050 A 
ATOM     10  C   LIG    1        8.211  -0.862  -3.131  0.00  0.00    -0.080 A 
ATOM     11  C   LIG    1        8.235  -2.241  -3.138  0.00  0.00    +0.090 A 
BRANCH   6  15
ATOM     12  N   LIG    1       10.673  -5.040  -3.175  0.00  0.00    -0.850 N 
ATOM     13  H   LIG    1       10.695  -6.010  -3.180  0.00  0.00    +0.410 HD
ATOM     14  H   LIG    1       11.502  -4.536  -3.181  0.00  0.00    +0.400 HD
ATOM     15  C   LIG    1        9.491  -4.393  -3.161  0.00  0.00    +0.560 C 
ATOM     16  O   LIG    1        8.452  -5.024  -3.153  0.00  0.00    -0.540 OA
ENDBRANCH   6  15
ENDBRANCH   5  10
ENDBRANCH   1   5
BRANCH   2  17
ATOM     17  C   LIG    1        4.895   0.971  -0.040  0.00  0.00    +0.320 C 
BRANCH  17  18
ATOM     18  C   LIG    1        3.576   1.700  -0.024  0.00  0.00    -0.050 A 
ATOM     19  C   LIG    1        3.559   3.088  -0.016  0.00  0.00    -0.010 A 
ATOM     20  C   LIG    1        2.372   3.768  -0.001  0.00  0.00    +0.110 A 
ATOM     21  C   LIG    1        1.171   3.060   0.007  0.00  0.00    -0.190 A 
ATOM     22  C   LIG    1       -0.130   3.752   0.024  0.00  0.00    +0.410 A 
ATOM     23  C   LIG    1       -1.300   2.956   0.031  0.00  0.00    -0.170 A 
ATOM     24  C   LIG    1       -1.203   1.611   0.017  0.00  0.00    +0.350 A 
ATOM     25  N   LIG    1       -0.011   0.966   0.007  0.00  0.00    -0.610 N 
ATOM     26  H   LIG    1        0.002  -0.004   0.002  0.00  0.00    +0.420 HD
ATOM     27  O   LIG    1       -0.196   4.970   0.032  0.00  0.00    -0.490 OA
ATOM     28  C   LIG    1        1.182   1.654  -0.000  0.00  0.00    +0.190 A 
ATOM     29  C   LIG    1        2.400   0.982  -0.016  0.00  0.00    -0.010 A 
ENDBRANCH  17  18
ENDBRANCH   2  17
TORSDOF 5
