REMARK  Name = ZINCnE000008Jb10.1
REMARK                            x       y       z     vdW  Elec       q    Type
REMARK                         _______ _______ _______ _____ _____    ______ ____
ROOT
ATOM      1  C   LIG    1       -1.137  -2.083   0.002  0.00  0.00    +0.410 A 
ATOM      2  N   LIG    1       -2.185  -2.847   0.008  0.00  0.00    -0.560 NA
ATOM      3  C   LIG    1       -1.975  -4.156  -0.002  0.00  0.00    +0.140 A 
ATOM      4  C   LIG    1       -0.685  -4.533  -0.017  0.00  0.00    -0.210 A 
ATOM      5  S   LIG    1        0.314  -3.081  -0.025  0.00  0.00    -0.030 S 
ENDROOT
BRANCH   3   6
ATOM      6  C   LIG    1       -3.088  -5.137   0.003  0.00  0.00    -0.030 A 
ATOM      7  C   LIG    1       -2.814  -6.504  -0.014  0.00  0.00    +0.060 A 
ATOM      8  C   LIG    1       -3.851  -7.413  -0.003  0.00  0.00    -0.080 A 
ATOM      9  C   LIG    1       -5.166  -6.969   0.012  0.00  0.00    +0.120 A 
ATOM     10  C   LIG    1       -5.442  -5.609   0.023  0.00  0.00    -0.130 A 
ATOM     11  C   LIG    1       -4.410  -4.694   0.018  0.00  0.00    +0.120 A 
BRANCH   9  12
ATOM     12  O   LIG    1       -6.186  -7.868   0.016  0.00  0.00    -0.320 OA
ATOM     13  C   LIG    1       -5.830  -9.252   0.004  0.00  0.00    +0.220 C 
ENDBRANCH   9  12
BRANCH  10  14
ATOM     14  C   LIG    1       -6.871  -5.131   0.040  0.00  0.00    +0.240 C 
BRANCH  14  15
ATOM     15  O   LIG    1       -6.895  -3.702   0.050  0.00  0.00    -0.380 OA
BRANCH  15  16
ATOM     16  C   LIG    1       -8.210  -3.143   0.066  0.00  0.00    +0.140 C 
ATOM     17  C   LIG    1       -8.116  -1.616   0.075  0.00  0.00    +0.060 C 
ENDBRANCH  15  16
ENDBRANCH  14  15
ENDBRANCH  10  14
ENDBRANCH   3   6
BRANCH   1  21
ATOM     18  N   LIG    1       -0.016   1.344   0.009  0.00  0.00    -0.740 N 
ATOM     19  H   LIG    1       -0.863   1.817   0.016  0.00  0.00    +0.390 HD
ATOM     20  C   LIG    1        0.002  -0.004   0.002  0.00  0.00    +0.650 C 
ATOM     21  N   LIG    1       -1.156  -0.694   0.009  0.00  0.00    -0.680 NA
ATOM     22  O   LIG    1        1.063  -0.598  -0.011  0.00  0.00    -0.650 OA
BRANCH  18  24
ATOM     23  C   LIG    1        0.943   3.594   0.012  0.00  0.00    +0.020 C 
ATOM     24  C   LIG    1        1.242   2.093   0.001  0.00  0.00    +0.240 C 
ENDBRANCH  18  24
ENDBRANCH   1  21
TORSDOF 7
