REMARK  Name = ZINCrH00000tj1dE.0
REMARK                            x       y       z     vdW  Elec       q    Type
REMARK                         _______ _______ _______ _____ _____    ______ ____
ROOT
ATOM      1  C   LIG    1        5.689   2.835  -0.035  0.00  0.00    +0.120 C 
ATOM      2  C   LIG    1        6.332   2.613   1.298  0.00  0.00    +0.090 C 
ATOM      3  C   LIG    1        5.572   3.948   1.612  0.00  0.00    +0.070 C 
ATOM      4  C   LIG    1        6.280   2.793  -1.429  0.00  0.00    +0.310 C 
ATOM      5  N   LIG    1        5.790   4.046  -2.037  0.00  0.00    -0.620 N 
ATOM      6  C   LIG    1        5.579   4.285  -3.346  0.00  0.00    +0.620 C 
ATOM      7  O   LIG    1        5.786   3.409  -4.166  0.00  0.00    -0.520 OA
ATOM      8  C   LIG    1        5.585   5.004  -0.914  0.00  0.00    +0.260 C 
ATOM      9  C   LIG    1        6.166   4.315   0.292  0.00  0.00    -0.040 C 
ENDROOT
BRANCH   6  10
ATOM     10  C   LIG    1        5.099   5.600  -3.784  0.00  0.00    -0.300 A 
ATOM     11  C   LIG    1        4.851   5.976  -5.064  0.00  0.00    +0.320 A 
ATOM     12  N   LIG    1        4.425   7.208  -5.188  0.00  0.00    -0.480 NA
ATOM     13  C   LIG    1        4.303   7.907  -4.106  0.00  0.00    +0.050 A 
ATOM     14  C   LIG    1        3.835   9.339  -4.055  0.00  0.00    +0.180 C 
ATOM     15  S   LIG    1        4.749   6.977  -2.742  0.00  0.00    +0.170 S 
ENDBRANCH   6  10
BRANCH   1  16
ATOM     16  N   LIG    1        4.232   2.682  -0.023  0.00  0.00    -0.680 N 
ATOM     17  H   LIG    1        3.662   3.467  -0.013  0.00  0.00    +0.410 HD
BRANCH  16  21
ATOM     18  C   LIG    1       -0.022   1.749   0.012  0.00  0.00    -0.170 A 
ATOM     19  C   LIG    1        1.200   2.247   0.003  0.00  0.00    +0.040 A 
ATOM     20  C   LIG    1        2.260   1.257  -0.013  0.00  0.00    -0.230 A 
ATOM     21  C   LIG    1        3.670   1.419  -0.025  0.00  0.00    +0.490 A 
ATOM     22  N   LIG    1        4.438   0.340  -0.038  0.00  0.00    -0.570 NA
ATOM     23  C   LIG    1        3.915  -0.873  -0.040  0.00  0.00    +0.560 A 
ATOM     24  N   LIG    1        2.617  -1.075  -0.029  0.00  0.00    -0.530 NA
ATOM     25  C   LIG    1        1.759  -0.047  -0.015  0.00  0.00    +0.120 A 
ATOM     26  S   LIG    1        0.002  -0.004   0.002  0.00  0.00    +0.170 S 
BRANCH  18  28
ATOM     27  C   LIG    1       -1.711   2.871  -1.417  0.00  0.00    +0.040 C 
ATOM     28  C   LIG    1       -1.278   2.582   0.022  0.00  0.00    +0.120 C 
ENDBRANCH  18  28
ENDBRANCH  16  21
ENDBRANCH   1  16
TORSDOF 4
