REMARK  Name = ZINCrH000004uYjs.0
REMARK                            x       y       z     vdW  Elec       q    Type
REMARK                         _______ _______ _______ _____ _____    ______ ____
ROOT
ATOM      1  C   LIG    1        5.196   6.467  -0.297  0.00  0.00    -0.120 A 
ATOM      2  C   LIG    1        4.228   7.472  -0.275  0.00  0.00    +0.030 A 
ATOM      3  C   LIG    1        2.893   7.141  -0.164  0.00  0.00    +0.040 A 
ATOM      4  C   LIG    1        2.508   5.816  -0.081  0.00  0.00    +0.050 A 
ATOM      5  C   LIG    1        3.465   4.808  -0.098  0.00  0.00    +0.140 A 
ATOM      6  C   LIG    1        4.809   5.130  -0.208  0.00  0.00    +0.060 A 
ENDROOT
BRANCH   1   8
ATOM      7  O   LIG    1        7.469   5.941  -0.436  0.00  0.00    -0.530 OA
ATOM      8  C   LIG    1        6.628   6.818  -0.416  0.00  0.00    +0.560 C 
ATOM      9  N   LIG    1        6.999   8.111  -0.502  0.00  0.00    -0.720 N 
ATOM     10  H   LIG    1        6.328   8.810  -0.486  0.00  0.00    +0.400 HD
BRANCH   9  11
ATOM     11  C   LIG    1        8.417   8.459  -0.620  0.00  0.00    +0.290 C 
ATOM     12  C   LIG    1        8.553   9.819  -1.309  0.00  0.00    +0.010 C 
ATOM     13  C   LIG    1       10.003  10.294  -1.157  0.00  0.00    +0.260 C 
ATOM     14  O   LIG    1       10.261  10.513   0.231  0.00  0.00    -0.320 OA
ATOM     15  C   LIG    1        9.915   9.531   1.104  0.00  0.00    +0.140 A 
ATOM     16  C   LIG    1       10.467   9.553   2.380  0.00  0.00    -0.020 A 
ATOM     17  C   LIG    1       10.137   8.575   3.296  0.00  0.00    +0.050 A 
ATOM     18  C   LIG    1        9.254   7.571   2.946  0.00  0.00    -0.040 A 
ATOM     19  C   LIG    1        8.705   7.545   1.678  0.00  0.00    +0.060 A 
ATOM     20  C   LIG    1        9.034   8.523   0.754  0.00  0.00    -0.180 A 
ENDBRANCH   9  11
ENDBRANCH   1   8
BRANCH   5  21
ATOM     21  N   LIG    1        3.072   3.469  -0.009  0.00  0.00    -0.660 N 
ATOM     22  H   LIG    1        3.574   2.783  -0.476  0.00  0.00    +0.420 HD
ATOM     23  C   LIG    1        1.994   3.131   0.727  0.00  0.00    +0.610 C 
ATOM     24  O   LIG    1        1.421   3.975   1.390  0.00  0.00    -0.500 OA
BRANCH  23  25
ATOM     25  C   LIG    1        1.512   1.746   0.728  0.00  0.00    -0.090 A 
ATOM     26  C   LIG    1        0.438   1.270   1.424  0.00  0.00    +0.050 A 
ATOM     27  C   LIG    1        0.343  -0.100   1.133  0.00  0.00    -0.070 A 
ATOM     28  C   LIG    1        1.350  -0.397   0.283  0.00  0.00    +0.220 A 
ATOM     29  O   LIG    1        2.053   0.718   0.041  0.00  0.00    -0.170 OA
ENDBRANCH  23  25
ENDBRANCH   5  21
TORSDOF 4
