REMARK  Name = ZINCrH000004v38d.0
REMARK                            x       y       z     vdW  Elec       q    Type
REMARK                         _______ _______ _______ _____ _____    ______ ____
ROOT
ATOM      1  C   LIG    1       -1.291   1.525   0.100  0.00  0.00    +0.180 A 
ATOM      2  C   LIG    1       -1.450   2.905   0.050  0.00  0.00    +0.020 A 
ATOM      3  C   LIG    1       -2.710   3.458   0.136  0.00  0.00    +0.080 A 
ATOM      4  C   LIG    1       -3.824   2.632   0.284  0.00  0.00    -0.040 A 
ATOM      5  C   LIG    1       -3.661   1.249   0.340  0.00  0.00    +0.050 A 
ATOM      6  C   LIG    1       -2.399   0.700   0.248  0.00  0.00    -0.020 A 
ENDROOT
BRANCH   1  11
ATOM      7  O   LIG    1        0.639   2.520  -1.440  0.00  0.00    -0.570 OA
ATOM      8  C   LIG    1        0.928   1.556  -0.758  0.00  0.00    +0.700 C 
ATOM      9  N   LIG    1        2.188   1.077  -0.767  0.00  0.00    -0.730 N 
ATOM     10  H   LIG    1        2.419   0.308  -0.223  0.00  0.00    +0.400 HD
ATOM     11  N   LIG    1       -0.011   0.966   0.007  0.00  0.00    -0.690 N 
ATOM     12  H   LIG    1        0.199   0.151   0.491  0.00  0.00    +0.410 HD
BRANCH   9  13
ATOM     13  C   LIG    1        3.209   1.719  -1.599  0.00  0.00    +0.270 C 
ATOM     14  C   LIG    1        3.578   0.909  -2.855  0.00  0.00    +0.050 C 
ATOM     15  C   LIG    1        5.034   1.309  -2.581  0.00  0.00    -0.160 C 
ATOM     16  C   LIG    1        6.309   0.716  -3.169  0.00  0.00    +0.040 C 
ATOM     17  C   LIG    1        5.953   2.183  -3.427  0.00  0.00    +0.050 C 
ATOM     18  C   LIG    1        4.647   1.474  -1.108  0.00  0.00    +0.070 C 
ENDBRANCH   9  13
ENDBRANCH   1  11
BRANCH   4  19
ATOM     19  C   LIG    1       -5.180   3.225   0.383  0.00  0.00    +0.130 A 
ATOM     20  C   LIG    1       -6.273   2.482   0.625  0.00  0.00    -0.070 A 
ATOM     21  S   LIG    1       -7.672   3.553   0.665  0.00  0.00    +0.050 S 
ATOM     22  C   LIG    1       -6.628   4.934   0.345  0.00  0.00    +0.270 A 
ATOM     23  N   LIG    1       -5.399   4.532   0.243  0.00  0.00    -0.480 NA
BRANCH  22  24
ATOM     24  N   LIG    1       -7.052   6.248   0.226  0.00  0.00    -0.440 N 
ATOM     25  C   LIG    1       -6.349   7.117   1.181  0.00  0.00    +0.190 C 
ATOM     26  C   LIG    1       -6.803   8.564   0.975  0.00  0.00    +0.240 C 
ATOM     27  O   LIG    1       -8.224   8.638   1.120  0.00  0.00    -0.380 OA
ATOM     28  C   LIG    1       -8.940   7.804   0.205  0.00  0.00    +0.250 C 
ATOM     29  C   LIG    1       -8.508   6.349   0.403  0.00  0.00    +0.180 C 
ENDBRANCH  22  24
ENDBRANCH   4  19
TORSDOF 4
