REMARK  Name = ZINCtV00000tRTQ1.1
REMARK                            x       y       z     vdW  Elec       q    Type
REMARK                         _______ _______ _______ _____ _____    ______ ____
ROOT
ATOM      1  C   LIG    1       -1.212   2.596  -1.469  0.00  0.00    +0.010 C 
ATOM      2  C   LIG    1       -0.340   2.370  -0.230  0.00  0.00    +0.030 C 
ATOM      3  C   LIG    1       -1.136   2.765   1.016  0.00  0.00    +0.110 C 
ATOM      4  C   LIG    1       -2.496   2.085   0.964  0.00  0.00    -0.180 A 
ATOM      5  C   LIG    1       -3.030   1.547  -0.139  0.00  0.00    -0.070 A 
ATOM      6  C   LIG    1       -4.335   0.961   0.076  0.00  0.00    -0.220 A 
ATOM      7  C   LIG    1       -5.173   0.312  -0.872  0.00  0.00    +0.510 A 
ATOM      8  N   LIG    1       -6.335  -0.140  -0.399  0.00  0.00    -0.560 NA
ATOM      9  C   LIG    1       -6.699  -0.003   0.860  0.00  0.00    +0.540 A 
ATOM     10  N   LIG    1       -5.962   0.591   1.783  0.00  0.00    -0.500 NA
ATOM     11  C   LIG    1       -4.773   1.079   1.403  0.00  0.00    +0.100 A 
ATOM     12  S   LIG    1       -3.564   1.909   2.349  0.00  0.00    +0.180 S 
ATOM     13  C   LIG    1       -2.329   1.552  -1.492  0.00  0.00    +0.090 C 
ENDROOT
BRANCH   1  14
ATOM     14  C   LIG    1       -0.356   2.457  -2.730  0.00  0.00    -0.060 C 
ATOM     15  C   LIG    1       -1.228   2.683  -3.966  0.00  0.00    +0.020 C 
ATOM     16  C   LIG    1        0.250   1.053  -2.782  0.00  0.00    +0.020 C 
BRANCH  14  18
ATOM     17  C   LIG    1        1.624   3.356  -3.961  0.00  0.00    +0.010 C 
ATOM     18  C   LIG    1        0.767   3.496  -2.701  0.00  0.00    +0.010 C 
ENDBRANCH  14  18
ENDBRANCH   1  14
BRANCH   7  19
ATOM     19  N   LIG    1       -4.807   0.160  -2.197  0.00  0.00    -0.550 N 
ATOM     20  H   LIG    1       -3.903   0.372  -2.478  0.00  0.00    +0.400 HD
BRANCH  19  21
ATOM     21  N   LIG    1       -5.741  -0.300  -3.133  0.00  0.00    -0.220 NA
ATOM     22  C   LIG    1       -5.397  -0.443  -4.377  0.00  0.00    +0.130 C 
ATOM     23  C   LIG    1       -3.993  -0.114  -4.813  0.00  0.00    +0.090 C 
BRANCH  22  24
ATOM     24  C   LIG    1       -6.381  -0.928  -5.363  0.00  0.00    -0.050 A 
ATOM     25  C   LIG    1       -6.016  -1.078  -6.703  0.00  0.00    +0.040 A 
ATOM     26  C   LIG    1       -6.940  -1.536  -7.619  0.00  0.00    +0.000 A 
ATOM     27  C   LIG    1       -8.229  -1.838  -7.215  0.00  0.00    -0.070 A 
ATOM     28  C   LIG    1       -8.598  -1.687  -5.890  0.00  0.00    +0.000 A 
ATOM     29  C   LIG    1       -9.234  -2.332  -8.222  0.00  0.00    +0.090 C 
ATOM     30  C   LIG    1       -7.684  -1.234  -4.962  0.00  0.00    +0.070 A 
ENDBRANCH  22  24
ENDBRANCH  19  21
ENDBRANCH   7  19
TORSDOF 5
