REMARK  Name = ZINCtV00000tRTQ1.0
REMARK                            x       y       z     vdW  Elec       q    Type
REMARK                         _______ _______ _______ _____ _____    ______ ____
ROOT
ATOM      1  C   LIG    1       -2.227   1.255   1.135  0.00  0.00    +0.000 C 
ATOM      2  C   LIG    1       -0.734   1.582   1.264  0.00  0.00    +0.030 C 
ATOM      3  C   LIG    1       -0.013   1.086   0.008  0.00  0.00    +0.120 C 
ATOM      4  C   LIG    1       -0.751   1.591  -1.218  0.00  0.00    -0.160 A 
ATOM      5  C   LIG    1       -2.006   2.064  -1.204  0.00  0.00    -0.070 A 
ATOM      6  C   LIG    1       -2.481   2.483  -2.501  0.00  0.00    -0.120 A 
ATOM      7  C   LIG    1       -3.752   3.028  -2.840  0.00  0.00    +0.360 A 
ATOM      8  N   LIG    1       -3.923   3.328  -4.130  0.00  0.00    -0.510 NA
ATOM      9  C   LIG    1       -2.991   3.141  -5.038  0.00  0.00    +0.510 A 
ATOM     10  N   LIG    1       -1.794   2.639  -4.782  0.00  0.00    -0.450 NA
ATOM     11  C   LIG    1       -1.523   2.305  -3.518  0.00  0.00    +0.070 A 
ATOM     12  S   LIG    1       -0.067   1.627  -2.837  0.00  0.00    +0.180 S 
ATOM     13  C   LIG    1       -2.847   2.153   0.064  0.00  0.00    +0.130 C 
ENDROOT
BRANCH   1  14
ATOM     14  C   LIG    1       -2.921   1.505   2.476  0.00  0.00    -0.060 C 
ATOM     15  C   LIG    1       -4.412   1.187   2.345  0.00  0.00    +0.020 C 
ATOM     16  C   LIG    1       -2.745   2.971   2.876  0.00  0.00    +0.030 C 
BRANCH  14  18
ATOM     17  C   LIG    1       -2.994   0.856   4.887  0.00  0.00    +0.010 C 
ATOM     18  C   LIG    1       -2.300   0.606   3.547  0.00  0.00    +0.010 C 
ENDBRANCH  14  18
ENDBRANCH   1  14
BRANCH   7  19
ATOM     19  N   LIG    1       -4.733   3.229  -1.905  0.00  0.00    -0.190 NA
ATOM     20  N   LIG    1       -5.825   3.706  -2.247  0.00  0.00    -0.140 NA
BRANCH  20  21
ATOM     21  C   LIG    1       -6.875   3.922  -1.248  0.00  0.00    +0.190 C 
ATOM     22  C   LIG    1       -7.330   2.572  -0.688  0.00  0.00    +0.070 C 
BRANCH  21  23
ATOM     23  C   LIG    1       -8.046   4.619  -1.891  0.00  0.00    -0.090 A 
ATOM     24  C   LIG    1       -8.443   4.268  -3.168  0.00  0.00    +0.050 A 
ATOM     25  C   LIG    1       -9.520   4.904  -3.757  0.00  0.00    +0.000 A 
ATOM     26  C   LIG    1      -10.193   5.899  -3.072  0.00  0.00    -0.080 A 
ATOM     27  C   LIG    1       -9.793   6.254  -1.798  0.00  0.00    +0.000 A 
ATOM     28  C   LIG    1      -11.364   6.596  -3.716  0.00  0.00    +0.090 C 
ATOM     29  C   LIG    1       -8.719   5.614  -1.207  0.00  0.00    +0.020 A 
ENDBRANCH  21  23
ENDBRANCH  20  21
ENDBRANCH   7  19
TORSDOF 5
