REMARK  Name = ZINCrD000000fRWf.0
REMARK                            x       y       z     vdW  Elec       q    Type
REMARK                         _______ _______ _______ _____ _____    ______ ____
ROOT
ATOM      1  N   LIG    1       -3.011   5.191   0.403  0.00  0.00    -0.610 N 
ATOM      2  H   LIG    1       -2.252   5.763   0.597  0.00  0.00    +0.430 HD
ATOM      3  C   LIG    1       -2.843   3.857   0.307  0.00  0.00    +0.510 C 
ATOM      4  O   LIG    1       -3.792   3.142   0.065  0.00  0.00    -0.490 OA
ENDROOT
BRANCH   1   8
ATOM      5  C   LIG    1       -6.631   6.330  -0.155  0.00  0.00    -0.390 A 
ATOM      6  C   LIG    1       -5.774   7.386   0.103  0.00  0.00    +0.240 A 
ATOM      7  N   LIG    1       -4.528   7.015   0.298  0.00  0.00    -0.510 NA
ATOM      8  C   LIG    1       -4.266   5.744   0.225  0.00  0.00    +0.250 A 
ATOM      9  S   LIG    1       -5.678   4.849  -0.127  0.00  0.00    +0.320 S 
BRANCH   6  10
ATOM     10  C   LIG    1       -6.218   8.798   0.156  0.00  0.00    -0.040 A 
ATOM     11  C   LIG    1       -5.488   9.787  -0.505  0.00  0.00    +0.040 A 
ATOM     12  C   LIG    1       -5.910  11.099  -0.457  0.00  0.00    +0.000 A 
ATOM     13  C   LIG    1       -7.048  11.438   0.254  0.00  0.00    +0.020 A 
ATOM     14  C   LIG    1       -7.773  10.463   0.916  0.00  0.00    +0.000 A 
ATOM     15  C   LIG    1       -7.364   9.146   0.871  0.00  0.00    +0.070 A 
ENDBRANCH   6  10
BRANCH   5  17
ATOM     16  C   LIG    1       -8.842   5.170  -0.520  0.00  0.00    +0.070 C 
ATOM     17  C   LIG    1       -8.012   6.422  -0.401  0.00  0.00    +0.420 C 
ATOM     18  O   LIG    1       -8.537   7.512  -0.518  0.00  0.00    -0.440 OA
ENDBRANCH   5  17
ENDBRANCH   1   8
BRANCH   3  19
ATOM     19  C   LIG    1       -1.475   3.255   0.501  0.00  0.00    +0.350 C 
BRANCH  19  20
ATOM     20  N   LIG    1       -1.556   1.800   0.348  0.00  0.00    -0.720 N 
ATOM     21  H   LIG    1       -2.408   1.380   0.152  0.00  0.00    +0.410 HD
ATOM     22  C   LIG    1       -0.448   1.045   0.480  0.00  0.00    +0.570 C 
ATOM     23  O   LIG    1        0.621   1.572   0.722  0.00  0.00    -0.530 OA
BRANCH  22  24
ATOM     24  C   LIG    1       -0.529  -0.423   0.326  0.00  0.00    -0.140 A 
ATOM     25  C   LIG    1       -1.756  -1.032   0.054  0.00  0.00    +0.050 A 
ATOM     26  C   LIG    1       -1.825  -2.401  -0.094  0.00  0.00    +0.000 A 
ATOM     27  C   LIG    1       -0.683  -3.173   0.037  0.00  0.00    +0.040 A 
ATOM     28  C   LIG    1        0.535  -2.576   0.311  0.00  0.00    +0.000 A 
ATOM     29  C   LIG    1        0.618  -1.206   0.456  0.00  0.00    +0.080 A 
ENDBRANCH  22  24
ENDBRANCH  19  20
ENDBRANCH   3  19
TORSDOF 6
