REMARK  Name = ZINCkj00000kKfng.2
REMARK                            x       y       z     vdW  Elec       q    Type
REMARK                         _______ _______ _______ _____ _____    ______ ____
ROOT
ATOM      1  N   LIG    1        2.798   4.379  -1.411  0.00  0.00    -0.380 N 
ATOM      2  C   LIG    1        3.969   5.271  -1.462  0.00  0.00    +0.290 C 
ATOM      3  C   LIG    1        4.960   4.637  -2.457  0.00  0.00    +0.060 C 
ATOM      4  C   LIG    1        4.609   5.104  -3.879  0.00  0.00    +0.080 C 
ATOM      5  C   LIG    1        5.226   4.071  -4.856  0.00  0.00    -0.280 C 
ATOM      6  S   LIG    1        4.835   2.474  -4.047  0.00  0.00    +2.400 S 
ATOM      7  O   LIG    1        5.972   1.623  -4.112  0.00  0.00    -0.900 OA
ATOM      8  O   LIG    1        3.575   2.008  -4.510  0.00  0.00    -0.910 OA
ATOM      9  C   LIG    1        4.655   3.119  -2.347  0.00  0.00    -0.420 C 
ATOM     10  C   LIG    1        3.176   3.057  -1.935  0.00  0.00    +0.300 C 
ATOM     11  H   LIG    1        2.055   4.765  -1.973  0.00  0.00    +0.430 HD
ENDROOT
BRANCH   1  12
ATOM     12  C   LIG    1        2.344   4.244  -0.020  0.00  0.00    +0.330 C 
BRANCH  12  18
ATOM     13  C   LIG    1       -0.130   4.022  -0.381  0.00  0.00    +0.100 A 
ATOM     14  C   LIG    1       -1.302   3.279  -0.346  0.00  0.00    -0.010 A 
ATOM     15  C   LIG    1       -1.275   1.968   0.087  0.00  0.00    +0.070 A 
ATOM     16  C   LIG    1       -0.080   1.392   0.477  0.00  0.00    +0.030 A 
ATOM     17  C   LIG    1        1.090   2.129   0.444  0.00  0.00    +0.050 A 
ATOM     18  C   LIG    1        1.069   3.442   0.016  0.00  0.00    -0.140 A 
BRANCH  13  20
ATOM     19  C   LIG    1       -0.566   5.436  -2.222  0.00  0.00    +0.210 C 
ATOM     20  N   LIG    1       -0.155   5.350  -0.814  0.00  0.00    -0.530 N 
ATOM     21  C   LIG    1       -1.028   6.166   0.040  0.00  0.00    +0.220 C 
ENDBRANCH  13  20
ENDBRANCH  12  18
ENDBRANCH   1  12
TORSDOF 3
