REMARK  Name = ZINCkj00000kKfng.1
REMARK                            x       y       z     vdW  Elec       q    Type
REMARK                         _______ _______ _______ _____ _____    ______ ____
ROOT
ATOM      1  N   LIG    1        1.625   1.636  -0.071  0.00  0.00    -0.380 N 
ATOM      2  C   LIG    1        2.413   0.817  -1.016  0.00  0.00    +0.280 C 
ATOM      3  C   LIG    1        1.672  -0.526  -1.190  0.00  0.00    +0.050 C 
ATOM      4  C   LIG    1        1.183  -0.632  -2.646  0.00  0.00    +0.080 C 
ATOM      5  C   LIG    1        0.005  -1.634  -2.670  0.00  0.00    -0.270 C 
ATOM      6  S   LIG    1       -0.959  -1.151  -1.167  0.00  0.00    +2.400 S 
ATOM      7  O   LIG    1       -1.905  -0.140  -1.486  0.00  0.00    -0.910 OA
ATOM      8  O   LIG    1       -1.381  -2.332  -0.499  0.00  0.00    -0.900 OA
ATOM      9  C   LIG    1        0.436  -0.407  -0.257  0.00  0.00    -0.430 C 
ATOM     10  C   LIG    1        0.232   1.121  -0.150  0.00  0.00    +0.320 C 
ATOM     11  H   LIG    1        1.983   1.527   0.866  0.00  0.00    +0.430 HD
ENDROOT
BRANCH   1  12
ATOM     12  C   LIG    1        1.665   3.049  -0.471  0.00  0.00    +0.330 C 
BRANCH  12  18
ATOM     13  C   LIG    1        3.495   3.923   1.008  0.00  0.00    +0.100 A 
ATOM     14  C   LIG    1        4.779   4.420   1.190  0.00  0.00    -0.010 A 
ATOM     15  C   LIG    1        5.617   4.579   0.104  0.00  0.00    +0.070 A 
ATOM     16  C   LIG    1        5.179   4.244  -1.164  0.00  0.00    +0.030 A 
ATOM     17  C   LIG    1        3.902   3.745  -1.349  0.00  0.00    +0.060 A 
ATOM     18  C   LIG    1        3.058   3.588  -0.268  0.00  0.00    -0.140 A 
BRANCH  13  20
ATOM     19  C   LIG    1        3.222   2.831   3.084  0.00  0.00    +0.210 C 
ATOM     20  N   LIG    1        2.645   3.761   2.104  0.00  0.00    -0.530 N 
ATOM     21  C   LIG    1        2.334   5.055   2.725  0.00  0.00    +0.220 C 
ENDBRANCH  13  20
ENDBRANCH  12  18
ENDBRANCH   1  12
TORSDOF 3
