REMARK  Name = ZINCvU00000006ad.0
REMARK                            x       y       z     vdW  Elec       q    Type
REMARK                         _______ _______ _______ _____ _____    ______ ____
ROOT
ATOM      1  C   LIG    1       -3.006  -2.994   1.944  0.00  0.00    +0.130 C 
ATOM      2  C   LIG    1       -2.818  -1.831   1.281  0.00  0.00    -0.200 C 
ATOM      3  C   LIG    1       -1.432  -1.331   0.928  0.00  0.00    +0.090 C 
ATOM      4  C   LIG    1       -1.307   0.131   1.367  0.00  0.00    +0.010 C 
ATOM      5  C   LIG    1       -2.353   0.984   0.643  0.00  0.00    +0.090 C 
ATOM      6  C   LIG    1       -3.734   0.473   0.999  0.00  0.00    -0.200 C 
ATOM      7  C   LIG    1       -4.714   1.303   1.419  0.00  0.00    +0.110 C 
ATOM      8  C   LIG    1       -3.954  -0.983   0.862  0.00  0.00    +0.430 C 
ATOM      9  O   LIG    1       -4.996  -1.450   0.434  0.00  0.00    -0.440 OA
ENDROOT
BRANCH   1  12
ATOM     10  C   LIG    1       -3.944  -5.886   2.732  0.00  0.00    +0.150 C 
ATOM     11  C   LIG    1       -4.778  -4.631   2.765  0.00  0.00    +0.090 A 
ATOM     12  C   LIG    1       -4.348  -3.362   2.414  0.00  0.00    -0.170 A 
ATOM     13  C   LIG    1       -5.449  -2.489   2.587  0.00  0.00    +0.080 A 
ATOM     14  C   LIG    1       -6.491  -3.245   3.037  0.00  0.00    +0.040 A 
ATOM     15  N   LIG    1       -6.066  -4.551   3.144  0.00  0.00    -0.420 N 
ATOM     16  C   LIG    1       -6.890  -5.676   3.594  0.00  0.00    +0.320 C 
BRANCH  14  17
ATOM     17  C   LIG    1       -7.803  -2.763   3.344  0.00  0.00    +0.280 C 
ATOM     18  N   LIG    1       -8.845  -2.380   3.588  0.00  0.00    -0.410 NA
ENDBRANCH  14  17
ENDBRANCH   1  12
BRANCH   7  19
ATOM     19  C   LIG    1       -4.505   2.757   1.397  0.00  0.00    -0.160 A 
ATOM     20  C   LIG    1       -5.194   3.699   2.141  0.00  0.00    +0.090 A 
ATOM     21  N   LIG    1       -4.705   4.916   1.839  0.00  0.00    -0.410 N 
ATOM     22  C   LIG    1       -3.709   4.784   0.898  0.00  0.00    +0.040 A 
ATOM     23  C   LIG    1       -5.165   6.182   2.417  0.00  0.00    +0.330 C 
ATOM     24  C   LIG    1       -6.300   3.411   3.123  0.00  0.00    +0.140 C 
ATOM     25  C   LIG    1       -3.564   3.460   0.607  0.00  0.00    +0.070 A 
BRANCH  22  26
ATOM     26  C   LIG    1       -2.953   5.856   0.323  0.00  0.00    +0.280 C 
ATOM     27  N   LIG    1       -2.353   6.706  -0.134  0.00  0.00    -0.400 NA
ENDBRANCH  22  26
ENDBRANCH   7  19
BRANCH   4  28
ATOM     28  C   LIG    1        0.093   0.646   1.025  0.00  0.00    -0.060 C 
ATOM     29  C   LIG    1        0.222   2.105   1.467  0.00  0.00    +0.020 C 
ATOM     30  C   LIG    1        1.139  -0.202   1.752  0.00  0.00    +0.020 C 
ATOM     31  C   LIG    1        0.317   0.549  -0.485  0.00  0.00    +0.020 C 
ENDBRANCH   4  28
TORSDOF 5
