REMARK  Name = ZINCrD000000AthZ.0
REMARK                            x       y       z     vdW  Elec       q    Type
REMARK                         _______ _______ _______ _____ _____    ______ ____
ROOT
ATOM      1  C   LIG    1        1.164   7.855  -3.020  0.00  0.00    +0.120 C 
ENDROOT
BRANCH   1   3
ATOM      2  O   LIG    1        1.239   8.126  -0.677  0.00  0.00    -0.520 OA
ATOM      3  C   LIG    1        1.086   7.355  -1.601  0.00  0.00    +0.530 C 
ATOM      4  N   LIG    1        0.847   6.051  -1.358  0.00  0.00    -0.720 N 
ATOM      5  H   LIG    1        0.725   5.435  -2.097  0.00  0.00    +0.410 HD
BRANCH   4   6
ATOM      6  C   LIG    1        0.771   5.565   0.022  0.00  0.00    +0.340 C 
BRANCH   6   7
ATOM      7  C   LIG    1        0.496   4.083   0.018  0.00  0.00    -0.100 A 
ATOM      8  C   LIG    1       -0.808   3.624   0.028  0.00  0.00    +0.050 A 
ATOM      9  C   LIG    1       -1.065   2.265   0.019  0.00  0.00    +0.040 A 
ATOM     10  C   LIG    1       -0.016   1.361   0.009  0.00  0.00    +0.040 A 
ATOM     11  O   LIG    1        0.002  -0.004   0.002  0.00  0.00    -0.310 OA
ATOM     12  C   LIG    1        1.336  -0.373   0.399  0.00  0.00    +0.430 C 
ATOM     13  O   LIG    1        2.139   0.749  -0.014  0.00  0.00    -0.310 OA
ATOM     14  C   LIG    1        1.297   1.824  -0.001  0.00  0.00    +0.030 A 
ATOM     15  C   LIG    1        1.548   3.186   0.004  0.00  0.00    +0.060 A 
ENDBRANCH   6   7
ENDBRANCH   4   6
ENDBRANCH   1   3
BRANCH   1  16
ATOM     16  S   LIG    1        1.495   9.635  -3.015  0.00  0.00    +0.060 S 
BRANCH  16  17
ATOM     17  C   LIG    1        1.534   9.943  -4.750  0.00  0.00    +0.190 A 
ATOM     18  N   LIG    1        1.363   9.045  -5.689  0.00  0.00    -0.480 NA
ATOM     19  C   LIG    1        1.456   9.647  -6.902  0.00  0.00    +0.040 A 
ATOM     20  C   LIG    1        1.703  10.964  -6.696  0.00  0.00    +0.170 A 
ATOM     21  N   LIG    1        1.752  11.153  -5.335  0.00  0.00    -0.550 N 
ATOM     22  H   LIG    1        1.914  11.993  -4.877  0.00  0.00    +0.430 HD
BRANCH  19  23
ATOM     23  C   LIG    1        1.320   8.980  -8.220  0.00  0.00    -0.010 A 
ATOM     24  C   LIG    1        1.440   9.722  -9.394  0.00  0.00    +0.050 A 
ATOM     25  C   LIG    1        1.318   9.096 -10.618  0.00  0.00    -0.010 A 
ATOM     26  C   LIG    1        1.064   7.736 -10.681  0.00  0.00    +0.100 A 
ATOM     27  C   LIG    1        0.938   6.996  -9.516  0.00  0.00    -0.010 A 
ATOM     28  F   LIG    1        0.939   7.128 -11.881  0.00  0.00    -0.140 F 
ATOM     29  C   LIG    1        1.065   7.612  -8.288  0.00  0.00    +0.070 A 
ENDBRANCH  19  23
ENDBRANCH  16  17
ENDBRANCH   1  16
TORSDOF 6
