REMARK  Name = ZINCrD000000BpKz.0
REMARK                            x       y       z     vdW  Elec       q    Type
REMARK                         _______ _______ _______ _____ _____    ______ ____
ROOT
ATOM      1  O   LIG    1       -1.043   3.857   0.607  0.00  0.00    -0.590 OA
ATOM      2  C   LIG    1       -1.360   2.945   1.346  0.00  0.00    +0.710 C 
ATOM      3  N   LIG    1       -2.027   3.205   2.488  0.00  0.00    -0.630 N 
ATOM      4  C   LIG    1       -2.522   2.109   3.332  0.00  0.00    +0.260 C 
ATOM      5  C   LIG    1       -4.019   2.316   3.581  0.00  0.00    +0.020 C 
ATOM      6  C   LIG    1       -4.246   3.712   4.167  0.00  0.00    +0.040 C 
ATOM      7  C   LIG    1       -3.772   4.769   3.168  0.00  0.00    -0.020 C 
ATOM      8  C   LIG    1       -2.267   4.590   2.917  0.00  0.00    +0.310 C 
ATOM      9  N   LIG    1       -1.044   1.675   1.024  0.00  0.00    -0.740 N 
ATOM     10  H   LIG    1       -1.358   0.942   1.576  0.00  0.00    +0.400 HD
ENDROOT
BRANCH   7  11
ATOM     11  C   LIG    1       -4.030   6.165   3.740  0.00  0.00    +0.330 C 
ATOM     12  O   LIG    1       -5.438   6.340   3.968  0.00  0.00    -0.380 OA
ATOM     13  C   LIG    1       -5.694   7.730   3.655  0.00  0.00    +0.210 C 
ATOM     14  C   LIG    1       -4.730   7.967   2.465  0.00  0.00    +0.200 C 
ATOM     15  O   LIG    1       -3.586   7.158   2.806  0.00  0.00    -0.380 OA
ENDBRANCH   7  11
BRANCH   9  16
ATOM     16  C   LIG    1       -0.226   1.402  -0.160  0.00  0.00    +0.320 C 
BRANCH  16  17
ATOM     17  C   LIG    1       -0.019  -0.085  -0.295  0.00  0.00    -0.150 A 
ATOM     18  C   LIG    1        1.071  -0.687   0.306  0.00  0.00    +0.070 A 
ATOM     19  C   LIG    1        1.260  -2.051   0.189  0.00  0.00    -0.030 A 
ATOM     20  C   LIG    1        0.362  -2.814  -0.543  0.00  0.00    +0.140 A 
ATOM     21  C   LIG    1       -0.728  -2.206  -1.150  0.00  0.00    -0.080 A 
ATOM     22  C   LIG    1       -0.916  -0.843  -1.024  0.00  0.00    +0.070 A 
BRANCH  20  23
ATOM     23  O   LIG    1        0.549  -4.154  -0.665  0.00  0.00    -0.310 OA
BRANCH  23  24
ATOM     24  C   LIG    1       -0.466  -4.891  -1.351  0.00  0.00    +0.160 C 
ATOM     25  C   LIG    1       -1.583  -5.294  -0.366  0.00  0.00    +0.000 C 
ATOM     26  C   LIG    1       -2.007  -6.710  -0.833  0.00  0.00    +0.020 C 
ATOM     27  C   LIG    1       -0.660  -7.352  -1.248  0.00  0.00    +0.020 C 
ATOM     28  C   LIG    1        0.120  -6.199  -1.912  0.00  0.00    +0.040 C 
ENDBRANCH  23  24
ENDBRANCH  20  23
ENDBRANCH  16  17
ENDBRANCH   9  16
TORSDOF 5
