REMARK  Name = ZINCpk000000nKS6.0
REMARK                            x       y       z     vdW  Elec       q    Type
REMARK                         _______ _______ _______ _____ _____    ______ ____
ROOT
ATOM      1  C   LIG    1        5.779   1.668  -0.023  0.00  0.00    +0.520 C 
ATOM      2  N   LIG    1        6.621   1.427  -1.048  0.00  0.00    -0.720 N 
ATOM      3  H   LIG    1        6.308   0.948  -1.830  0.00  0.00    +0.400 HD
ATOM      4  O   LIG    1        6.171   2.268   0.956  0.00  0.00    -0.520 OA
ENDROOT
BRANCH   2   5
ATOM      5  C   LIG    1        8.009   1.891  -0.979  0.00  0.00    +0.250 C 
ATOM      6  C   LIG    1        8.587   2.081  -2.400  0.00  0.00    +0.060 C 
ATOM      7  C   LIG    1       10.049   1.620  -2.211  0.00  0.00    +0.280 C 
ATOM      8  N   LIG    1       10.024   0.695  -1.072  0.00  0.00    -0.530 N 
ATOM      9  C   LIG    1        8.892   0.829  -0.359  0.00  0.00    +0.500 C 
ATOM     10  O   LIG    1        8.617   0.192   0.636  0.00  0.00    -0.500 OA
BRANCH   8  11
ATOM     11  C   LIG    1       11.052  -0.216  -0.765  0.00  0.00    +0.000 A 
ATOM     12  C   LIG    1       11.067  -1.083   0.280  0.00  0.00    +0.230 A 
ATOM     13  N   LIG    1       12.229  -1.782   0.216  0.00  0.00    -0.370 N 
ATOM     14  N   LIG    1       12.948  -1.321  -0.895  0.00  0.00    -0.280 NA
ATOM     15  C   LIG    1       12.659  -2.828   1.147  0.00  0.00    +0.360 C 
ATOM     16  C   LIG    1       12.245  -0.387  -1.482  0.00  0.00    +0.230 A 
ENDBRANCH   8  11
ENDBRANCH   2   5
BRANCH   1  17
ATOM     17  C   LIG    1        4.351   1.192  -0.094  0.00  0.00    +0.060 C 
BRANCH  17  20
ATOM     18  C   LIG    1        1.423   1.615  -0.003  0.00  0.00    +0.150 C 
ATOM     19  C   LIG    1        2.199   1.010   1.170  0.00  0.00    +0.000 C 
ATOM     20  C   LIG    1        3.616   1.591   1.188  0.00  0.00    +0.010 C 
ATOM     21  C   LIG    1        3.530   3.118   1.274  0.00  0.00    +0.000 C 
ATOM     22  C   LIG    1        2.702   3.642   0.097  0.00  0.00    +0.190 C 
ATOM     23  O   LIG    1        1.406   3.039   0.122  0.00  0.00    -0.370 OA
BRANCH  18  25
ATOM     24  C   LIG    1       -0.753   1.593  -1.232  0.00  0.00    +0.010 C 
ATOM     25  C   LIG    1       -0.013   1.086   0.008  0.00  0.00    -0.010 C 
ATOM     26  C   LIG    1       -0.729   1.579   1.267  0.00  0.00    +0.010 C 
ENDBRANCH  18  25
ENDBRANCH  17  20
ENDBRANCH   1  17
TORSDOF 5
