REMARK  Name = ZINCrD00000fC4u4.0
REMARK                            x       y       z     vdW  Elec       q    Type
REMARK                         _______ _______ _______ _____ _____    ______ ____
ROOT
ATOM      1  O   LIG    1        0.687  -0.046  -2.271  0.00  0.00    -0.450 OA
ATOM      2  C   LIG    1       -0.154   0.820  -2.385  0.00  0.00    +0.520 C 
ATOM      3  N   LIG    1       -0.603   1.165  -3.608  0.00  0.00    -0.630 N 
ATOM      4  H   LIG    1       -1.275   1.858  -3.700  0.00  0.00    +0.430 HD
ENDROOT
BRANCH   3   5
ATOM      5  C   LIG    1       -0.103   0.530  -4.735  0.00  0.00    +0.540 A 
ATOM      6  N   LIG    1        0.805  -0.420  -4.750  0.00  0.00    -0.510 NA
ATOM      7  C   LIG    1        1.043  -0.796  -6.008  0.00  0.00    +0.460 A 
ATOM      8  N   LIG    1        0.293  -0.095  -6.815  0.00  0.00    -0.280 NA
ATOM      9  N   LIG    1       -0.468   0.774  -6.016  0.00  0.00    -0.340 N 
BRANCH   9  10
ATOM     10  C   LIG    1       -1.409   1.704  -6.455  0.00  0.00    +0.560 A 
ATOM     11  N   LIG    1       -2.045   2.449  -5.564  0.00  0.00    -0.560 NA
ATOM     12  C   LIG    1       -2.941   3.344  -5.947  0.00  0.00    +0.380 A 
ATOM     13  C   LIG    1       -3.217   3.489  -7.297  0.00  0.00    -0.080 A 
ATOM     14  C   LIG    1       -2.537   2.689  -8.202  0.00  0.00    +0.370 A 
ATOM     15  N   LIG    1       -1.649   1.817  -7.752  0.00  0.00    -0.500 NA
ENDBRANCH   9  10
ENDBRANCH   3   5
BRANCH   2  16
ATOM     16  C   LIG    1       -0.697   1.510  -1.161  0.00  0.00    +0.100 C 
BRANCH  16  17
ATOM     17  C   LIG    1        0.033   0.994   0.081  0.00  0.00    +0.070 C 
BRANCH  17  18
ATOM     18  C   LIG    1       -0.302  -0.460   0.293  0.00  0.00    -0.090 A 
ATOM     19  C   LIG    1       -1.614  -0.843   0.499  0.00  0.00    +0.040 A 
ATOM     20  C   LIG    1       -1.923  -2.177   0.688  0.00  0.00    +0.030 A 
ATOM     21  C   LIG    1       -0.917  -3.127   0.682  0.00  0.00    -0.020 A 
ATOM     22  C   LIG    1        0.397  -2.742   0.482  0.00  0.00    +0.030 A 
ATOM     23 CL   LIG    1       -1.303  -4.802   0.926  0.00  0.00    -0.070 Cl
ATOM     24  C   LIG    1        0.703  -1.409   0.287  0.00  0.00    +0.090 A 
ENDBRANCH  17  18
BRANCH  17  25
ATOM     25  C   LIG    1       -0.406   1.802   1.304  0.00  0.00    +0.460 C 
ATOM     26  F   LIG    1        0.024   3.127   1.166  0.00  0.00    -0.180 F 
ATOM     27  F   LIG    1        0.157   1.246   2.457  0.00  0.00    -0.170 F 
ATOM     28  F   LIG    1       -1.801   1.773   1.405  0.00  0.00    -0.180 F 
ENDBRANCH  17  25
ENDBRANCH  16  17
ENDBRANCH   2  16
TORSDOF 6
