REMARK  Name = ZINCAx00000008Fa.0
REMARK                            x       y       z     vdW  Elec       q    Type
REMARK                         _______ _______ _______ _____ _____    ______ ____
ROOT
ATOM      1  C   LIG    1        5.461  -2.269  -3.063  0.00  0.00    +0.240 C 
ENDROOT
BRANCH   1   2
ATOM      2  N   LIG    1        6.745  -2.982  -3.079  0.00  0.00    -0.510 NA
ATOM      3  C   LIG    1        7.032  -3.519  -4.415  0.00  0.00    +0.170 C 
ATOM      4  C   LIG    1        8.300  -4.375  -4.360  0.00  0.00    +0.050 C 
ATOM      5  C   LIG    1        9.470  -3.516  -3.872  0.00  0.00    +0.000 C 
ATOM      6  C   LIG    1        9.125  -2.929  -2.501  0.00  0.00    +0.220 C 
ATOM      7  C   LIG    1        7.834  -2.115  -2.610  0.00  0.00    +0.210 C 
BRANCH   6   8
ATOM      8  O   LIG    1       10.206  -2.067  -2.057  0.00  0.00    -0.360 OA
BRANCH   8   9
ATOM      9  C   LIG    1       11.189  -2.640  -1.337  0.00  0.00    +0.650 C 
ATOM     10  N   LIG    1       12.222  -1.895  -0.894  0.00  0.00    -0.610 N 
ATOM     11  C   LIG    1       12.275  -0.463  -1.197  0.00  0.00    +0.290 C 
ATOM     12  C   LIG    1       13.291  -2.519  -0.111  0.00  0.00    +0.310 C 
ATOM     13  O   LIG    1       11.145  -3.828  -1.086  0.00  0.00    -0.570 OA
ENDBRANCH   8   9
ENDBRANCH   6   8
ENDBRANCH   1   2
BRANCH   1  14
ATOM     14  C   LIG    1        4.369  -3.190  -3.543  0.00  0.00    -0.230 A 
ATOM     15  C   LIG    1        3.341  -2.850  -4.354  0.00  0.00    +0.270 A 
ATOM     16  N   LIG    1        2.584  -3.962  -4.547  0.00  0.00    -0.320 N 
ATOM     17  N   LIG    1        3.174  -5.011  -3.829  0.00  0.00    -0.280 NA
ATOM     18  C   LIG    1        4.244  -4.549  -3.234  0.00  0.00    +0.300 A 
BRANCH  16  19
ATOM     19  C   LIG    1        1.425  -4.045  -5.323  0.00  0.00    +0.370 A 
ATOM     20  C   LIG    1        0.756  -5.257  -5.433  0.00  0.00    -0.010 A 
ATOM     21  C   LIG    1       -0.394  -5.325  -6.201  0.00  0.00    +0.100 A 
ATOM     22  C   LIG    1       -0.830  -4.174  -6.843  0.00  0.00    -0.050 A 
ATOM     23  C   LIG    1       -0.111  -3.004  -6.694  0.00  0.00    +0.300 A 
ATOM     24  N   LIG    1        0.978  -2.969  -5.952  0.00  0.00    -0.510 NA
ENDBRANCH  16  19
ENDBRANCH   1  14
BRANCH   1  27
ATOM     25  N   LIG    1        4.019  -1.137  -1.402  0.00  0.00    -0.720 N 
ATOM     26  H   LIG    1        3.399  -0.940  -2.121  0.00  0.00    +0.400 HD
ATOM     27  C   LIG    1        5.154  -1.817  -1.659  0.00  0.00    +0.520 C 
ATOM     28  O   LIG    1        5.930  -2.063  -0.759  0.00  0.00    -0.520 OA
BRANCH  25  29
ATOM     29  C   LIG    1        3.721  -0.698  -0.037  0.00  0.00    +0.330 C 
BRANCH  29  35
ATOM     30  C   LIG    1        1.213  -0.680  -0.013  0.00  0.00    +0.150 A 
ATOM     31  C   LIG    1        0.002  -0.004   0.002  0.00  0.00    -0.080 A 
ATOM     32  C   LIG    1       -0.017   1.377   0.010  0.00  0.00    +0.060 A 
ATOM     33  C   LIG    1        1.170   2.086   0.002  0.00  0.00    -0.030 A 
ATOM     34  C   LIG    1        2.379   1.415  -0.013  0.00  0.00    +0.070 A 
ATOM     35  C   LIG    1        2.403   0.034  -0.021  0.00  0.00    -0.150 A 
BRANCH  30  37
ATOM     36  C   LIG    1       -0.029  -2.707  -0.013  0.00  0.00    +0.240 C 
ATOM     37  O   LIG    1        1.234  -2.039  -0.021  0.00  0.00    -0.310 OA
ENDBRANCH  30  37
ENDBRANCH  29  35
ENDBRANCH  25  29
ENDBRANCH   1  27
TORSDOF 9
