REMARK  Name = ZINCtV000002EB1x.0
REMARK                            x       y       z     vdW  Elec       q    Type
REMARK                         _______ _______ _______ _____ _____    ______ ____
ROOT
ATOM      1  C   LIG    1       -1.700  -3.730  -0.125  0.00  0.00    +0.300 A 
ATOM      2  N   LIG    1       -2.809  -3.759   0.554  0.00  0.00    -0.470 NA
ATOM      3  C   LIG    1       -3.532  -4.853   0.203  0.00  0.00    +0.060 A 
ATOM      4  C   LIG    1       -4.769  -5.361   0.608  0.00  0.00    +0.090 A 
ATOM      5  C   LIG    1       -5.245  -6.527   0.050  0.00  0.00    -0.040 A 
ATOM      6  C   LIG    1       -4.505  -7.201  -0.913  0.00  0.00    +0.050 A 
ATOM      7  C   LIG    1       -3.283  -6.713  -1.324  0.00  0.00    +0.030 A 
ATOM      8 CL   LIG    1       -6.782  -7.158   0.554  0.00  0.00    -0.060 Cl
ATOM      9  C   LIG    1       -2.788  -5.540  -0.772  0.00  0.00    +0.060 A 
ATOM     10  N   LIG    1       -1.636  -4.801  -0.962  0.00  0.00    -0.470 N 
ENDROOT
BRANCH   1  12
ATOM     11  C   LIG    1        0.142  -2.865   1.293  0.00  0.00    +0.100 C 
ATOM     12  C   LIG    1       -0.642  -2.664  -0.006  0.00  0.00    +0.090 C 
BRANCH  12  13
ATOM     13  S   LIG    1       -1.428  -1.034   0.011  0.00  0.00    +0.150 S 
BRANCH  13  14
ATOM     14  C   LIG    1        0.002  -0.004   0.002  0.00  0.00    +0.200 A 
ATOM     15  N   LIG    1       -0.016   1.305   0.009  0.00  0.00    -0.450 NA
ATOM     16  C   LIG    1        1.268   1.759  -0.001  0.00  0.00    +0.030 A 
ATOM     17  C   LIG    1        1.839   3.032   0.001  0.00  0.00    +0.080 A 
ATOM     18  C   LIG    1        3.211   3.165  -0.012  0.00  0.00    +0.020 A 
ATOM     19  C   LIG    1        4.024   2.043  -0.026  0.00  0.00    +0.050 A 
ATOM     20  C   LIG    1        3.471   0.778  -0.026  0.00  0.00    +0.050 A 
ATOM     21  C   LIG    1        2.095   0.626  -0.015  0.00  0.00    +0.010 A 
ATOM     22  O   LIG    1        1.272  -0.448  -0.013  0.00  0.00    -0.210 OA
ENDBRANCH  13  14
ENDBRANCH  12  13
ENDBRANCH   1  12
BRANCH  10  23
ATOM     23  C   LIG    1       -0.547  -5.114  -1.890  0.00  0.00    +0.360 C 
BRANCH  23  24
ATOM     24  C   LIG    1        0.474  -5.976  -1.193  0.00  0.00    -0.120 A 
ATOM     25  C   LIG    1        1.532  -5.390  -0.522  0.00  0.00    +0.020 A 
ATOM     26  C   LIG    1        2.465  -6.181   0.121  0.00  0.00    +0.010 A 
ATOM     27  C   LIG    1        2.348  -7.558   0.084  0.00  0.00    +0.020 A 
ATOM     28  C   LIG    1        1.294  -8.144  -0.592  0.00  0.00    +0.010 A 
ATOM     29  C   LIG    1        0.357  -7.353  -1.230  0.00  0.00    +0.030 A 
ENDBRANCH  23  24
ENDBRANCH  10  23
TORSDOF 5
