REMARK  Name = ZINCb80000003W57.0
REMARK                            x       y       z     vdW  Elec       q    Type
REMARK                         _______ _______ _______ _____ _____    ______ ____
ROOT
ATOM      1  O   LIG    1       -5.529   0.592   0.748  0.00  0.00    -0.440 OA
ATOM      2  C   LIG    1       -4.507   1.208   0.932  0.00  0.00    +0.370 C 
ATOM      3  C   LIG    1       -4.387   2.705   1.136  0.00  0.00    +0.030 C 
ATOM      4  C   LIG    1       -2.884   3.014   1.323  0.00  0.00    +0.080 C 
ATOM      5  C   LIG    1       -2.184   1.810   0.676  0.00  0.00    -0.100 C 
ATOM      6  C   LIG    1       -0.776   1.604   1.251  0.00  0.00    +0.070 C 
ATOM      7  C   LIG    1       -0.013   1.086   0.008  0.00  0.00    +0.260 C 
ATOM      8  N   LIG    1       -0.759   1.590  -1.153  0.00  0.00    -0.730 N 
ATOM      9  H   LIG    1       -0.406   1.631  -2.055  0.00  0.00    +0.410 HD
ATOM     10  C   LIG    1       -1.998   1.991  -0.800  0.00  0.00    +0.530 C 
ATOM     11  O   LIG    1       -2.833   2.430  -1.562  0.00  0.00    -0.520 OA
ATOM     12  C   LIG    1       -3.104   0.626   1.004  0.00  0.00    +0.060 C 
ENDROOT
TORSDOF 0
