REMARK  Name = ZINCpk00000Ka8Pl.0
REMARK                            x       y       z     vdW  Elec       q    Type
REMARK                         _______ _______ _______ _____ _____    ______ ____
ROOT
ATOM      1  C   LIG    1        7.511  -3.286   2.374  0.00  0.00    +0.020 C 
ATOM      2  C   LIG    1        7.877  -1.801   2.316  0.00  0.00    +0.190 C 
ENDROOT
BRANCH   2   3
ATOM      3  N   LIG    1        8.653  -1.441   3.510  0.00  0.00    -0.510 NA
ATOM      4  C   LIG    1        9.985  -2.067   3.481  0.00  0.00    +0.190 C 
ATOM      5  C   LIG    1       10.858  -1.394   4.541  0.00  0.00    +0.130 C 
ATOM      6  C   LIG    1       10.129  -1.353   5.856  0.00  0.00    -0.240 A 
ATOM      7  C   LIG    1        8.789  -1.541   5.946  0.00  0.00    +0.180 A 
ATOM      8  N   LIG    1        8.193  -1.478   7.146  0.00  0.00    -0.540 NA
ATOM      9  C   LIG    1        8.868  -1.246   8.238  0.00  0.00    +0.580 A 
ATOM     10  N   LIG    1       10.202  -1.057   8.214  0.00  0.00    -0.630 N 
ATOM     11  H   LIG    1       10.685  -0.888   9.038  0.00  0.00    +0.420 HD
ATOM     12  C   LIG    1       10.863  -1.104   7.038  0.00  0.00    +0.520 A 
ATOM     13  O   LIG    1       12.070  -0.935   6.996  0.00  0.00    -0.530 OA
ATOM     14  C   LIG    1        7.941  -1.820   4.734  0.00  0.00    +0.280 C 
ENDBRANCH   2   3
BRANCH   2  15
ATOM     15  C   LIG    1        6.617  -0.975   2.268  0.00  0.00    +0.520 C 
ATOM     16  N   LIG    1        5.744  -1.135   1.253  0.00  0.00    -0.730 N 
ATOM     17  H   LIG    1        5.927  -1.782   0.554  0.00  0.00    +0.400 HD
ATOM     18  O   LIG    1        6.389  -0.166   3.142  0.00  0.00    -0.520 OA
BRANCH  16  19
ATOM     19  C   LIG    1        4.520  -0.332   1.207  0.00  0.00    +0.270 C 
BRANCH  19  20
ATOM     20  C   LIG    1        3.711  -0.707  -0.037  0.00  0.00    +0.030 C 
ATOM     21  C   LIG    1        4.497  -0.321  -1.292  0.00  0.00    +0.030 C 
BRANCH  20  22
ATOM     22  C   LIG    1        2.396   0.029  -0.021  0.00  0.00    -0.080 A 
ATOM     23  C   LIG    1        1.208  -0.679  -0.013  0.00  0.00    +0.010 A 
ATOM     24  C   LIG    1        0.002  -0.004   0.002  0.00  0.00    +0.000 A 
ATOM     25  C   LIG    1       -0.017   1.378   0.010  0.00  0.00    +0.000 A 
ATOM     26  C   LIG    1        1.171   2.086   0.002  0.00  0.00    +0.000 A 
ATOM     27  C   LIG    1        2.377   1.411  -0.015  0.00  0.00    +0.010 A 
ENDBRANCH  20  22
ENDBRANCH  19  20
ENDBRANCH  16  19
ENDBRANCH   2  15
TORSDOF 5
