REMARK  Name = ZINCrD000000gP5d.0
REMARK                            x       y       z     vdW  Elec       q    Type
REMARK                         _______ _______ _______ _____ _____    ______ ____
ROOT
ATOM      1  N   LIG    1       -4.784   3.804  -0.136  0.00  0.00    -0.730 N 
ATOM      2  H   LIG    1       -4.792   4.774  -0.131  0.00  0.00    +0.390 HD
ATOM      3  C   LIG    1       -3.614   3.140  -0.048  0.00  0.00    +0.710 C 
ATOM      4  N   LIG    1       -2.457   3.823   0.046  0.00  0.00    -0.690 N 
ATOM      5  H   LIG    1       -2.469   4.790   0.128  0.00  0.00    +0.400 HD
ATOM      6  O   LIG    1       -3.604   1.924  -0.054  0.00  0.00    -0.560 OA
ENDROOT
BRANCH   4   7
ATOM      7  C   LIG    1       -1.236   3.138   0.024  0.00  0.00    +0.160 A 
ATOM      8  C   LIG    1       -1.099   1.984  -0.736  0.00  0.00    +0.030 A 
ATOM      9  C   LIG    1        0.105   1.308  -0.751  0.00  0.00    +0.030 A 
ATOM     10  C   LIG    1        1.177   1.785  -0.019  0.00  0.00    +0.030 A 
ATOM     11  C   LIG    1        1.045   2.937   0.734  0.00  0.00    -0.090 A 
ATOM     12  C   LIG    1       -0.158   3.615   0.758  0.00  0.00    -0.010 A 
BRANCH  11  13
ATOM     13  C   LIG    1        2.216   3.454   1.530  0.00  0.00    +0.380 C 
BRANCH  13  14
ATOM     14  N   LIG    1        2.999   4.376   0.703  0.00  0.00    -0.370 N 
ATOM     15  C   LIG    1        3.322   5.647   1.020  0.00  0.00    +0.220 A 
ATOM     16  C   LIG    1        4.049   6.156  -0.002  0.00  0.00    -0.120 A 
ATOM     17  C   LIG    1        4.173   5.161  -0.978  0.00  0.00    +0.220 A 
ATOM     18  N   LIG    1        3.549   4.092  -0.553  0.00  0.00    -0.290 NA
ENDBRANCH  13  14
ENDBRANCH  11  13
ENDBRANCH   4   7
BRANCH   1  19
ATOM     19  C   LIG    1       -6.042   3.062  -0.238  0.00  0.00    +0.260 C 
BRANCH  19  21
ATOM     20  C   LIG    1       -6.752   3.959   1.983  0.00  0.00    +0.020 C 
ATOM     21  C   LIG    1       -6.529   2.687   1.164  0.00  0.00    -0.080 C 
ATOM     22  C   LIG    1       -5.476   1.815   1.852  0.00  0.00    +0.040 C 
ATOM     23  C   LIG    1       -7.843   1.911   1.057  0.00  0.00    +0.030 C 
ENDBRANCH  19  21
BRANCH  19  24
ATOM     24  C   LIG    1       -7.095   3.933  -0.926  0.00  0.00    +0.310 C 
BRANCH  24  25
ATOM     25  N   LIG    1       -6.685   4.194  -2.308  0.00  0.00    -0.460 N 
ATOM     26  C   LIG    1       -5.927   5.246  -2.747  0.00  0.00    +0.110 A 
ATOM     27  C   LIG    1       -5.787   5.097  -4.078  0.00  0.00    +0.140 A 
ATOM     28  N   LIG    1       -6.448   3.989  -4.444  0.00  0.00    -0.490 NA
ATOM     29  C   LIG    1       -6.989   3.443  -3.389  0.00  0.00    +0.380 A 
ENDBRANCH  24  25
ENDBRANCH  19  24
ENDBRANCH   1  19
TORSDOF 7
