REMARK  Name = ZINC650000002Ju7.0
REMARK                            x       y       z     vdW  Elec       q    Type
REMARK                         _______ _______ _______ _____ _____    ______ ____
ROOT
ATOM      1  C   LIG    1       -0.013   1.086   0.008  0.00  0.00    +0.150 C 
ATOM      2  C   LIG    1       -0.218   1.707  -1.384  0.00  0.00    -0.030 C 
ATOM      3  C   LIG    1        0.821   2.765  -0.979  0.00  0.00    +0.150 C 
ATOM      4  C   LIG    1        1.388   1.721  -0.002  0.00  0.00    +0.070 C 
ENDROOT
BRANCH   1   5
ATOM      5  O   LIG    1       -0.878   1.623   1.010  0.00  0.00    -0.540 OA
ATOM      6  H   LIG    1       -1.768   1.244   1.006  0.00  0.00    +0.380 HD
ENDBRANCH   1   5
BRANCH   3   7
ATOM      7  O   LIG    1        0.256   3.907  -0.331  0.00  0.00    -0.540 OA
ATOM      8  H   LIG    1       -0.102   4.567  -0.941  0.00  0.00    +0.380 HD
ENDBRANCH   3   7
TORSDOF 2
