REMARK  Name = ZINCvU0000000HG9.0
REMARK                            x       y       z     vdW  Elec       q    Type
REMARK                         _______ _______ _______ _____ _____    ______ ____
ROOT
ATOM      1  C   LIG    1        2.399  -2.486  -2.204  0.00  0.00    +0.160 A 
ATOM      2  C   LIG    1        2.022  -1.446  -3.055  0.00  0.00    +0.040 A 
ATOM      3  C   LIG    1        1.405  -0.325  -2.538  0.00  0.00    +0.200 A 
ATOM      4  C   LIG    1        1.171  -0.226  -1.178  0.00  0.00    -0.670 A 
ATOM      5  C   LIG    1        1.542  -1.253  -0.329  0.00  0.00    +0.230 A 
ATOM      6  C   LIG    1        2.155  -2.381  -0.833  0.00  0.00    -0.020 A 
ENDROOT
BRANCH   4   7
ATOM      7  S   LIG    1        0.388   1.212  -0.526  0.00  0.00    +2.690 S 
ATOM      8  O   LIG    1       -0.098   0.855   0.761  0.00  0.00    -0.930 OA
ATOM      9  O   LIG    1       -0.446   1.719  -1.559  0.00  0.00    -0.940 OA
BRANCH   7  10
ATOM     10  N   LIG    1        1.571   2.345  -0.281  0.00  0.00    -1.060 N 
ATOM     11  H   LIG    1        1.549   3.182  -0.770  0.00  0.00    +0.430 HD
BRANCH  10  12
ATOM     12  C   LIG    1        2.600   2.095   0.630  0.00  0.00    +0.120 A 
ATOM     13  C   LIG    1        2.358   2.182   1.995  0.00  0.00    +0.060 A 
ATOM     14  C   LIG    1        3.376   1.930   2.893  0.00  0.00    +0.050 A 
ATOM     15  C   LIG    1        4.639   1.600   2.435  0.00  0.00    -0.020 A 
ATOM     16  C   LIG    1        4.885   1.518   1.076  0.00  0.00    +0.030 A 
ATOM     17 CL   LIG    1        5.918   1.290   3.567  0.00  0.00    -0.060 Cl
ATOM     18  C   LIG    1        3.869   1.765   0.173  0.00  0.00    +0.040 A 
ENDBRANCH  10  12
ENDBRANCH   7  10
ENDBRANCH   4   7
BRANCH   6  19
ATOM     19  N   LIG    1        2.552  -3.479   0.077  0.00  0.00    +0.020 N 
ATOM     20  O   LIG    1        3.093  -4.475  -0.370  0.00  0.00    -0.110 OA
ATOM     21  O   LIG    1        2.339  -3.386   1.272  0.00  0.00    -0.170 OA
ENDBRANCH   6  19
BRANCH   1  23
ATOM     22  N   LIG    1        3.223  -3.694  -3.929  0.00  0.00    -0.180 NA
ATOM     23  N   LIG    1        3.007  -3.604  -2.712  0.00  0.00    -0.200 NA
BRANCH  22  27
ATOM     24  C   LIG    1        6.015  -6.144  -6.028  0.00  0.00    -0.020 C 
ATOM     25  C   LIG    1        4.585  -6.052  -6.566  0.00  0.00    +0.030 C 
ATOM     26  C   LIG    1        3.907  -4.803  -5.999  0.00  0.00    +0.040 C 
ATOM     27  C   LIG    1        3.873  -4.890  -4.472  0.00  0.00    +0.160 C 
ATOM     28  C   LIG    1        5.302  -4.982  -3.934  0.00  0.00    +0.030 C 
ATOM     29  C   LIG    1        5.980  -6.231  -4.500  0.00  0.00    +0.030 C 
BRANCH  24  30
ATOM     30  C   LIG    1        6.693  -7.393  -6.594  0.00  0.00    +0.000 C 
BRANCH  30  32
ATOM     31  C   LIG    1        8.838  -8.669  -6.724  0.00  0.00    +0.000 C 
ATOM     32  C   LIG    1        8.159  -7.420  -6.157  0.00  0.00    -0.010 C 
ENDBRANCH  30  32
ENDBRANCH  24  30
ENDBRANCH  22  27
ENDBRANCH   1  23
TORSDOF 8
