REMARK  Name = ZINCrg00001JduX1.0
REMARK                            x       y       z     vdW  Elec       q    Type
REMARK                         _______ _______ _______ _____ _____    ______ ____
ROOT
ATOM      1  C   LIG    1        2.735  -2.491  -0.038  0.00  0.00    -0.200 A 
ATOM      2  C   LIG    1        3.655  -1.463  -0.041  0.00  0.00    +0.070 A 
ATOM      3  S   LIG    1        2.861   0.046  -0.024  0.00  0.00    +0.360 S 
ATOM      4  C   LIG    1        1.280  -0.719  -0.014  0.00  0.00    -0.340 A 
ATOM      5  C   LIG    1        1.415  -2.061  -0.017  0.00  0.00    +0.040 A 
ATOM      6  C   LIG    1        0.241  -3.006  -0.004  0.00  0.00    +0.120 C 
ENDROOT
BRANCH   4   7
ATOM      7  C   LIG    1        0.002  -0.004   0.002  0.00  0.00    +0.600 C 
ATOM      8  O   LIG    1       -1.044  -0.627   0.009  0.00  0.00    -0.530 OA
ATOM      9  N   LIG    1       -0.016   1.344   0.009  0.00  0.00    -0.850 N 
ATOM     10  H   LIG    1       -0.863   1.817   0.016  0.00  0.00    +0.410 HD
ATOM     11  H   LIG    1        0.817   1.840   0.004  0.00  0.00    +0.400 HD
ENDBRANCH   4   7
BRANCH   2  12
ATOM     12  N   LIG    1        5.026  -1.632  -0.055  0.00  0.00    -0.620 N 
ATOM     13  H   LIG    1        5.405  -2.526  -0.064  0.00  0.00    +0.420 HD
ATOM     14  C   LIG    1        5.838  -0.556  -0.057  0.00  0.00    +0.490 C 
ATOM     15  O   LIG    1        5.365   0.560  -0.045  0.00  0.00    -0.480 OA
BRANCH  14  16
ATOM     16  C   LIG    1        7.334  -0.741  -0.072  0.00  0.00    +0.370 C 
BRANCH  16  17
ATOM     17  N   LIG    1        7.988   0.570  -0.071  0.00  0.00    -0.440 N 
ATOM     18  C   LIG    1        8.425   1.260  -1.169  0.00  0.00    +0.120 A 
ATOM     19  C   LIG    1        8.961   2.411  -0.718  0.00  0.00    +0.150 A 
ATOM     20  N   LIG    1        8.854   2.422   0.619  0.00  0.00    -0.490 NA
ATOM     21  C   LIG    1        8.266   1.325   1.013  0.00  0.00    +0.230 A 
BRANCH  21  22
ATOM     22  C   LIG    1        7.955   0.960   2.442  0.00  0.00    +0.160 C 
BRANCH  22  23
ATOM     23  C   LIG    1        9.135   0.194   3.042  0.00  0.00    +0.180 C 
ATOM     24  C   LIG    1        8.872  -0.067   4.526  0.00  0.00    +0.000 C 
BRANCH  23  25
ATOM     25  O   LIG    1        9.292  -1.051   2.359  0.00  0.00    -0.580 OA
ATOM     26  H   LIG    1       10.024  -1.591   2.688  0.00  0.00    +0.380 HD
ENDBRANCH  23  25
ENDBRANCH  22  23
ENDBRANCH  21  22
ENDBRANCH  16  17
ENDBRANCH  14  16
ENDBRANCH   2  12
BRANCH   1  27
ATOM     27  C   LIG    1        3.116  -3.907  -0.049  0.00  0.00    +0.540 C 
ATOM     28  O   LIG    1        3.284  -4.500   0.999  0.00  0.00    -0.490 OA
BRANCH  27  29
ATOM     29  O   LIG    1        3.280  -4.552  -1.222  0.00  0.00    -0.350 OA
BRANCH  29  31
ATOM     30  C   LIG    1        3.796  -6.510  -2.575  0.00  0.00    +0.070 C 
ATOM     31  C   LIG    1        3.658  -5.953  -1.157  0.00  0.00    +0.200 C 
ENDBRANCH  29  31
ENDBRANCH  27  29
ENDBRANCH   1  27
TORSDOF 10
