REMARK  Name = ZINCrg00001JduMR.0
REMARK                            x       y       z     vdW  Elec       q    Type
REMARK                         _______ _______ _______ _____ _____    ______ ____
ROOT
ATOM      1  S   LIG    1       -4.886  -1.034  -4.837  0.00  0.00    +2.700 S 
ATOM      2  O   LIG    1       -6.037  -0.224  -4.643  0.00  0.00    -0.940 OA
ATOM      3  O   LIG    1       -4.656  -1.787  -6.020  0.00  0.00    -0.950 OA
ENDROOT
BRANCH   1   4
ATOM      4  C   LIG    1       -3.492   0.026  -4.643  0.00  0.00    -0.670 A 
ATOM      5  C   LIG    1       -3.610   1.193  -3.911  0.00  0.00    +0.140 A 
ATOM      6  C   LIG    1       -2.519   2.027  -3.749  0.00  0.00    +0.030 A 
ATOM      7  C   LIG    1       -1.307   1.699  -4.331  0.00  0.00    +0.140 A 
ATOM      8  O   LIG    1       -0.226   2.510  -4.186  0.00  0.00    -0.300 OA
ATOM      9  C   LIG    1        1.054   1.874  -4.138  0.00  0.00    +0.300 C 
ATOM     10  C   LIG    1        1.154   0.853  -5.243  0.00  0.00    +0.490 C 
ATOM     11  N   LIG    1        0.044   0.204  -5.659  0.00  0.00    -0.660 N 
ATOM     12  H   LIG    1        0.099  -0.473  -6.351  0.00  0.00    +0.420 HD
ATOM     13  O   LIG    1        2.226   0.614  -5.756  0.00  0.00    -0.500 OA
ATOM     14  C   LIG    1       -1.190   0.525  -5.074  0.00  0.00    +0.070 A 
ATOM     15  C   LIG    1       -2.284  -0.310  -5.228  0.00  0.00    +0.130 A 
ENDBRANCH   1   4
BRANCH   1  16
ATOM     16  N   LIG    1       -4.859  -2.115  -3.583  0.00  0.00    -1.110 NA
ATOM     17  H   LIG    1       -4.726  -3.060  -3.759  0.00  0.00    +0.420 HD
BRANCH  16  22
ATOM     18  C   LIG    1       -4.176  -2.480  -1.237  0.00  0.00    +0.240 C 
ATOM     19  O   LIG    1       -5.070  -3.084  -0.287  0.00  0.00    -0.360 OA
ATOM     20  C   LIG    1       -6.353  -3.211  -0.937  0.00  0.00    +0.200 C 
ATOM     21  C   LIG    1       -6.488  -1.888  -1.732  0.00  0.00    +0.010 C 
ATOM     22  C   LIG    1       -5.035  -1.645  -2.207  0.00  0.00    +0.240 C 
BRANCH  18  25
ATOM     23  N   LIG    1       -1.372  -0.511   0.012  0.00  0.00    -0.370 N 
ATOM     24  C   LIG    1       -1.911  -1.364  -0.884  0.00  0.00    +0.240 A 
ATOM     25  C   LIG    1       -3.195  -1.587  -0.522  0.00  0.00    -0.250 A 
ATOM     26  C   LIG    1       -3.454  -0.837   0.630  0.00  0.00    +0.260 A 
ATOM     27  N   LIG    1       -2.362  -0.192   0.951  0.00  0.00    -0.290 NA
BRANCH  23  29
ATOM     28  C   LIG    1       -0.019   1.526   0.010  0.00  0.00    +0.040 C 
ATOM     29  C   LIG    1        0.002  -0.004   0.002  0.00  0.00    +0.310 C 
ENDBRANCH  23  29
ENDBRANCH  18  25
ENDBRANCH  16  22
ENDBRANCH   1  16
TORSDOF 5
