REMARK  Name = ZINCtV00001bB3Io.0
REMARK                            x       y       z     vdW  Elec       q    Type
REMARK                         _______ _______ _______ _____ _____    ______ ____
ROOT
ATOM      1  C   LIG    1        6.057   5.916  -2.001  0.00  0.00    -0.200 A 
ATOM      2  C   LIG    1        6.130   4.530  -2.183  0.00  0.00    +0.150 A 
ATOM      3  C   LIG    1        7.313   3.952  -2.591  0.00  0.00    -0.140 A 
ATOM      4  C   LIG    1        8.435   4.736  -2.810  0.00  0.00    +0.130 A 
ATOM      5  C   LIG    1        8.380   6.104  -2.628  0.00  0.00    -0.070 A 
ATOM      6 BR   LIG    1        7.408   2.081  -2.846  0.00  0.00    -0.040 Br
ATOM      7  C   LIG    1        7.197   6.705  -2.224  0.00  0.00    +0.210 A 
ENDROOT
BRANCH   1   9
ATOM      8  O   LIG    1        4.742   7.740  -1.410  0.00  0.00    -0.400 OA
ATOM      9  C   LIG    1        4.799   6.539  -1.572  0.00  0.00    +0.410 C 
BRANCH   9  10
ATOM     10  C   LIG    1        3.579   5.688  -1.334  0.00  0.00    +0.120 C 
ATOM     11  O   LIG    1        2.682   6.086  -0.296  0.00  0.00    -0.300 OA
ATOM     12  C   LIG    1        3.481   4.938  -0.004  0.00  0.00    +0.260 C 
BRANCH  12  13
ATOM     13  C   LIG    1        2.804   3.592  -0.005  0.00  0.00    +0.030 A 
ATOM     14  C   LIG    1        3.441   2.413  -0.018  0.00  0.00    +0.000 A 
ATOM     15  C   LIG    1        2.395   1.383  -0.013  0.00  0.00    -0.130 A 
ATOM     16  C   LIG    1        2.400  -0.011  -0.021  0.00  0.00    +0.060 A 
ATOM     17  C   LIG    1        1.204  -0.696  -0.014  0.00  0.00    -0.010 A 
ATOM     18  C   LIG    1        0.002  -0.004   0.002  0.00  0.00    +0.050 A 
ATOM     19  C   LIG    1       -0.017   1.374   0.010  0.00  0.00    +0.020 A 
ATOM     20  C   LIG    1        1.177   2.084   0.002  0.00  0.00    +0.060 A 
ATOM     21  O   LIG    1        1.473   3.400   0.007  0.00  0.00    -0.180 OA
ENDBRANCH  12  13
ENDBRANCH   9  10
ENDBRANCH   1   9
BRANCH   7  22
ATOM     22  O   LIG    1        7.142   8.048  -2.045  0.00  0.00    -0.270 OA
BRANCH  22  23
ATOM     23  C   LIG    1        8.341   8.785  -2.291  0.00  0.00    +0.250 C 
BRANCH  23  24
ATOM     24  C   LIG    1        8.090  10.250  -2.043  0.00  0.00    -0.100 A 
ATOM     25  C   LIG    1        7.660  11.062  -3.076  0.00  0.00    +0.030 A 
ATOM     26  C   LIG    1        7.425  12.405  -2.847  0.00  0.00    +0.010 A 
ATOM     27  C   LIG    1        7.630  12.938  -1.588  0.00  0.00    +0.020 A 
ATOM     28  C   LIG    1        8.065  12.127  -0.557  0.00  0.00    +0.010 A 
ATOM     29  C   LIG    1        8.295  10.783  -0.784  0.00  0.00    +0.030 A 
ENDBRANCH  23  24
ENDBRANCH  22  23
ENDBRANCH   7  22
TORSDOF 6
