REMARK  Name = ZINCrg000000p7wV.0
REMARK                            x       y       z     vdW  Elec       q    Type
REMARK                         _______ _______ _______ _____ _____    ______ ____
ROOT
ATOM      1  C   LIG    1       -5.805   0.556   4.092  0.00  0.00    +0.250 C 
ENDROOT
BRANCH   1   8
ATOM      2  C   LIG    1      -10.286   0.552   8.423  0.00  0.00    +0.190 C 
ATOM      3  N   LIG    1       -9.528  -0.036   7.310  0.00  0.00    -0.540 NA
ATOM      4  C   LIG    1       -9.081   1.002   6.372  0.00  0.00    +0.170 C 
ATOM      5  C   LIG    1       -8.456   0.337   5.140  0.00  0.00    +0.280 C 
ATOM      6  N   LIG    1       -7.406  -0.588   5.591  0.00  0.00    -0.610 N 
ATOM      7  C   LIG    1       -7.745  -1.574   6.628  0.00  0.00    +0.300 C 
ATOM      8  C   LIG    1       -6.167  -0.538   5.063  0.00  0.00    +0.520 C 
ATOM      9  O   LIG    1       -5.343  -1.373   5.370  0.00  0.00    -0.530 OA
ATOM     10  C   LIG    1       -8.396  -0.831   7.805  0.00  0.00    +0.170 C 
ENDBRANCH   1   8
BRANCH   1  11
ATOM     11  N   LIG    1       -4.348   0.618   3.947  0.00  0.00    -0.720 N 
ATOM     12  H   LIG    1       -3.809  -0.168   4.125  0.00  0.00    +0.410 HD
ATOM     13  C   LIG    1       -3.758   1.768   3.566  0.00  0.00    +0.520 C 
ATOM     14  O   LIG    1       -4.432   2.752   3.344  0.00  0.00    -0.490 OA
BRANCH  13  15
ATOM     15  C   LIG    1       -2.260   1.832   3.417  0.00  0.00    +0.150 C 
ATOM     16  C   LIG    1       -1.793   0.906   2.269  0.00  0.00    +0.070 C 
ATOM     17  C   LIG    1       -0.644   1.689   1.613  0.00  0.00    -0.170 C 
ATOM     18  C   LIG    1       -0.542   2.994   2.419  0.00  0.00    +0.250 C 
ATOM     19  C   LIG    1        0.589   0.990   1.063  0.00  0.00    +0.040 C 
ATOM     20  C   LIG    1       -0.408   1.656   0.109  0.00  0.00    +0.040 C 
ATOM     21  O   LIG    1       -1.851   3.158   3.013  0.00  0.00    -0.340 OA
ENDBRANCH  13  15
ENDBRANCH   1  11
BRANCH   1  22
ATOM     22  C   LIG    1       -6.441   0.261   2.732  0.00  0.00    +0.080 C 
BRANCH  22  23
ATOM     23  C   LIG    1       -6.198   1.422   1.802  0.00  0.00    -0.070 A 
ATOM     24  C   LIG    1       -7.109   2.459   1.738  0.00  0.00    +0.000 A 
ATOM     25  C   LIG    1       -6.883   3.526   0.888  0.00  0.00    +0.010 A 
ATOM     26  C   LIG    1       -5.751   3.550   0.095  0.00  0.00    +0.000 A 
ATOM     27  C   LIG    1       -4.843   2.510   0.155  0.00  0.00    +0.010 A 
ATOM     28  C   LIG    1       -5.066   1.446   1.008  0.00  0.00    +0.000 A 
ENDBRANCH  22  23
ENDBRANCH   1  22
TORSDOF 5
