REMARK  Name = ZINCpk00000FbcFG.1
REMARK                            x       y       z     vdW  Elec       q    Type
REMARK                         _______ _______ _______ _____ _____    ______ ____
ROOT
ATOM      1  C   LIG    1        2.930   2.833   2.347  0.00  0.00    +0.280 C 
ATOM      2  N   LIG    1        1.844   3.330   1.498  0.00  0.00    -0.600 N 
ATOM      3  C   LIG    1        0.968   4.231   1.984  0.00  0.00    +0.560 C 
ATOM      4  O   LIG    1       -0.005   4.549   1.327  0.00  0.00    -0.530 OA
ENDROOT
BRANCH   3   5
ATOM      5  C   LIG    1        1.190   4.833   3.312  0.00  0.00    -0.190 A 
ATOM      6  C   LIG    1        2.464   4.822   3.887  0.00  0.00    +0.090 A 
ATOM      7  C   LIG    1        2.667   5.387   5.122  0.00  0.00    -0.070 A 
ATOM      8  C   LIG    1        1.604   5.970   5.820  0.00  0.00    +0.220 A 
ATOM      9  N   LIG    1        1.604   6.583   7.068  0.00  0.00    -0.740 N 
ATOM     10  H   LIG    1        2.384   6.685   7.635  0.00  0.00    +0.410 HD
ATOM     11  C   LIG    1        0.257   7.052   7.403  0.00  0.00    +0.260 C 
ATOM     12  C   LIG    1       -0.617   6.659   6.201  0.00  0.00    +0.090 C 
ATOM     13  C   LIG    1        0.337   5.975   5.247  0.00  0.00    -0.190 A 
ATOM     14  C   LIG    1        0.126   5.415   4.008  0.00  0.00    +0.130 A 
ENDBRANCH   3   5
BRANCH   2  15
ATOM     15  C   LIG    1        1.710   2.847   0.122  0.00  0.00    +0.410 C 
BRANCH  15  16
ATOM     16  C   LIG    1        0.828   1.625   0.101  0.00  0.00    +0.090 A 
ATOM     17  N   LIG    1        1.220   0.386   0.224  0.00  0.00    -0.340 NA
ATOM     18  N   LIG    1        0.202  -0.398   0.161  0.00  0.00    -0.370 NA
ATOM     19  C   LIG    1       -0.885   0.306  -0.005  0.00  0.00    -0.010 A 
ATOM     20  N   LIG    1       -0.519   1.609  -0.047  0.00  0.00    -0.530 NA
BRANCH  19  21
ATOM     21  C   LIG    1       -2.287  -0.232  -0.127  0.00  0.00    +0.310 C 
ATOM     22  C   LIG    1       -2.490  -0.858  -1.520  0.00  0.00    +0.080 C 
ATOM     23  C   LIG    1       -2.862  -2.334  -1.250  0.00  0.00    +0.200 C 
ATOM     24  C   LIG    1       -3.392  -2.296   0.205  0.00  0.00    +0.250 C 
ATOM     25  F   LIG    1       -3.861  -2.761  -2.130  0.00  0.00    -0.180 F 
ATOM     26  N   LIG    1       -2.503  -1.307   0.866  0.00  0.00    -0.510 N 
ATOM     27  H   LIG    1       -2.950  -0.934   1.690  0.00  0.00    +0.430 HD
ATOM     28  H   LIG    1       -1.623  -1.737   1.110  0.00  0.00    +0.440 HD
ENDBRANCH  19  21
ENDBRANCH  15  16
ENDBRANCH   2  15
TORSDOF 4
