REMARK  Name = ZINCpk00000FbcFG.0
REMARK                            x       y       z     vdW  Elec       q    Type
REMARK                         _______ _______ _______ _____ _____    ______ ____
ROOT
ATOM      1  C   LIG    1       -1.218  -1.060  -0.100  0.00  0.00    +0.290 C 
ATOM      2  N   LIG    1       -2.492  -0.337  -0.090  0.00  0.00    -0.620 N 
ATOM      3  C   LIG    1       -2.518   0.978   0.207  0.00  0.00    +0.570 C 
ATOM      4  O   LIG    1       -3.582   1.559   0.302  0.00  0.00    -0.510 OA
ENDROOT
BRANCH   3   5
ATOM      5  C   LIG    1       -1.255   1.712   0.416  0.00  0.00    -0.190 A 
ATOM      6  C   LIG    1       -0.195   1.109   1.099  0.00  0.00    +0.090 A 
ATOM      7  C   LIG    1        0.981   1.793   1.287  0.00  0.00    -0.070 A 
ATOM      8  C   LIG    1        1.128   3.098   0.803  0.00  0.00    +0.220 A 
ATOM      9  N   LIG    1        2.225   3.948   0.891  0.00  0.00    -0.740 N 
ATOM     10  H   LIG    1        3.066   3.725   1.321  0.00  0.00    +0.410 HD
ATOM     11  C   LIG    1        1.929   5.226   0.240  0.00  0.00    +0.250 C 
ATOM     12  C   LIG    1        0.489   5.090  -0.281  0.00  0.00    +0.100 C 
ATOM     13  C   LIG    1        0.069   3.696   0.130  0.00  0.00    -0.180 A 
ATOM     14  C   LIG    1       -1.113   3.017  -0.063  0.00  0.00    +0.130 A 
ENDBRANCH   3   5
BRANCH   2  15
ATOM     15  C   LIG    1       -3.737  -1.042  -0.402  0.00  0.00    +0.430 C 
BRANCH  15  16
ATOM     16  C   LIG    1       -3.997  -0.970  -1.884  0.00  0.00    +0.270 A 
ATOM     17  N   LIG    1       -4.594   0.010  -2.513  0.00  0.00    -0.500 NA
ATOM     18  C   LIG    1       -4.652  -0.259  -3.817  0.00  0.00    +0.220 A 
ATOM     19  N   LIG    1       -4.092  -1.419  -4.037  0.00  0.00    -0.310 NA
ATOM     20  N   LIG    1       -3.652  -1.899  -2.792  0.00  0.00    -0.470 N 
ATOM     21  H   LIG    1       -3.192  -2.736  -2.622  0.00  0.00    +0.440 HD
BRANCH  18  22
ATOM     22  C   LIG    1       -5.265   0.631  -4.868  0.00  0.00    +0.290 C 
ATOM     23  C   LIG    1       -4.155   1.312  -5.690  0.00  0.00    +0.010 C 
ATOM     24  C   LIG    1       -4.399   0.863  -7.149  0.00  0.00    +0.150 C 
ATOM     25  C   LIG    1       -5.895   0.457  -7.141  0.00  0.00    +0.210 C 
ATOM     26  F   LIG    1       -4.179   1.922  -8.036  0.00  0.00    -0.200 F 
ATOM     27  N   LIG    1       -6.070  -0.180  -5.807  0.00  0.00    -0.650 NA
ATOM     28  H   LIG    1       -5.755  -1.138  -5.820  0.00  0.00    +0.350 HD
ENDBRANCH  18  22
ENDBRANCH  15  16
ENDBRANCH   2  15
TORSDOF 4
