REMARK  Name = ZINCvU0000000Hjf.0
REMARK                            x       y       z     vdW  Elec       q    Type
REMARK                         _______ _______ _______ _____ _____    ______ ____
ROOT
ATOM      1  C   LIG    1        1.441   7.241  -4.441  0.00  0.00    +0.450 C 
ATOM      2  O   LIG    1        2.649   7.211  -4.326  0.00  0.00    -0.460 OA
ENDROOT
BRANCH   1   6
ATOM      3  C   LIG    1       -2.635   6.171  -1.577  0.00  0.00    +0.120 C 
ATOM      4  C   LIG    1       -1.224   6.362  -2.070  0.00  0.00    +0.010 A 
ATOM      5  C   LIG    1       -0.879   6.805  -3.291  0.00  0.00    +0.000 A 
ATOM      6  C   LIG    1        0.589   6.830  -3.322  0.00  0.00    -0.270 A 
ATOM      7  C   LIG    1        1.001   6.393  -2.078  0.00  0.00    +0.130 A 
ATOM      8  C   LIG    1        2.430   6.251  -1.619  0.00  0.00    +0.150 C 
ATOM      9  N   LIG    1       -0.093   6.114  -1.348  0.00  0.00    -0.430 N 
BRANCH   9  10
ATOM     10  C   LIG    1       -0.074   5.619   0.031  0.00  0.00    +0.360 C 
BRANCH  10  11
ATOM     11  C   LIG    1       -0.054   4.112   0.023  0.00  0.00    -0.130 A 
ATOM     12  C   LIG    1        1.153   3.438   0.009  0.00  0.00    +0.060 A 
ATOM     13  C   LIG    1        1.173   2.056   0.002  0.00  0.00    -0.010 A 
ATOM     14  C   LIG    1       -0.016   1.347   0.009  0.00  0.00    +0.110 A 
ATOM     15  C   LIG    1       -1.224   2.023   0.019  0.00  0.00    -0.010 A 
ATOM     16  F   LIG    1        0.002  -0.004   0.002  0.00  0.00    -0.130 F 
ATOM     17  C   LIG    1       -1.242   3.405   0.031  0.00  0.00    +0.070 A 
ENDBRANCH  10  11
ENDBRANCH   9  10
ENDBRANCH   1   6
BRANCH   1  18
ATOM     18  C   LIG    1        0.818   7.700  -5.734  0.00  0.00    +0.090 C 
BRANCH  18  19
ATOM     19  S   LIG    1        2.122   8.136  -6.911  0.00  0.00    +0.120 S 
BRANCH  19  20
ATOM     20  C   LIG    1        1.139   8.622  -8.290  0.00  0.00    +0.120 A 
ATOM     21  N   LIG    1       -0.171   8.625  -8.349  0.00  0.00    -0.290 NA
ATOM     22  N   LIG    1       -0.543   9.044  -9.507  0.00  0.00    -0.250 NA
ATOM     23  C   LIG    1        0.504   9.314 -10.230  0.00  0.00    +0.170 A 
ATOM     24  O   LIG    1        1.594   9.055  -9.481  0.00  0.00    -0.210 OA
BRANCH  23  25
ATOM     25  C   LIG    1        0.499   9.823 -11.649  0.00  0.00    +0.310 C 
BRANCH  25  26
ATOM     26  C   LIG    1        0.485  11.330 -11.641  0.00  0.00    +0.060 A 
ATOM     27  C   LIG    1        1.399  12.065 -12.282  0.00  0.00    -0.070 A 
ATOM     28  S   LIG    1        1.014  13.763 -12.015  0.00  0.00    +0.140 S 
ATOM     29  C   LIG    1       -0.338  13.317 -11.068  0.00  0.00    +0.050 A 
ATOM     30  C   LIG    1       -1.285  14.284 -10.406  0.00  0.00    +0.180 C 
ATOM     31  N   LIG    1       -0.432  12.031 -11.006  0.00  0.00    -0.460 NA
ENDBRANCH  25  26
ENDBRANCH  23  25
ENDBRANCH  19  20
ENDBRANCH  18  19
ENDBRANCH   1  18
TORSDOF 8
