REMARK  Name = ZINCpk00000KfKQA.0
REMARK                            x       y       z     vdW  Elec       q    Type
REMARK                         _______ _______ _______ _____ _____    ______ ____
ROOT
ATOM      1  C   LIG    1        2.174  -6.805  -0.707  0.00  0.00    +0.450 A 
ATOM      2  C   LIG    1        0.832  -7.111  -0.910  0.00  0.00    -0.160 A 
ATOM      3  C   LIG    1        0.410  -8.415  -0.670  0.00  0.00    +0.370 A 
ATOM      4  N   LIG    1        1.299  -9.317  -0.259  0.00  0.00    -0.600 NA
ATOM      5  C   LIG    1        2.562  -8.988  -0.079  0.00  0.00    +0.560 A 
ATOM      6  N   LIG    1        3.002  -7.766  -0.299  0.00  0.00    -0.590 NA
ENDROOT
BRANCH   3   7
ATOM      7  N   LIG    1       -0.917  -8.770  -0.857  0.00  0.00    -0.440 N 
ATOM      8  C   LIG    1       -1.800  -8.050   0.096  0.00  0.00    +0.190 C 
ATOM      9  C   LIG    1       -3.087  -8.901   0.154  0.00  0.00    +0.030 C 
ATOM     10  C   LIG    1       -2.648 -10.319  -0.266  0.00  0.00    +0.040 C 
ATOM     11  C   LIG    1       -1.134 -10.205  -0.542  0.00  0.00    +0.170 C 
BRANCH  11  12
ATOM     12  C   LIG    1       -0.742 -11.079  -1.736  0.00  0.00    +0.190 C 
BRANCH  12  13
ATOM     13  O   LIG    1       -1.617 -10.807  -2.832  0.00  0.00    -0.560 OA
ATOM     14  H   LIG    1       -1.426 -11.326  -3.625  0.00  0.00    +0.380 HD
ENDBRANCH  12  13
ENDBRANCH  11  12
ENDBRANCH   3   7
BRANCH   1  15
ATOM     15  N   LIG    1        2.645  -5.520  -0.932  0.00  0.00    -0.710 N 
ATOM     16  H   LIG    1        3.582  -5.315  -0.788  0.00  0.00    +0.410 HD
BRANCH  15  21
ATOM     17  C   LIG    1        0.713  -0.495  -1.233  0.00  0.00    +0.520 C 
ATOM     18  N   LIG    1        0.765  -1.815  -1.500  0.00  0.00    -0.620 N 
ATOM     19  C   LIG    1        0.047  -2.779  -0.654  0.00  0.00    +0.270 C 
ATOM     20  C   LIG    1        1.027  -3.849  -0.177  0.00  0.00    +0.010 C 
ATOM     21  C   LIG    1        1.727  -4.473  -1.386  0.00  0.00    +0.240 C 
ATOM     22  C   LIG    1        2.514  -3.395  -2.135  0.00  0.00    +0.030 C 
ATOM     23  C   LIG    1        1.546  -2.319  -2.638  0.00  0.00    +0.280 C 
ATOM     24  O   LIG    1        1.238   0.297  -1.987  0.00  0.00    -0.530 OA
BRANCH  17  26
ATOM     25  C   LIG    1       -0.424   1.451  -0.201  0.00  0.00    +0.050 C 
ATOM     26  C   LIG    1        0.003  -0.004   0.002  0.00  0.00    -0.030 C 
ATOM     27  C   LIG    1        0.946  -0.096   1.203  0.00  0.00    +0.050 C 
ENDBRANCH  17  26
ENDBRANCH  15  21
ENDBRANCH   1  15
TORSDOF 6
