REMARK  Name = ZINCqH0000050v3l.0
REMARK                            x       y       z     vdW  Elec       q    Type
REMARK                         _______ _______ _______ _____ _____    ______ ____
ROOT
ATOM      1  C   LIG    1       -0.959   3.948  -2.108  0.00  0.00    +0.590 C 
ATOM      2  N   LIG    1       -0.720   3.079  -1.107  0.00  0.00    -0.610 N 
ATOM      3  C   LIG    1       -0.908   3.480   0.294  0.00  0.00    +0.250 C 
ATOM      4  C   LIG    1        0.381   3.189   1.068  0.00  0.00    +0.020 C 
ATOM      5  C   LIG    1        0.762   1.718   0.882  0.00  0.00    +0.050 C 
ATOM      6  C   LIG    1        1.016   1.439  -0.602  0.00  0.00    +0.000 C 
ATOM      7  C   LIG    1       -0.266   1.711  -1.395  0.00  0.00    +0.300 C 
ATOM      8  O   LIG    1       -0.843   3.590  -3.265  0.00  0.00    -0.530 OA
ENDROOT
BRANCH   1  18
ATOM      9  C   LIG    1       -0.843  10.476  -4.232  0.00  0.00    +0.100 C 
ATOM     10  C   LIG    1       -0.935   9.085  -3.660  0.00  0.00    -0.060 A 
ATOM     11  C   LIG    1       -0.371   8.021  -4.348  0.00  0.00    -0.010 A 
ATOM     12  C   LIG    1       -0.448   6.744  -3.836  0.00  0.00    +0.070 A 
ATOM     13  C   LIG    1       -1.091   6.526  -2.620  0.00  0.00    -0.070 A 
ATOM     14  C   LIG    1       -1.667   7.602  -1.925  0.00  0.00    +0.090 A 
ATOM     15  N   LIG    1       -2.232   7.095  -0.773  0.00  0.00    -0.580 N 
ATOM     16  H   LIG    1       -2.695   7.624  -0.105  0.00  0.00    +0.420 HD
ATOM     17  C   LIG    1       -2.048   5.755  -0.706  0.00  0.00    +0.280 A 
ATOM     18  C   LIG    1       -1.359   5.328  -1.803  0.00  0.00    -0.220 A 
ATOM     19  C   LIG    1       -1.578   8.883  -2.458  0.00  0.00    -0.010 A 
ENDBRANCH   1  18
BRANCH   5  20
ATOM     20  C   LIG    1        2.012   1.420   1.669  0.00  0.00    -0.080 A 
ATOM     21  C   LIG    1        2.120   0.233   2.370  0.00  0.00    +0.010 A 
ATOM     22  C   LIG    1        3.268  -0.043   3.088  0.00  0.00    +0.000 A 
ATOM     23  C   LIG    1        4.304   0.872   3.115  0.00  0.00    +0.000 A 
ATOM     24  C   LIG    1        4.193   2.061   2.419  0.00  0.00    +0.000 A 
ATOM     25  C   LIG    1        3.047   2.335   1.696  0.00  0.00    +0.000 A 
ENDBRANCH   5  20
BRANCH   6  26
ATOM     26  C   LIG    1        2.134   2.352  -1.109  0.00  0.00    +0.180 C 
BRANCH  26  27
ATOM     27  O   LIG    1        2.423   2.038  -2.473  0.00  0.00    -0.570 OA
ATOM     28  H   LIG    1        3.124   2.580  -2.861  0.00  0.00    +0.380 HD
ENDBRANCH  26  27
ENDBRANCH   6  26
TORSDOF 4
