REMARK  Name = ZINCrD000000Cwxg.0
REMARK                            x       y       z     vdW  Elec       q    Type
REMARK                         _______ _______ _______ _____ _____    ______ ____
ROOT
ATOM      1  C   LIG    1        1.222  -1.912   3.098  0.00  0.00    +0.180 C 
ATOM      2  C   LIG    1        1.547  -0.809   4.114  0.00  0.00    +0.290 C 
ATOM      3  N   LIG    1        2.376  -1.410   5.173  0.00  0.00    -0.940 N 
ATOM      4  C   LIG    1        2.016  -2.684   5.640  0.00  0.00    +0.090 A 
ATOM      5  C   LIG    1        2.567  -3.177   6.811  0.00  0.00    +0.020 A 
ATOM      6  C   LIG    1        2.212  -4.435   7.264  0.00  0.00    +0.030 A 
ATOM      7  C   LIG    1        1.308  -5.198   6.550  0.00  0.00    +0.040 A 
ATOM      8  C   LIG    1        0.753  -4.710   5.381  0.00  0.00    +0.030 A 
ATOM      9  C   LIG    1        1.102  -3.451   4.920  0.00  0.00    +0.100 A 
ATOM     10  O   LIG    1        0.547  -2.976   3.773  0.00  0.00    -0.280 OA
ENDROOT
BRANCH   1  12
ATOM     11  O   LIG    1       -0.840  -1.666   1.976  0.00  0.00    -0.500 OA
ATOM     12  C   LIG    1        0.331  -1.356   2.016  0.00  0.00    +0.530 C 
ATOM     13  N   LIG    1        0.838  -0.514   1.094  0.00  0.00    -0.610 N 
ATOM     14  C   LIG    1        2.228  -0.049   1.187  0.00  0.00    +0.250 C 
ATOM     15  C   LIG    1        2.936  -0.341  -0.140  0.00  0.00    +0.010 C 
ATOM     16  C   LIG    1        2.140   0.285  -1.286  0.00  0.00    +0.020 C 
ATOM     17  C   LIG    1        0.742  -0.335  -1.338  0.00  0.00    +0.010 C 
ATOM     18  C   LIG    1        0.009  -0.043  -0.025  0.00  0.00    +0.280 C 
ENDBRANCH   1  12
BRANCH   3  19
ATOM     19  S   LIG    1        3.687  -0.610   5.793  0.00  0.00    +2.720 S 
ATOM     20  O   LIG    1        4.099   0.316   4.798  0.00  0.00    -0.930 OA
ATOM     21  O   LIG    1        4.546  -1.605   6.333  0.00  0.00    -0.920 OA
BRANCH  19  22
ATOM     22  C   LIG    1        3.116   0.347   7.158  0.00  0.00    -0.800 A 
ATOM     23  C   LIG    1        3.062  -0.074   8.423  0.00  0.00    +0.200 A 
ATOM     24  C   LIG    1        2.576   0.856   9.327  0.00  0.00    +0.020 A 
ATOM     25  C   LIG    1        2.236   2.032   8.795  0.00  0.00    -0.110 A 
ATOM     26 CL   LIG    1        1.600   3.384   9.679  0.00  0.00    +0.010 Cl
ATOM     27  S   LIG    1        2.538   2.005   7.062  0.00  0.00    +0.280 S 
ENDBRANCH  19  22
ENDBRANCH   3  19
TORSDOF 3
