REMARK  Name = ZINCpk00000y6w54.0
REMARK                            x       y       z     vdW  Elec       q    Type
REMARK                         _______ _______ _______ _____ _____    ______ ____
ROOT
ATOM      1  C   LIG    1       -1.073   0.669   0.595  0.00  0.00    -0.090 C 
ATOM      2  C   LIG    1       -0.830  -0.231  -0.595  0.00  0.00    +0.030 C 
ATOM      3  C   LIG    1       -2.144  -0.788  -1.143  0.00  0.00    +0.230 C 
ATOM      4  O   LIG    1       -2.989   0.319  -1.479  0.00  0.00    -0.370 OA
ATOM      5  C   LIG    1       -3.382   1.082  -0.341  0.00  0.00    +0.210 C 
ATOM      6  C   LIG    1       -1.636  -0.100   1.805  0.00  0.00    +0.300 C 
ATOM      7  N   LIG    1       -2.269   0.938   2.638  0.00  0.00    -0.610 N 
ATOM      8  C   LIG    1       -2.499   0.851   3.963  0.00  0.00    +0.590 C 
ATOM      9  O   LIG    1       -2.262  -0.184   4.555  0.00  0.00    -0.520 OA
ATOM     10  C   LIG    1       -2.611   2.084   1.781  0.00  0.00    +0.260 C 
ATOM     11  C   LIG    1       -2.172   1.720   0.338  0.00  0.00    +0.010 C 
ENDROOT
BRANCH   8  12
ATOM     12  C   LIG    1       -3.039   2.015   4.697  0.00  0.00    -0.190 A 
ATOM     13  C   LIG    1       -2.522   3.298   4.477  0.00  0.00    +0.100 A 
ATOM     14  C   LIG    1       -3.066   4.355   5.186  0.00  0.00    -0.040 A 
ATOM     15  C   LIG    1       -4.086   4.111   6.088  0.00  0.00    +0.190 A 
ATOM     16  N   LIG    1       -4.549   2.890   6.279  0.00  0.00    -0.480 NA
ATOM     17  C   LIG    1       -4.068   1.854   5.626  0.00  0.00    +0.190 A 
ATOM     18  C   LIG    1       -4.634   0.481   5.882  0.00  0.00    +0.150 C 
BRANCH  15  19
ATOM     19  C   LIG    1       -4.676   5.258   6.866  0.00  0.00    +0.010 C 
ATOM     20  C   LIG    1       -3.882   6.565   6.912  0.00  0.00    +0.040 C 
ATOM     21  C   LIG    1       -3.967   5.678   8.155  0.00  0.00    +0.040 C 
ENDBRANCH  15  19
ENDBRANCH   8  12
BRANCH   1  25
ATOM     22  C   LIG    1        2.537   1.300   1.702  0.00  0.00    +0.290 C 
ATOM     23  N   LIG    1        1.288   0.629   1.331  0.00  0.00    -0.730 N 
ATOM     24  H   LIG    1        1.239  -0.339   1.332  0.00  0.00    +0.400 HD
ATOM     25  C   LIG    1        0.209   1.359   0.983  0.00  0.00    +0.530 C 
ATOM     26  O   LIG    1        0.271   2.570   0.981  0.00  0.00    -0.530 OA
ENDBRANCH   1  25
TORSDOF 3
