REMARK  Name = ZINCtV00000tROOq.0
REMARK                            x       y       z     vdW  Elec       q    Type
REMARK                         _______ _______ _______ _____ _____    ______ ____
ROOT
ATOM      1  N   LIG    1        4.600   4.300  -0.002  0.00  0.00    -0.850 N 
ATOM      2  N   LIG    1        3.604   3.328   0.053  0.00  0.00    -0.200 NA
ATOM      3  C   LIG    1        2.406   3.801   0.060  0.00  0.00    +0.140 C 
ATOM      4  C   LIG    1        2.460   5.312   0.015  0.00  0.00    +0.100 C 
ATOM      5  C   LIG    1        3.968   5.629  -0.027  0.00  0.00    +0.270 C 
ENDROOT
BRANCH   3   6
ATOM      6  C   LIG    1        1.172   2.995   0.111  0.00  0.00    -0.030 A 
ATOM      7  C   LIG    1        1.247   1.601   0.150  0.00  0.00    +0.070 A 
ATOM      8  C   LIG    1        0.089   0.852   0.198  0.00  0.00    +0.030 A 
ATOM      9  C   LIG    1       -1.144   1.479   0.201  0.00  0.00    +0.070 A 
ATOM     10  C   LIG    1       -1.226   2.861   0.168  0.00  0.00    -0.090 A 
ATOM     11 BR   LIG    1       -2.917   3.706   0.181  0.00  0.00    -0.040 Br
ATOM     12  C   LIG    1       -0.076   3.622   0.121  0.00  0.00    +0.080 A 
ENDBRANCH   3   6
BRANCH   5  13
ATOM     13  C   LIG    1        4.320   6.364  -1.295  0.00  0.00    -0.100 A 
ATOM     14  C   LIG    1        4.480   7.736  -1.276  0.00  0.00    +0.050 A 
ATOM     15  C   LIG    1        4.804   8.411  -2.438  0.00  0.00    +0.030 A 
ATOM     16  C   LIG    1        4.968   7.713  -3.620  0.00  0.00    +0.060 A 
ATOM     17  C   LIG    1        4.808   6.339  -3.639  0.00  0.00    -0.080 A 
ATOM     18 BR   LIG    1        5.032   5.384  -5.256  0.00  0.00    -0.040 Br
ATOM     19  C   LIG    1        4.489   5.664  -2.475  0.00  0.00    +0.050 A 
ENDBRANCH   5  13
BRANCH   1  20
ATOM     20  S   LIG    1        6.230   4.009  -0.028  0.00  0.00    +2.710 S 
ATOM     21  O   LIG    1        6.839   5.179  -0.556  0.00  0.00    -0.930 OA
ATOM     22  O   LIG    1        6.398   2.719  -0.602  0.00  0.00    -0.920 OA
BRANCH  20  29
ATOM     23  C   LIG    1        5.465   1.750   1.833  0.00  0.00    +0.100 C 
ATOM     24  C   LIG    1        6.361   2.810   2.421  0.00  0.00    +0.030 A 
ATOM     25  C   LIG    1        6.780   2.710   3.734  0.00  0.00    -0.020 A 
ATOM     26  C   LIG    1        7.603   3.682   4.273  0.00  0.00    +0.080 A 
ATOM     27  C   LIG    1        8.006   4.753   3.498  0.00  0.00    -0.010 A 
ATOM     28  C   LIG    1        7.591   4.850   2.183  0.00  0.00    +0.120 A 
ATOM     29  C   LIG    1        6.764   3.881   1.646  0.00  0.00    -0.690 A 
ENDBRANCH  20  29
ENDBRANCH   1  20
TORSDOF 4
