REMARK  Name = ZINCrD000000C981.0
REMARK                            x       y       z     vdW  Elec       q    Type
REMARK                         _______ _______ _______ _____ _____    ______ ____
ROOT
ATOM      1  C   LIG    1       -3.545   0.236   0.003  0.00  0.00    +0.240 C 
ATOM      2  C   LIG    1       -3.217  -0.055  -1.491  0.00  0.00    +0.170 C 
ATOM      3  S   LIG    1       -3.631  -1.849  -1.554  0.00  0.00    -0.230 S 
ATOM      4  C   LIG    1       -3.105  -2.191   0.171  0.00  0.00    +0.380 C 
ATOM      5  N   LIG    1       -3.077  -0.876   0.828  0.00  0.00    -0.990 NA
ENDROOT
BRANCH   1   7
ATOM      6  O   LIG    1       -1.650   1.515   0.591  0.00  0.00    -0.500 OA
ATOM      7  C   LIG    1       -2.852   1.505   0.431  0.00  0.00    +0.520 C 
ATOM      8  N   LIG    1       -3.569   2.628   0.635  0.00  0.00    -0.660 N 
ATOM      9  H   LIG    1       -4.519   2.638   0.442  0.00  0.00    +0.410 HD
BRANCH   8  10
ATOM     10  C   LIG    1       -2.942   3.779   1.125  0.00  0.00    +0.160 A 
ATOM     11  C   LIG    1       -3.619   4.624   1.994  0.00  0.00    -0.020 A 
ATOM     12  C   LIG    1       -2.995   5.757   2.479  0.00  0.00    +0.030 A 
ATOM     13  C   LIG    1       -1.702   6.055   2.092  0.00  0.00    -0.010 A 
ATOM     14  C   LIG    1       -1.026   5.218   1.223  0.00  0.00    +0.030 A 
ATOM     15  C   LIG    1       -1.642   4.081   0.738  0.00  0.00    +0.020 A 
ENDBRANCH   8  10
ENDBRANCH   1   7
BRANCH   5  16
ATOM     16  S   LIG    1       -2.560  -0.671   2.387  0.00  0.00    +2.690 S 
ATOM     17  O   LIG    1       -1.396  -1.473   2.533  0.00  0.00    -0.940 OA
ATOM     18  O   LIG    1       -2.575   0.728   2.635  0.00  0.00    -0.930 OA
BRANCH  16  19
ATOM     19  C   LIG    1       -3.784  -1.376   3.440  0.00  0.00    -0.710 C 
ATOM     20  C   LIG    1       -4.555  -0.581   4.164  0.00  0.00    +0.210 C 
ATOM     21  C   LIG    1       -5.558  -1.167   5.077  0.00  0.00    -0.100 A 
ATOM     22  C   LIG    1       -6.607  -0.397   5.575  0.00  0.00    +0.050 A 
ATOM     23  C   LIG    1       -7.537  -0.974   6.418  0.00  0.00    +0.000 A 
ATOM     24  C   LIG    1       -7.428  -2.309   6.763  0.00  0.00    +0.040 A 
ATOM     25  C   LIG    1       -6.386  -3.077   6.273  0.00  0.00    +0.010 A 
ATOM     26  C   LIG    1       -5.448  -2.511   5.437  0.00  0.00    -0.050 A 
ATOM     27  C   LIG    1       -4.295  -3.325   4.912  0.00  0.00    +0.100 C 
ATOM     28  C   LIG    1       -3.935  -2.871   3.500  0.00  0.00    +0.110 C 
ENDBRANCH  16  19
ENDBRANCH   5  16
TORSDOF 4
