REMARK  Name = ZINCpk000000nnJY.0
REMARK                            x       y       z     vdW  Elec       q    Type
REMARK                         _______ _______ _______ _____ _____    ______ ____
ROOT
ATOM      1  N   LIG    1        0.954   1.634   0.375  0.00  0.00    -0.720 N 
ATOM      2  H   LIG    1        0.887   2.595   0.483  0.00  0.00    +0.410 HD
ATOM      3  C   LIG    1       -0.142   0.862   0.517  0.00  0.00    +0.560 C 
ATOM      4  O   LIG    1       -0.058  -0.343   0.381  0.00  0.00    -0.540 OA
ENDROOT
BRANCH   3   5
ATOM      5  C   LIG    1       -1.444   1.480   0.831  0.00  0.00    -0.160 A 
ATOM      6  C   LIG    1       -1.541   2.865   0.993  0.00  0.00    +0.080 A 
ATOM      7  C   LIG    1       -2.759   3.439   1.282  0.00  0.00    -0.030 A 
ATOM      8  C   LIG    1       -3.890   2.642   1.422  0.00  0.00    +0.210 A 
ATOM      9  C   LIG    1       -3.796   1.262   1.267  0.00  0.00    +0.000 A 
ATOM     10  C   LIG    1       -2.583   0.682   0.973  0.00  0.00    +0.120 A 
BRANCH   8  11
ATOM     11  N   LIG    1       -5.120   3.226   1.721  0.00  0.00    -0.570 N 
ATOM     12  C   LIG    1       -5.339   4.645   2.039  0.00  0.00    +0.260 C 
ATOM     13  C   LIG    1       -6.858   4.738   2.277  0.00  0.00    +0.260 C 
ATOM     14  O   LIG    1       -7.331   3.374   2.079  0.00  0.00    -0.320 OA
ATOM     15  C   LIG    1       -6.296   2.585   1.770  0.00  0.00    +0.650 C 
ATOM     16  O   LIG    1       -6.412   1.395   1.553  0.00  0.00    -0.490 OA
ENDBRANCH   8  11
ENDBRANCH   3   5
BRANCH   1  17
ATOM     17  C   LIG    1        2.246   1.020   0.057  0.00  0.00    +0.270 C 
BRANCH  17  19
ATOM     18  C   LIG    1        3.522   2.877   1.137  0.00  0.00    +0.050 C 
ATOM     19  C   LIG    1        3.289   2.117  -0.170  0.00  0.00    +0.090 C 
ATOM     20  C   LIG    1        4.602   1.483  -0.633  0.00  0.00    +0.020 C 
BRANCH  19  21
ATOM     21  N   LIG    1        2.805   3.047  -1.199  0.00  0.00    -0.520 NA
ATOM     22  C   LIG    1        2.395   2.325  -2.412  0.00  0.00    +0.150 C 
ATOM     23  C   LIG    1        1.843   3.324  -3.432  0.00  0.00    +0.220 C 
ATOM     24  O   LIG    1        2.835   4.318  -3.703  0.00  0.00    -0.380 OA
ATOM     25  C   LIG    1        3.257   5.042  -2.544  0.00  0.00    +0.220 C 
ATOM     26  C   LIG    1        3.823   4.060  -1.514  0.00  0.00    +0.150 C 
ENDBRANCH  19  21
ENDBRANCH  17  19
ENDBRANCH   1  17
TORSDOF 5
