REMARK  Name = ZINCrg000000qZuo.0
REMARK                            x       y       z     vdW  Elec       q    Type
REMARK                         _______ _______ _______ _____ _____    ______ ____
ROOT
ATOM      1  N   LIG    1       -0.724   1.573  -1.181  0.00  0.00    -0.480 N 
ATOM      2  C   LIG    1        0.144   1.304  -0.027  0.00  0.00    +0.180 C 
ATOM      3  C   LIG    1       -0.553   1.777   1.253  0.00  0.00    +0.280 C 
ATOM      4  N   LIG    1       -0.942   3.185   1.081  0.00  0.00    -0.620 N 
ATOM      5  C   LIG    1       -1.697   3.557  -0.125  0.00  0.00    +0.300 C 
ATOM      6  C   LIG    1       -0.615   4.111   2.004  0.00  0.00    +0.520 C 
ATOM      7  O   LIG    1       -0.943   5.268   1.847  0.00  0.00    -0.540 OA
ATOM      8  C   LIG    1       -0.955   3.014  -1.351  0.00  0.00    +0.180 C 
ENDROOT
BRANCH   1  14
ATOM      9  C   LIG    1       -0.116  -0.376  -2.480  0.00  0.00    +0.120 A 
ATOM     10  C   LIG    1        0.408  -0.929  -3.637  0.00  0.00    -0.060 A 
ATOM     11  C   LIG    1        0.850  -0.107  -4.658  0.00  0.00    +0.030 A 
ATOM     12  C   LIG    1        0.772   1.267  -4.527  0.00  0.00    +0.000 A 
ATOM     13  C   LIG    1        0.245   1.827  -3.378  0.00  0.00    +0.000 A 
ATOM     14  C   LIG    1       -0.196   1.009  -2.348  0.00  0.00    +0.070 A 
BRANCH   9  16
ATOM     15  C   LIG    1       -0.438  -2.593  -1.681  0.00  0.00    +0.230 C 
ATOM     16  O   LIG    1       -0.550  -1.183  -1.476  0.00  0.00    -0.310 OA
ENDBRANCH   9  16
ENDBRANCH   1  14
BRANCH   6  17
ATOM     17  C   LIG    1        0.160   3.709   3.233  0.00  0.00    +0.060 C 
BRANCH  17  18
ATOM     18  C   LIG    1        0.399   4.939   4.111  0.00  0.00    +0.040 C 
BRANCH  18  19
ATOM     19  C   LIG    1        1.185   4.531   5.358  0.00  0.00    +0.320 C 
BRANCH  19  20
ATOM     20  N   LIG    1        1.414   5.708   6.199  0.00  0.00    -0.580 N 
ATOM     21  C   LIG    1        0.576   6.118   7.171  0.00  0.00    +0.520 C 
ATOM     22  C   LIG    1        1.213   7.359   7.765  0.00  0.00    +0.300 C 
ATOM     23  N   LIG    1        2.452   7.520   6.984  0.00  0.00    -0.630 N 
ATOM     24  C   LIG    1        3.457   8.573   7.144  0.00  0.00    +0.340 C 
ATOM     25  O   LIG    1       -0.470   5.602   7.502  0.00  0.00    -0.470 OA
ATOM     26  C   LIG    1        2.483   6.507   6.099  0.00  0.00    +0.700 C 
ATOM     27  O   LIG    1        3.380   6.338   5.297  0.00  0.00    -0.540 OA
ENDBRANCH  19  20
ENDBRANCH  18  19
ENDBRANCH  17  18
ENDBRANCH   6  17
TORSDOF 6
