REMARK  Name = ZINCpk00000Fe7OG.1
REMARK                            x       y       z     vdW  Elec       q    Type
REMARK                         _______ _______ _______ _____ _____    ______ ____
ROOT
ATOM      1  C   LIG    1        6.714  -1.575   4.465  0.00  0.00    +0.270 C 
ATOM      2  C   LIG    1        5.835  -0.321   4.406  0.00  0.00    +0.280 C 
ATOM      3  N   LIG    1        5.824   0.173   3.020  0.00  0.00    -0.590 N 
ATOM      4  C   LIG    1        7.116   0.350   2.338  0.00  0.00    +0.270 C 
ATOM      5  C   LIG    1        7.933  -0.932   2.500  0.00  0.00    +0.220 C 
ATOM      6  C   LIG    1        4.665   0.450   2.391  0.00  0.00    +0.610 C 
ATOM      7  O   LIG    1        3.611   0.360   2.992  0.00  0.00    -0.530 OA
ATOM      8  O   LIG    1        7.988  -1.286   3.884  0.00  0.00    -0.370 OA
ENDROOT
BRANCH   1  11
ATOM      9  C   LIG    1        6.678  -3.109   7.739  0.00  0.00    +0.290 A 
ATOM     10  N   LIG    1        6.293  -3.023   6.492  0.00  0.00    -0.530 NA
ATOM     11  C   LIG    1        6.898  -1.994   5.902  0.00  0.00    +0.230 A 
ATOM     12  N   LIG    1        7.674  -1.402   6.771  0.00  0.00    -0.280 NA
ATOM     13  N   LIG    1        7.546  -2.111   7.977  0.00  0.00    -0.480 N 
ATOM     14  H   LIG    1        7.997  -1.919   8.815  0.00  0.00    +0.440 HD
BRANCH   9  16
ATOM     15  C   LIG    1        5.052  -3.583   9.551  0.00  0.00    +0.050 C 
ATOM     16  C   LIG    1        6.221  -4.141   8.738  0.00  0.00    +0.150 C 
ENDBRANCH   9  16
ENDBRANCH   1  11
BRANCH   6  17
ATOM     17  C   LIG    1        4.673   0.860   0.976  0.00  0.00    -0.060 A 
ATOM     18  C   LIG    1        3.584   1.059   0.185  0.00  0.00    +0.060 A 
ATOM     19  O   LIG    1        4.040   1.418  -1.026  0.00  0.00    -0.180 OA
ATOM     20  C   LIG    1        5.379   1.448  -0.978  0.00  0.00    +0.450 A 
ATOM     21  N   LIG    1        5.772   1.113   0.214  0.00  0.00    -0.470 NA
BRANCH  18  22
ATOM     22  C   LIG    1        2.141   0.900   0.589  0.00  0.00    +0.290 C 
ATOM     23  C   LIG    1        1.549  -0.404  -0.002  0.00  0.00    +0.020 C 
ATOM     24  C   LIG    1        0.035  -0.083  -0.046  0.00  0.00    +0.010 C 
ATOM     25  C   LIG    1       -0.025   1.457  -0.013  0.00  0.00    +0.210 C 
ATOM     26  O   LIG    1        1.330   1.937  -0.004  0.00  0.00    -0.370 OA
ENDBRANCH  18  22
ENDBRANCH   6  17
TORSDOF 4
