REMARK  Name = ZINCpk00000Fe7OG.0
REMARK                            x       y       z     vdW  Elec       q    Type
REMARK                         _______ _______ _______ _____ _____    ______ ____
ROOT
ATOM      1  C   LIG    1        1.319  -1.645   1.386  0.00  0.00    +0.260 C 
ATOM      2  C   LIG    1        1.179  -0.797   0.111  0.00  0.00    +0.300 C 
ATOM      3  N   LIG    1       -0.042   0.014   0.231  0.00  0.00    -0.600 N 
ATOM      4  C   LIG    1       -1.294  -0.669   0.594  0.00  0.00    +0.280 C 
ATOM      5  C   LIG    1       -1.035  -1.523   1.840  0.00  0.00    +0.230 C 
ATOM      6  C   LIG    1       -0.016   1.344   0.009  0.00  0.00    +0.610 C 
ATOM      7  O   LIG    1        1.045   1.910  -0.170  0.00  0.00    -0.530 OA
ATOM      8  O   LIG    1        0.102  -2.360   1.609  0.00  0.00    -0.360 OA
ENDROOT
BRANCH   1  12
ATOM      9  C   LIG    1        4.276  -3.754   1.505  0.00  0.00    +0.190 A 
ATOM     10  N   LIG    1        3.676  -4.157   0.418  0.00  0.00    -0.290 NA
ATOM     11  N   LIG    1        2.593  -3.484   0.246  0.00  0.00    -0.260 NA
ATOM     12  C   LIG    1        2.453  -2.622   1.216  0.00  0.00    +0.170 A 
ATOM     13  N   LIG    1        3.520  -2.765   2.040  0.00  0.00    -0.570 N 
ATOM     14  H   LIG    1        3.703  -2.264   2.849  0.00  0.00    +0.430 HD
BRANCH   9  16
ATOM     15  C   LIG    1        5.464  -5.802   2.243  0.00  0.00    +0.050 C 
ATOM     16  C   LIG    1        5.572  -4.287   2.059  0.00  0.00    +0.140 C 
ENDBRANCH   9  16
ENDBRANCH   1  12
BRANCH   6  17
ATOM     17  C   LIG    1       -1.275   2.110  -0.022  0.00  0.00    -0.070 A 
ATOM     18  C   LIG    1       -1.396   3.462  -0.118  0.00  0.00    +0.040 A 
ATOM     19  O   LIG    1       -2.710   3.739  -0.113  0.00  0.00    -0.180 OA
ATOM     20  C   LIG    1       -3.381   2.583  -0.016  0.00  0.00    +0.450 A 
ATOM     21  N   LIG    1       -2.535   1.599   0.035  0.00  0.00    -0.470 NA
BRANCH  18  22
ATOM     22  C   LIG    1       -0.270   4.459  -0.213  0.00  0.00    +0.300 C 
ATOM     23  C   LIG    1       -0.108   5.196   1.134  0.00  0.00    +0.030 C 
ATOM     24  C   LIG    1        0.200   6.649   0.681  0.00  0.00    +0.030 C 
ATOM     25  C   LIG    1       -0.658   6.743  -0.606  0.00  0.00    +0.190 C 
ATOM     26  O   LIG    1       -0.573   5.442  -1.210  0.00  0.00    -0.370 OA
ENDBRANCH  18  22
ENDBRANCH   6  17
TORSDOF 4
