REMARK  Name = ZINCqH00000055yy.1
REMARK                            x       y       z     vdW  Elec       q    Type
REMARK                         _______ _______ _______ _____ _____    ______ ____
ROOT
ATOM      1  N   LIG    1       -6.133   1.218  -0.527  0.00  0.00    -0.710 N 
ATOM      2  H   LIG    1       -5.827   2.050  -0.922  0.00  0.00    +0.410 HD
ATOM      3  C   LIG    1       -5.237   0.308  -0.096  0.00  0.00    +0.560 C 
ATOM      4  O   LIG    1       -5.621  -0.736   0.400  0.00  0.00    -0.540 OA
ENDROOT
BRANCH   3   5
ATOM      5  C   LIG    1       -3.805   0.574  -0.223  0.00  0.00    -0.230 C 
ATOM      6  C   LIG    1       -2.901  -0.339   0.210  0.00  0.00    +0.160 C 
ATOM      7  C   LIG    1       -1.474  -0.011   0.077  0.00  0.00    -0.140 A 
ATOM      8  C   LIG    1       -0.489  -0.993   0.178  0.00  0.00    +0.110 A 
ATOM      9  C   LIG    1        0.839  -0.641   0.038  0.00  0.00    -0.120 A 
ATOM     10  C   LIG    1        1.192   0.679  -0.196  0.00  0.00    +0.100 A 
ATOM     11  C   LIG    1        0.224   1.661  -0.291  0.00  0.00    +0.010 A 
ATOM     12 BR   LIG    1        2.182  -1.966   0.165  0.00  0.00    -0.040 Br
ATOM     13  C   LIG    1       -1.111   1.327  -0.154  0.00  0.00    +0.160 A 
ATOM     14  O   LIG    1       -2.085   2.267  -0.241  0.00  0.00    -0.300 OA
ATOM     15  C   LIG    1       -3.327   1.865  -0.836  0.00  0.00    +0.310 C 
ENDBRANCH   3   5
BRANCH   1  16
ATOM     16  C   LIG    1       -7.567   0.952  -0.400  0.00  0.00    +0.280 C 
BRANCH  16  17
ATOM     17  C   LIG    1       -8.358   2.135  -0.961  0.00  0.00    +0.210 C 
BRANCH  17  18
ATOM     18  C   LIG    1       -9.829   1.810  -0.943  0.00  0.00    -0.090 A 
ATOM     19  C   LIG    1      -10.727   2.699  -0.382  0.00  0.00    +0.020 A 
ATOM     20  C   LIG    1      -12.077   2.403  -0.365  0.00  0.00    +0.050 A 
ATOM     21  C   LIG    1      -12.531   1.217  -0.910  0.00  0.00    -0.010 A 
ATOM     22  C   LIG    1      -11.633   0.325  -1.472  0.00  0.00    +0.100 A 
ATOM     23  F   LIG    1      -12.076  -0.835  -2.005  0.00  0.00    -0.140 F 
ATOM     24  C   LIG    1      -10.282   0.625  -1.493  0.00  0.00    -0.010 A 
ENDBRANCH  17  18
BRANCH  17  26
ATOM     25  C   LIG    1       -8.154   1.223  -3.195  0.00  0.00    +0.180 C 
ATOM     26  N   LIG    1       -7.931   2.398  -2.342  0.00  0.00    -0.530 NA
ATOM     27  C   LIG    1       -8.612   3.581  -2.887  0.00  0.00    +0.190 C 
ENDBRANCH  17  26
ENDBRANCH  16  17
ENDBRANCH   1  16
TORSDOF 5
