REMARK  Name = ZINCqH000000702h.0
REMARK                            x       y       z     vdW  Elec       q    Type
REMARK                         _______ _______ _______ _____ _____    ______ ____
ROOT
ATOM      1  C   LIG    1        0.002  -0.004   0.002  0.00  0.00    +0.220 A 
ATOM      2  N   LIG    1       -1.040  -0.795   0.007  0.00  0.00    -0.350 NA
ATOM      3  O   LIG    1       -0.683  -1.954  -0.002  0.00  0.00    +0.090 OA
ATOM      4  C   LIG    1        0.652  -2.022  -0.015  0.00  0.00    +0.180 A 
ATOM      5  N   LIG    1        1.101  -0.792  -0.018  0.00  0.00    -0.460 NA
ENDROOT
BRANCH   1   9
ATOM      6  C   LIG    1       -0.055   4.252   0.025  0.00  0.00    +0.190 A 
ATOM      7  C   LIG    1        1.157   3.572   0.010  0.00  0.00    -0.110 A 
ATOM      8  C   LIG    1        1.178   2.193   0.003  0.00  0.00    +0.160 A 
ATOM      9  C   LIG    1       -0.018   1.478   0.010  0.00  0.00    -0.100 A 
ATOM     10  C   LIG    1       -1.238   2.163   0.020  0.00  0.00    +0.200 A 
ATOM     11  C   LIG    1       -1.250   3.547   0.034  0.00  0.00    -0.110 A 
BRANCH   6  13
ATOM     12  C   LIG    1        1.197   6.272   0.024  0.00  0.00    +0.240 C 
ATOM     13  O   LIG    1       -0.069   5.610   0.033  0.00  0.00    -0.310 OA
ENDBRANCH   6  13
BRANCH  10  14
ATOM     14  O   LIG    1       -2.407   1.472   0.021  0.00  0.00    -0.290 OA
ATOM     15  C   LIG    1       -3.613   2.238   0.031  0.00  0.00    +0.240 C 
ENDBRANCH  10  14
ENDBRANCH   1   9
BRANCH   4  16
ATOM     16  C   LIG    1        1.484  -3.279  -0.030  0.00  0.00    +0.360 C 
BRANCH  16  17
ATOM     17  N   LIG    1        1.767  -3.695   1.350  0.00  0.00    -0.490 N 
ATOM     18  C   LIG    1        2.657  -2.808   1.969  0.00  0.00    +0.080 A 
ATOM     19  C   LIG    1        2.434  -1.535   2.489  0.00  0.00    +0.030 A 
ATOM     20  C   LIG    1        3.472  -0.826   3.058  0.00  0.00    +0.010 A 
ATOM     21  C   LIG    1        4.740  -1.374   3.117  0.00  0.00    +0.010 A 
ATOM     22  C   LIG    1        4.968  -2.639   2.605  0.00  0.00    +0.030 A 
ATOM     23  C   LIG    1        3.934  -3.353   2.038  0.00  0.00    -0.130 A 
ATOM     24  C   LIG    1        3.887  -4.734   1.416  0.00  0.00    +0.060 C 
ATOM     25  C   LIG    1        2.373  -5.044   1.383  0.00  0.00    +0.180 C 
ATOM     26  C   LIG    1        1.946  -5.800   2.643  0.00  0.00    +0.060 C 
ENDBRANCH  16  17
ENDBRANCH   4  16
TORSDOF 5
