REMARK  Name = ZINCtj00000s2ijc.0
REMARK                            x       y       z     vdW  Elec       q    Type
REMARK                         _______ _______ _______ _____ _____    ______ ____
ROOT
ATOM      1  C   LIG    1        1.947   2.320  -1.109  0.00  0.00    +0.740 C 
ENDROOT
BRANCH   1   2
ATOM      2  N   LIG    1        3.300   2.540  -1.206  0.00  0.00    -0.620 NA
ATOM      3  C   LIG    1        4.098   2.881  -0.019  0.00  0.00    +0.330 C 
ATOM      4  C   LIG    1        5.304   1.931   0.042  0.00  0.00    +0.210 C 
ATOM      5  N   LIG    1        6.032   1.992  -1.233  0.00  0.00    -0.470 N 
ATOM      6  C   LIG    1        5.199   1.519  -2.346  0.00  0.00    +0.230 C 
ATOM      7  C   LIG    1        3.989   2.446  -2.503  0.00  0.00    +0.310 C 
BRANCH   5   8
ATOM      8  C   LIG    1        7.221   1.275  -1.162  0.00  0.00    +0.300 A 
ATOM      9  C   LIG    1        8.149   1.575  -0.170  0.00  0.00    -0.040 A 
ATOM     10  C   LIG    1        9.328   0.854  -0.110  0.00  0.00    +0.090 A 
ATOM     11  C   LIG    1        9.540  -0.147  -1.048  0.00  0.00    -0.050 A 
ATOM     12  C   LIG    1        8.576  -0.392  -2.006  0.00  0.00    +0.290 A 
ATOM     13  N   LIG    1        7.458   0.309  -2.036  0.00  0.00    -0.520 NA
ENDBRANCH   5   8
ENDBRANCH   1   2
BRANCH   1  14
ATOM     14  N   LIG    1        1.466   1.654  -0.096  0.00  0.00    -0.640 NA
ATOM     15  H   LIG    1        2.056   1.364   0.618  0.00  0.00    +0.440 HD
BRANCH  14  16
ATOM     16  C   LIG    1        0.036   1.345  -0.035  0.00  0.00    +0.230 C 
ATOM     17  C   LIG    1       -0.235   0.036  -0.779  0.00  0.00    +0.070 C 
BRANCH  16  18
ATOM     18  C   LIG    1       -0.392   1.199   1.427  0.00  0.00    +0.210 C 
BRANCH  18  20
ATOM     19  C   LIG    1       -0.069  -0.159   3.376  0.00  0.00    +0.230 C 
ATOM     20  O   LIG    1        0.264   0.068   2.004  0.00  0.00    -0.390 OA
ENDBRANCH  18  20
ENDBRANCH  16  18
ENDBRANCH  14  16
ENDBRANCH   1  14
BRANCH   1  21
ATOM     21  N   LIG    1        1.100   2.801  -2.079  0.00  0.00    -0.680 NA
ATOM     22  H   LIG    1        0.160   2.564  -2.063  0.00  0.00    +0.430 HD
BRANCH  21  23
ATOM     23  C   LIG    1        1.618   3.671  -3.137  0.00  0.00    +0.310 C 
BRANCH  23  24
ATOM     24  C   LIG    1        0.453   4.213  -3.968  0.00  0.00    +0.130 C 
ATOM     25  C   LIG    1        0.999   5.024  -5.147  0.00  0.00    +0.210 C 
ATOM     26  O   LIG    1       -0.094   5.620  -5.853  0.00  0.00    -0.360 OA
ATOM     27  C   LIG    1       -0.909   6.467  -5.037  0.00  0.00    +0.210 C 
ATOM     28  C   LIG    1       -1.454   5.656  -3.858  0.00  0.00    +0.080 C 
ATOM     29  C   LIG    1       -2.386   4.560  -4.379  0.00  0.00    +0.020 C 
ATOM     30  C   LIG    1       -2.228   6.581  -2.916  0.00  0.00    +0.080 C 
ATOM     31  O   LIG    1       -0.362   5.059  -3.152  0.00  0.00    -0.370 OA
ENDBRANCH  23  24
ENDBRANCH  21  23
ENDBRANCH   1  21
TORSDOF 9
