REMARK  Name = ZINCpe000000Ynq7.0
REMARK                            x       y       z     vdW  Elec       q    Type
REMARK                         _______ _______ _______ _____ _____    ______ ____
ROOT
ATOM      1  C   LIG    1        4.034   0.530  -1.476  0.00  0.00    +0.130 C 
ATOM      2  C   LIG    1        5.563   0.473  -1.492  0.00  0.00    +0.050 C 
ATOM      3  C   LIG    1        6.059   0.429  -2.939  0.00  0.00    +0.030 C 
ATOM      4  C   LIG    1        5.615   1.702  -3.666  0.00  0.00    +0.260 C 
ATOM      5  N   LIG    1        4.159   1.840  -3.531  0.00  0.00    -0.610 N 
ATOM      6  C   LIG    1        3.380   1.996  -4.620  0.00  0.00    +0.520 C 
ATOM      7  O   LIG    1        2.179   2.109  -4.495  0.00  0.00    -0.530 OA
ATOM      8  C   LIG    1        3.567   1.805  -2.187  0.00  0.00    +0.240 C 
ENDROOT
BRANCH   1   9
ATOM      9  O   LIG    1        3.507  -0.613  -2.152  0.00  0.00    -0.540 OA
ATOM     10  H   LIG    1        2.541  -0.642  -2.181  0.00  0.00    +0.380 HD
ENDBRANCH   1   9
BRANCH   1  11
ATOM     11  C   LIG    1        3.538   0.542  -0.029  0.00  0.00    +0.150 C 
BRANCH  11  17
ATOM     12  C   LIG    1        1.747   3.108   0.002  0.00  0.00    +0.340 C 
ATOM     13  N   LIG    1        1.272   1.722  -0.001  0.00  0.00    -0.470 N 
ATOM     14  C   LIG    1       -0.016   1.301   0.009  0.00  0.00    +0.380 A 
ATOM     15  N   LIG    1        0.002  -0.004   0.002  0.00  0.00    -0.290 NA
ATOM     16  N   LIG    1        1.219  -0.420  -0.012  0.00  0.00    -0.280 NA
ATOM     17  C   LIG    1        2.032   0.600  -0.014  0.00  0.00    +0.160 A 
ENDBRANCH  11  17
ENDBRANCH   1  11
BRANCH   6  18
ATOM     18  C   LIG    1        4.002   2.031  -5.992  0.00  0.00    +0.110 C 
BRANCH  18  19
ATOM     19  C   LIG    1        2.922   2.213  -7.028  0.00  0.00    -0.040 A 
ATOM     20  C   LIG    1        2.313   1.106  -7.590  0.00  0.00    +0.030 A 
ATOM     21  C   LIG    1        1.321   1.266  -8.536  0.00  0.00    +0.060 A 
ATOM     22  C   LIG    1        0.940   2.549  -8.933  0.00  0.00    -0.030 A 
ATOM     23  C   LIG    1        1.563   3.662  -8.366  0.00  0.00    +0.060 A 
ATOM     24  C   LIG    1        2.550   3.488  -7.417  0.00  0.00    +0.020 A 
BRANCH  22  25
ATOM     25  C   LIG    1       -0.084   2.722  -9.918  0.00  0.00    +0.250 C 
ATOM     26  N   LIG    1       -0.897   2.860 -10.700  0.00  0.00    -0.410 NA
ENDBRANCH  22  25
ENDBRANCH  18  19
ENDBRANCH   6  18
TORSDOF 6
