REMARK  Name = ZINCrH000004tYp1.0
REMARK                            x       y       z     vdW  Elec       q    Type
REMARK                         _______ _______ _______ _____ _____    ______ ____
ROOT
ATOM      1  O   LIG    1        2.024  -1.740  -3.165  0.00  0.00    -0.470 OA
ATOM      2  C   LIG    1        1.633  -2.676  -2.499  0.00  0.00    +0.510 C 
ATOM      3  N   LIG    1        2.492  -3.647  -2.132  0.00  0.00    -0.610 N 
ATOM      4  C   LIG    1        2.059  -4.731  -1.240  0.00  0.00    +0.270 C 
ATOM      5  C   LIG    1        3.015  -4.810  -0.052  0.00  0.00    +0.010 C 
ATOM      6  C   LIG    1        4.450  -4.953  -0.564  0.00  0.00    +0.010 C 
ATOM      7  C   LIG    1        4.819  -3.726  -1.402  0.00  0.00    +0.050 C 
ATOM      8  C   LIG    1        3.881  -3.638  -2.610  0.00  0.00    +0.320 C 
ENDROOT
BRANCH   8   9
ATOM      9  C   LIG    1        4.147  -2.361  -3.364  0.00  0.00    +0.230 A 
ATOM     10  N   LIG    1        4.251  -1.172  -2.834  0.00  0.00    -0.460 NA
ATOM     11  C   LIG    1        4.492  -0.276  -3.803  0.00  0.00    +0.150 A 
ATOM     12  C   LIG    1        4.532  -0.933  -4.978  0.00  0.00    +0.110 A 
ATOM     13  N   LIG    1        4.314  -2.255  -4.700  0.00  0.00    -0.570 N 
ATOM     14  H   LIG    1        4.284  -2.981  -5.343  0.00  0.00    +0.410 HD
ENDBRANCH   8   9
BRANCH   2  15
ATOM     15  C   LIG    1        0.186  -2.752  -2.084  0.00  0.00    +0.160 C 
BRANCH  15  16
ATOM     16  C   LIG    1       -0.554  -1.554  -2.620  0.00  0.00    +0.080 A 
ATOM     17  C   LIG    1       -1.651  -1.661  -3.377  0.00  0.00    -0.070 A 
ATOM     18  S   LIG    1       -2.190  -0.033  -3.781  0.00  0.00    +0.150 S 
ATOM     19  C   LIG    1       -0.889   0.629  -2.892  0.00  0.00    +0.040 A 
ATOM     20  N   LIG    1       -0.174  -0.315  -2.379  0.00  0.00    -0.420 NA
BRANCH  19  21
ATOM     21  C   LIG    1       -0.615   2.102  -2.731  0.00  0.00    +0.310 C 
BRANCH  21  22
ATOM     22  O   LIG    1        0.238   2.546  -3.787  0.00  0.00    -0.300 OA
BRANCH  22  23
ATOM     23  C   LIG    1        0.585   3.861  -3.789  0.00  0.00    +0.130 A 
ATOM     24  C   LIG    1        0.108   4.706  -2.798  0.00  0.00    -0.080 A 
ATOM     25  C   LIG    1        0.466   6.041  -2.800  0.00  0.00    +0.050 A 
ATOM     26  C   LIG    1        1.289   6.536  -3.794  0.00  0.00    -0.040 A 
ATOM     27  C   LIG    1        1.761   5.696  -4.786  0.00  0.00    +0.050 A 
ATOM     28  C   LIG    1        1.411   4.360  -4.786  0.00  0.00    -0.020 A 
ENDBRANCH  22  23
ENDBRANCH  21  22
ENDBRANCH  19  21
ENDBRANCH  15  16
ENDBRANCH   2  15
TORSDOF 6
