REMARK  Name = ZINCrg00000SjSqi.0
REMARK                            x       y       z     vdW  Elec       q    Type
REMARK                         _______ _______ _______ _____ _____    ______ ____
ROOT
ATOM      1  C   LIG    1       -2.374   2.640   3.670  0.00  0.00    +0.170 A 
ATOM      2  C   LIG    1       -2.569   1.396   3.093  0.00  0.00    -0.060 A 
ATOM      3  C   LIG    1       -1.849   1.034   1.969  0.00  0.00    +0.160 A 
ATOM      4  C   LIG    1       -0.933   1.911   1.418  0.00  0.00    -0.700 A 
ATOM      5  C   LIG    1       -0.728   3.152   1.991  0.00  0.00    +0.180 A 
ATOM      6  C   LIG    1       -1.450   3.524   3.115  0.00  0.00    +0.090 A 
ENDROOT
BRANCH   6   7
ATOM      7  N   LIG    1       -1.248   4.783   3.694  0.00  0.00    -0.640 N 
ATOM      8  H   LIG    1       -1.993   5.257   4.096  0.00  0.00    +0.430 HD
ATOM      9  C   LIG    1       -0.019   5.336   3.692  0.00  0.00    +0.580 C 
ATOM     10  O   LIG    1        0.897   4.780   3.117  0.00  0.00    -0.490 OA
BRANCH   9  11
ATOM     11  C   LIG    1        0.213   6.609   4.384  0.00  0.00    +0.080 C 
ATOM     12  N   LIG    1       -0.772   7.197   4.990  0.00  0.00    -0.200 NA
ATOM     13  N   LIG    1       -0.587   8.409   5.662  0.00  0.00    -0.560 N 
ATOM     14  H   LIG    1       -1.229   8.693   6.332  0.00  0.00    +0.440 HD
ATOM     15  C   LIG    1        0.476   9.188   5.381  0.00  0.00    +0.500 C 
ATOM     16  C   LIG    1        1.476   8.744   4.343  0.00  0.00    +0.090 C 
ATOM     17  O   LIG    1        0.627  10.243   5.959  0.00  0.00    -0.510 OA
ATOM     18  C   LIG    1        1.589   7.218   4.375  0.00  0.00    +0.120 C 
ENDBRANCH   9  11
ENDBRANCH   6   7
BRANCH   4  19
ATOM     19  S   LIG    1       -0.020   1.442  -0.014  0.00  0.00    +2.690 S 
ATOM     20  O   LIG    1        1.161   2.232  -0.013  0.00  0.00    -0.950 OA
ATOM     21  O   LIG    1       -0.004   0.021  -0.033  0.00  0.00    -0.950 OA
BRANCH  19  22
ATOM     22  N   LIG    1       -0.900   1.917  -1.334  0.00  0.00    -1.000 NA
ATOM     23  C   LIG    1       -1.882   1.011  -1.944  0.00  0.00    +0.290 C 
ATOM     24  C   LIG    1       -3.233   1.739  -2.026  0.00  0.00    +0.010 C 
ATOM     25  C   LIG    1       -3.048   3.061  -2.775  0.00  0.00    +0.010 C 
ATOM     26  C   LIG    1       -2.068   3.951  -2.007  0.00  0.00    +0.010 C 
ATOM     27  C   LIG    1       -0.708   3.250  -1.921  0.00  0.00    +0.290 C 
ENDBRANCH  19  22
ENDBRANCH   4  19
BRANCH   1  29
ATOM     28  C   LIG    1       -4.010   2.040   5.289  0.00  0.00    +0.250 C 
ATOM     29  O   LIG    1       -3.081   2.997   4.775  0.00  0.00    -0.310 OA
ENDBRANCH   1  29
TORSDOF 5
