REMARK  Name = ZINCrH000004mzOx.0
REMARK                            x       y       z     vdW  Elec       q    Type
REMARK                         _______ _______ _______ _____ _____    ______ ____
ROOT
ATOM      1  C   LIG    1       -3.349  -2.228   1.538  0.00  0.00    +0.060 C 
ENDROOT
BRANCH   1   2
ATOM      2  C   LIG    1       -3.225  -1.086   0.562  0.00  0.00    +0.520 C 
ATOM      3  N   LIG    1       -2.761   0.109   0.980  0.00  0.00    -0.610 N 
ATOM      4  C   LIG    1       -2.378   0.297   2.381  0.00  0.00    +0.280 C 
ATOM      5  O   LIG    1       -3.542  -1.241  -0.598  0.00  0.00    -0.540 OA
BRANCH   3   6
ATOM      6  C   LIG    1       -2.640   1.220   0.032  0.00  0.00    +0.300 C 
ATOM      7  C   LIG    1       -3.513   2.409   0.486  0.00  0.00    +0.030 C 
ATOM      8  C   LIG    1       -2.671   3.625   0.045  0.00  0.00    +0.090 C 
ATOM      9  C   LIG    1       -1.240   3.132   0.029  0.00  0.00    -0.090 A 
ATOM     10  C   LIG    1       -0.048   3.836   0.022  0.00  0.00    +0.010 A 
ATOM     11  C   LIG    1        1.158   3.163   0.008  0.00  0.00    +0.020 A 
ATOM     12  C   LIG    1        1.176   1.780   0.000  0.00  0.00    +0.000 A 
ATOM     13  C   LIG    1       -0.013   1.076   0.008  0.00  0.00    +0.030 A 
ATOM     14  C   LIG    1       -1.222   1.749   0.017  0.00  0.00    -0.110 A 
ENDBRANCH   3   6
ENDBRANCH   1   2
BRANCH   1  15
ATOM     15  C   LIG    1       -3.896  -3.460   0.813  0.00  0.00    +0.110 C 
BRANCH  15  19
ATOM     16  C   LIG    1       -4.244  -6.705   3.581  0.00  0.00    +0.120 A 
ATOM     17  C   LIG    1       -3.110  -6.578   2.793  0.00  0.00    -0.060 A 
ATOM     18  C   LIG    1       -3.001  -5.528   1.900  0.00  0.00    +0.070 A 
ATOM     19  C   LIG    1       -4.021  -4.602   1.788  0.00  0.00    -0.130 A 
ATOM     20  C   LIG    1       -5.156  -4.719   2.576  0.00  0.00    +0.120 A 
ATOM     21  C   LIG    1       -5.272  -5.776   3.471  0.00  0.00    +0.050 A 
BRANCH  16  23
ATOM     22  C   LIG    1       -3.256  -8.655   4.517  0.00  0.00    +0.240 C 
ATOM     23  O   LIG    1       -4.351  -7.738   4.459  0.00  0.00    -0.310 OA
ENDBRANCH  16  23
BRANCH  20  24
ATOM     24  O   LIG    1       -6.156  -3.804   2.469  0.00  0.00    -0.330 OA
ATOM     25  C   LIG    1       -7.186  -4.077   1.517  0.00  0.00    +0.240 C 
ENDBRANCH  20  24
BRANCH  21  26
ATOM     26  O   LIG    1       -6.386  -5.897   4.243  0.00  0.00    -0.320 OA
ATOM     27  C   LIG    1       -6.370  -5.243   5.513  0.00  0.00    +0.220 C 
ENDBRANCH  21  26
ENDBRANCH  15  19
ENDBRANCH   1  15
TORSDOF 7
