REMARK  Name = ZINCtV000002LO9r.0
REMARK                            x       y       z     vdW  Elec       q    Type
REMARK                         _______ _______ _______ _____ _____    ______ ____
ROOT
ATOM      1  C   LIG    1        4.520   0.799  -0.202  0.00  0.00    -0.010 A 
ATOM      2  C   LIG    1        3.825  -0.357  -0.363  0.00  0.00    -0.060 A 
ATOM      3  C   LIG    1        2.411   0.004  -0.272  0.00  0.00    -0.130 A 
ATOM      4  C   LIG    1        1.216  -0.715  -0.353  0.00  0.00    +0.080 A 
ATOM      5  C   LIG    1        0.023  -0.061  -0.222  0.00  0.00    +0.010 A 
ATOM      6  C   LIG    1       -0.008   1.310  -0.010  0.00  0.00    +0.070 A 
ATOM      7  C   LIG    1        1.160   2.037   0.073  0.00  0.00    +0.030 A 
ATOM      8  C   LIG    1        2.385   1.394  -0.057  0.00  0.00    +0.080 A 
ATOM      9  O   LIG    1        3.662   1.825  -0.022  0.00  0.00    -0.180 OA
ENDROOT
BRANCH   1  12
ATOM     10  N   LIG    1        6.567   2.118  -0.049  0.00  0.00    -0.660 N 
ATOM     11  H   LIG    1        6.021   2.918   0.009  0.00  0.00    +0.420 HD
ATOM     12  C   LIG    1        5.984   0.915  -0.220  0.00  0.00    +0.600 C 
ATOM     13  O   LIG    1        6.671  -0.075  -0.390  0.00  0.00    -0.480 OA
BRANCH  10  18
ATOM     14  C   LIG    1       10.075   1.294   0.727  0.00  0.00    -0.010 A 
ATOM     15  C   LIG    1       10.723   2.422   0.219  0.00  0.00    +0.060 A 
ATOM     16  C   LIG    1        9.990   3.432  -0.370  0.00  0.00    +0.040 A 
ATOM     17  C   LIG    1        8.615   3.330  -0.463  0.00  0.00    +0.030 A 
ATOM     18  C   LIG    1        7.959   2.214   0.044  0.00  0.00    +0.140 A 
ATOM     19  C   LIG    1        8.686   1.194   0.637  0.00  0.00    +0.070 A 
BRANCH  14  21
ATOM     20  N   LIG    1       11.434  -0.589   1.823  0.00  0.00    -0.410 NA
ATOM     21  C   LIG    1       10.833   0.244   1.338  0.00  0.00    +0.250 C 
ENDBRANCH  14  21
ENDBRANCH  10  18
ENDBRANCH   1  12
BRANCH   2  22
ATOM     22  C   LIG    1        4.397  -1.733  -0.590  0.00  0.00    +0.170 C 
BRANCH  22  23
ATOM     23  S   LIG    1        4.584  -2.024  -2.371  0.00  0.00    -0.080 S 
BRANCH  23  24
ATOM     24  C   LIG    1        5.252  -3.653  -2.439  0.00  0.00    -0.080 A 
ATOM     25  C   LIG    1        5.500  -4.353  -1.264  0.00  0.00    +0.010 A 
ATOM     26  C   LIG    1        6.020  -5.631  -1.321  0.00  0.00    +0.050 A 
ATOM     27  C   LIG    1        6.304  -6.210  -2.545  0.00  0.00    -0.040 A 
ATOM     28  C   LIG    1        6.063  -5.514  -3.716  0.00  0.00    +0.050 A 
ATOM     29 CL   LIG    1        6.964  -7.815  -2.612  0.00  0.00    -0.070 Cl
ATOM     30  C   LIG    1        5.539  -4.237  -3.666  0.00  0.00    +0.050 A 
ENDBRANCH  23  24
ENDBRANCH  22  23
ENDBRANCH   2  22
TORSDOF 6
