REMARK  Name = ZINCkj00000dEhlx.1
REMARK                            x       y       z     vdW  Elec       q    Type
REMARK                         _______ _______ _______ _____ _____    ______ ____
ROOT
ATOM      1  O   LIG    1       -5.569   0.261  -3.325  0.00  0.00    -0.480 OA
ATOM      2  C   LIG    1       -4.810  -0.378  -2.624  0.00  0.00    +0.590 C 
ATOM      3  N   LIG    1       -3.755   0.229  -2.045  0.00  0.00    -0.660 N 
ATOM      4  C   LIG    1       -3.171   1.583  -2.121  0.00  0.00    +0.350 C 
ATOM      5  C   LIG    1       -2.592   1.294  -0.730  0.00  0.00    -0.120 C 
ATOM      6  C   LIG    1       -1.148   1.761  -0.557  0.00  0.00    +0.080 C 
ATOM      7  C   LIG    1       -0.647   1.318   0.822  0.00  0.00    +0.060 C 
ATOM      8  C   LIG    1       -1.607   1.835   1.896  0.00  0.00    +0.260 C 
ATOM      9  N   LIG    1       -2.941   1.258   1.690  0.00  0.00    -0.510 N 
ATOM     10  H   LIG    1       -2.872   0.251   1.671  0.00  0.00    +0.420 HD
ATOM     11  H   LIG    1       -3.547   1.537   2.447  0.00  0.00    +0.440 HD
ATOM     12  C   LIG    1       -3.500   1.733   0.416  0.00  0.00    +0.310 C 
ATOM     13  C   LIG    1       -2.719  -0.194  -1.081  0.00  0.00    +0.280 C 
ENDROOT
BRANCH   2  14
ATOM     14  C   LIG    1       -5.044  -1.824  -2.405  0.00  0.00    +0.070 A 
ATOM     15  C   LIG    1       -6.196  -2.400  -2.897  0.00  0.00    +0.050 A 
ATOM     16  C   LIG    1       -6.456  -3.755  -2.714  0.00  0.00    +0.170 A 
ATOM     17  C   LIG    1       -5.530  -4.531  -2.021  0.00  0.00    +0.060 A 
ATOM     18  N   LIG    1       -5.457  -5.822  -1.671  0.00  0.00    -0.510 NA
ATOM     19  C   LIG    1       -4.342  -6.053  -1.005  0.00  0.00    +0.310 A 
ATOM     20  C   LIG    1       -3.598  -4.889  -0.878  0.00  0.00    -0.150 A 
ATOM     21  C   LIG    1       -4.311  -3.883  -1.509  0.00  0.00    +0.060 A 
ATOM     22  N   LIG    1       -4.116  -2.550  -1.729  0.00  0.00    -0.500 N 
ATOM     23  H   LIG    1       -3.313  -2.119  -1.398  0.00  0.00    +0.410 HD
ENDBRANCH   2  14
TORSDOF 1
