REMARK  Name = ZINCkj00000dEhlx.0
REMARK                            x       y       z     vdW  Elec       q    Type
REMARK                         _______ _______ _______ _____ _____    ______ ____
ROOT
ATOM      1  O   LIG    1       -2.728   0.250   5.155  0.00  0.00    -0.520 OA
ATOM      2  C   LIG    1       -2.496  -0.404   4.157  0.00  0.00    +0.610 C 
ATOM      3  N   LIG    1       -2.621   0.159   2.939  0.00  0.00    -0.630 N 
ATOM      4  C   LIG    1       -3.004   1.500   2.454  0.00  0.00    +0.330 C 
ATOM      5  C   LIG    1       -2.200   1.155   1.194  0.00  0.00    -0.130 C 
ATOM      6  C   LIG    1       -0.733   1.582   1.267  0.00  0.00    +0.080 C 
ATOM      7  C   LIG    1       -0.013   1.086   0.008  0.00  0.00    +0.050 C 
ATOM      8  C   LIG    1       -0.755   1.594  -1.229  0.00  0.00    +0.250 C 
ATOM      9  N   LIG    1       -2.120   1.055  -1.248  0.00  0.00    -0.500 N 
ATOM     10  H   LIG    1       -2.084   0.049  -1.192  0.00  0.00    +0.430 HD
ATOM     11  H   LIG    1       -2.576   1.327  -2.107  0.00  0.00    +0.430 HD
ATOM     12  C   LIG    1       -2.879   1.581  -0.105  0.00  0.00    +0.290 C 
ATOM     13  C   LIG    1       -2.430  -0.318   1.555  0.00  0.00    +0.320 C 
ENDROOT
BRANCH   2  14
ATOM     14  C   LIG    1       -2.078  -1.818   4.280  0.00  0.00    +0.070 A 
ATOM     15  C   LIG    1       -1.946  -2.389   5.549  0.00  0.00    +0.050 A 
ATOM     16  C   LIG    1       -1.561  -3.711   5.665  0.00  0.00    +0.070 A 
ATOM     17  C   LIG    1       -1.304  -4.430   4.502  0.00  0.00    +0.070 A 
ATOM     18  N   LIG    1       -0.908  -5.722   4.254  0.00  0.00    -0.590 N 
ATOM     19  H   LIG    1       -0.732  -6.391   4.934  0.00  0.00    +0.430 HD
ATOM     20  C   LIG    1       -0.799  -5.925   2.907  0.00  0.00    +0.270 A 
ATOM     21  C   LIG    1       -1.113  -4.800   2.245  0.00  0.00    -0.030 A 
ATOM     22  C   LIG    1       -1.451  -3.790   3.252  0.00  0.00    +0.090 A 
ATOM     23  N   LIG    1       -1.828  -2.521   3.185  0.00  0.00    -0.420 NA
ENDBRANCH   2  14
TORSDOF 1
