REMARK  Name = ZINCpk00000ealWE.0
REMARK                            x       y       z     vdW  Elec       q    Type
REMARK                         _______ _______ _______ _____ _____    ______ ____
ROOT
ATOM      1  N   LIG    1       -3.561  -2.256   0.127  0.00  0.00    -0.700 N 
ATOM      2  H   LIG    1       -3.601  -1.287   0.133  0.00  0.00    +0.420 HD
ATOM      3  C   LIG    1       -2.372  -2.881   0.010  0.00  0.00    +0.590 C 
ATOM      4  O   LIG    1       -2.329  -4.092  -0.093  0.00  0.00    -0.550 OA
ENDROOT
BRANCH   3   5
ATOM      5  C   LIG    1       -1.130  -2.099   0.005  0.00  0.00    -0.370 A 
ATOM      6  C   LIG    1        0.118  -2.737   0.005  0.00  0.00    +0.460 A 
ATOM      7  N   LIG    1        1.221  -2.018   0.002  0.00  0.00    -0.540 NA
ATOM      8  C   LIG    1        1.189  -0.683  -0.001  0.00  0.00    +0.400 A 
ATOM      9  C   LIG    1        2.397   0.034  -0.004  0.00  0.00    +0.040 A 
ATOM     10  C   LIG    1        2.370   1.398  -0.006  0.00  0.00    +0.140 A 
ATOM     11  C   LIG    1        1.138   2.064  -0.007  0.00  0.00    -0.130 A 
ATOM     12  C   LIG    1       -0.015   1.356  -0.004  0.00  0.00    +0.290 A 
ATOM     13  C   LIG    1        1.097   3.570  -0.011  0.00  0.00    +0.130 C 
ATOM     14  N   LIG    1        0.003  -0.005  -0.001  0.00  0.00    -0.420 N 
ATOM     15  C   LIG    1       -1.165  -0.684   0.002  0.00  0.00    +0.520 A 
ATOM     16  O   LIG    1       -2.228  -0.089   0.002  0.00  0.00    -0.510 OA
ENDBRANCH   3   5
BRANCH   1  24
ATOM     17  C   LIG    1       -6.050  -2.148   0.370  0.00  0.00    +0.260 C 
ATOM     18  C   LIG    1       -6.762  -2.576   1.669  0.00  0.00    +0.010 C 
ATOM     19  C   LIG    1       -5.639  -3.207   2.529  0.00  0.00    +0.030 C 
ATOM     20  C   LIG    1       -4.783  -3.956   1.486  0.00  0.00    +0.040 C 
ATOM     21  O   LIG    1       -6.883  -2.429  -0.766  0.00  0.00    -0.380 OA
ATOM     22  C   LIG    1       -6.591  -3.782  -1.177  0.00  0.00    +0.220 C 
ATOM     23  C   LIG    1       -5.064  -3.900  -1.013  0.00  0.00    +0.020 C 
ATOM     24  C   LIG    1       -4.792  -3.041   0.246  0.00  0.00    +0.160 C 
BRANCH  17  26
ATOM     25  C   LIG    1       -6.811   0.120   0.529  0.00  0.00    +0.220 C 
ATOM     26  O   LIG    1       -5.694  -0.764   0.414  0.00  0.00    -0.360 OA
ENDBRANCH  17  26
ENDBRANCH   1  24
TORSDOF 3
