REMARK  Name = ZINCpk00000FcaVv.0
REMARK                            x       y       z     vdW  Elec       q    Type
REMARK                         _______ _______ _______ _____ _____    ______ ____
ROOT
ATOM      1  N   LIG    1       -2.847   4.677  -0.114  0.00  0.00    -0.730 N 
ATOM      2  H   LIG    1       -3.322   4.076   0.482  0.00  0.00    +0.400 HD
ATOM      3  C   LIG    1       -1.518   4.543  -0.286  0.00  0.00    +0.530 C 
ATOM      4  O   LIG    1       -0.924   5.293  -1.032  0.00  0.00    -0.520 OA
ENDROOT
BRANCH   3   5
ATOM      5  C   LIG    1       -0.768   3.460   0.446  0.00  0.00    +0.000 C 
ATOM      6  C   LIG    1        0.620   3.219  -0.196  0.00  0.00    +0.090 C 
ATOM      7  C   LIG    1        1.526   2.933   0.981  0.00  0.00    +0.520 C 
ATOM      8  N   LIG    1        0.942   3.334   2.123  0.00  0.00    -0.620 N 
ATOM      9  C   LIG    1        1.546   3.202   3.451  0.00  0.00    +0.310 C 
ATOM     10  O   LIG    1        2.623   2.421   0.904  0.00  0.00    -0.520 OA
ATOM     11  C   LIG    1       -0.379   3.922   1.868  0.00  0.00    +0.310 C 
BRANCH  11  12
ATOM     12  C   LIG    1       -0.300   5.426   1.926  0.00  0.00    -0.170 A 
ATOM     13  C   LIG    1       -1.329   6.160   2.497  0.00  0.00    +0.070 A 
ATOM     14  C   LIG    1       -1.214   7.542   2.529  0.00  0.00    -0.030 A 
ATOM     15  C   LIG    1       -0.086   8.136   1.995  0.00  0.00    +0.270 A 
ATOM     16  N   LIG    1        0.873   7.406   1.461  0.00  0.00    -0.480 NA
ATOM     17  C   LIG    1        0.800   6.090   1.417  0.00  0.00    +0.280 A 
ENDBRANCH  11  12
ENDBRANCH   3   5
BRANCH   1  18
ATOM     18  C   LIG    1       -3.576   5.729  -0.826  0.00  0.00    +0.260 C 
BRANCH  18  19
ATOM     19  C   LIG    1       -5.059   5.663  -0.455  0.00  0.00    +0.010 C 
BRANCH  19  20
ATOM     20  C   LIG    1       -5.820   6.762  -1.199  0.00  0.00    +0.020 C 
BRANCH  20  21
ATOM     21  C   LIG    1       -7.303   6.696  -0.829  0.00  0.00    +0.030 C 
BRANCH  21  22
ATOM     22  C   LIG    1       -8.065   7.795  -1.572  0.00  0.00    +0.100 C 
BRANCH  22  23
ATOM     23  C   LIG    1       -9.525   7.730  -1.207  0.00  0.00    +0.460 C 
ATOM     24  O   LIG    1       -9.917   6.890  -0.432  0.00  0.00    -0.510 OA
BRANCH  23  26
ATOM     25  C   LIG    1      -11.782   8.482  -1.347  0.00  0.00    +0.250 C 
ATOM     26  O   LIG    1      -10.391   8.604  -1.744  0.00  0.00    -0.360 OA
ENDBRANCH  23  26
ENDBRANCH  22  23
ENDBRANCH  21  22
ENDBRANCH  20  21
ENDBRANCH  19  20
ENDBRANCH  18  19
ENDBRANCH   1  18
TORSDOF 9
