REMARK  Name = ZINCpe000000UCqb.1
REMARK                            x       y       z     vdW  Elec       q    Type
REMARK                         _______ _______ _______ _____ _____    ______ ____
ROOT
ATOM      1  C   LIG    1       -0.462   7.339  -1.698  0.00  0.00    +0.200 C 
ENDROOT
BRANCH   1   2
ATOM      2  O   LIG    1       -0.556   6.846  -3.036  0.00  0.00    -0.540 OA
ATOM      3  H   LIG    1       -1.225   7.292  -3.574  0.00  0.00    +0.370 HD
ENDBRANCH   1   2
BRANCH   1   4
ATOM      4  C   LIG    1       -1.807   7.155  -0.991  0.00  0.00    +0.280 C 
BRANCH   4   6
ATOM      5  C   LIG    1       -2.834   5.026  -1.913  0.00  0.00    +0.290 C 
ATOM      6  N   LIG    1       -2.097   5.725  -0.858  0.00  0.00    -0.610 N 
ATOM      7  C   LIG    1       -1.686   5.053   0.236  0.00  0.00    +0.520 C 
ATOM      8  O   LIG    1       -1.142   5.646   1.143  0.00  0.00    -0.510 OA
BRANCH   7   9
ATOM      9  C   LIG    1       -1.902   3.565   0.331  0.00  0.00    +0.170 C 
ATOM     10  C   LIG    1       -0.908   2.844  -0.584  0.00  0.00    +0.180 C 
ATOM     11  N   LIG    1       -1.072   1.391  -0.428  0.00  0.00    -0.680 NA
ATOM     12  H   LIG    1       -0.455   0.890  -1.050  0.00  0.00    +0.350 HD
ATOM     13  C   LIG    1       -0.854   0.989   0.969  0.00  0.00    +0.140 C 
ATOM     14  C   LIG    1       -1.848   1.728   1.869  0.00  0.00    +0.230 C 
ATOM     15  O   LIG    1       -1.696   3.138   1.681  0.00  0.00    -0.360 OA
ENDBRANCH   7   9
ENDBRANCH   4   6
ENDBRANCH   1   4
BRANCH   1  16
ATOM     16  C   LIG    1       -0.100   8.825  -1.726  0.00  0.00    +0.180 C 
BRANCH  16  17
ATOM     17  O   LIG    1        1.207   8.986  -2.281  0.00  0.00    -0.290 OA
BRANCH  17  18
ATOM     18  C   LIG    1        1.683  10.255  -2.378  0.00  0.00    +0.180 A 
ATOM     19  C   LIG    1        0.909  11.323  -1.949  0.00  0.00    -0.070 A 
ATOM     20  C   LIG    1        1.396  12.612  -2.049  0.00  0.00    +0.090 A 
ATOM     21  C   LIG    1        2.654  12.838  -2.576  0.00  0.00    -0.020 A 
ATOM     22  C   LIG    1        3.427  11.776  -3.006  0.00  0.00    +0.120 A 
ATOM     23  C   LIG    1        2.948  10.485  -2.902  0.00  0.00    -0.220 A 
BRANCH  23  24
ATOM     24  C   LIG    1        3.794   9.326  -3.364  0.00  0.00    +0.520 C 
ATOM     25  F   LIG    1        3.126   8.637  -4.382  0.00  0.00    -0.170 F 
ATOM     26  F   LIG    1        4.026   8.461  -2.290  0.00  0.00    -0.170 F 
ATOM     27  F   LIG    1        5.016   9.805  -3.849  0.00  0.00    -0.180 F 
ENDBRANCH  23  24
ENDBRANCH  17  18
ENDBRANCH  16  17
ENDBRANCH   1  16
TORSDOF 8
