REMARK  Name = ZINCpe000000XIhA.0
REMARK                            x       y       z     vdW  Elec       q    Type
REMARK                         _______ _______ _______ _____ _____    ______ ____
ROOT
ATOM      1  N   LIG    1       -3.567   2.603   3.166  0.00  0.00    -0.650 N 
ATOM      2  H   LIG    1       -3.634   2.892   4.090  0.00  0.00    +0.410 HD
ATOM      3  C   LIG    1       -4.671   2.547   2.395  0.00  0.00    +0.480 C 
ATOM      4  O   LIG    1       -4.586   2.186   1.241  0.00  0.00    -0.500 OA
ENDROOT
BRANCH   1   9
ATOM      5  C   LIG    1       -0.013   1.086   0.008  0.00  0.00    +0.160 C 
ATOM      6  C   LIG    1       -0.718   1.572   1.248  0.00  0.00    +0.080 A 
ATOM      7  N   LIG    1       -0.153   1.829   2.400  0.00  0.00    -0.280 NA
ATOM      8  N   LIG    1       -1.144   2.256   3.292  0.00  0.00    -0.380 N 
ATOM      9  C   LIG    1       -2.327   2.246   2.636  0.00  0.00    +0.310 A 
ATOM     10  C   LIG    1       -2.087   1.831   1.362  0.00  0.00    -0.110 A 
BRANCH   8  11
ATOM     11  C   LIG    1       -0.937   2.645   4.689  0.00  0.00    +0.180 C 
ATOM     12  C   LIG    1       -1.759   1.731   5.601  0.00  0.00    +0.060 C 
ATOM     13  C   LIG    1       -1.382   4.095   4.887  0.00  0.00    +0.060 C 
ATOM     14  C   LIG    1        0.546   2.514   5.040  0.00  0.00    +0.070 C 
ENDBRANCH   8  11
ENDBRANCH   1   9
BRANCH   3  15
ATOM     15  C   LIG    1       -6.010   2.932   2.968  0.00  0.00    +0.260 C 
BRANCH  15  16
ATOM     16  N   LIG    1       -7.045   2.786   1.936  0.00  0.00    -0.510 NA
ATOM     17  C   LIG    1       -7.218   1.377   1.560  0.00  0.00    +0.170 C 
ATOM     18  C   LIG    1       -8.398   1.246   0.594  0.00  0.00    +0.040 C 
ATOM     19  C   LIG    1       -8.129   2.096  -0.650  0.00  0.00    +0.010 C 
ATOM     20  C   LIG    1       -7.904   3.551  -0.227  0.00  0.00    +0.020 C 
ATOM     21  C   LIG    1       -6.739   3.614   0.763  0.00  0.00    +0.200 C 
BRANCH  20  22
ATOM     22  C   LIG    1       -7.575   4.396  -1.459  0.00  0.00    -0.350 C 
BRANCH  22  23
ATOM     23  S   LIG    1       -9.011   4.436  -2.566  0.00  0.00    +2.610 S 
ATOM     24  O   LIG    1      -10.075   5.172  -1.977  0.00  0.00    -0.960 OA
ATOM     25  O   LIG    1       -9.236   3.155  -3.138  0.00  0.00    -0.960 OA
BRANCH  23  26
ATOM     26  N   LIG    1       -8.524   5.373  -3.842  0.00  0.00    -1.250 NA
ATOM     27  H   LIG    1       -7.874   6.079  -3.704  0.00  0.00    +0.410 HD
ATOM     28  H   LIG    1       -8.889   5.215  -4.726  0.00  0.00    +0.420 HD
ENDBRANCH  23  26
ENDBRANCH  22  23
ENDBRANCH  20  22
ENDBRANCH  15  16
ENDBRANCH   3  15
TORSDOF 7
