REMARK  Name = ZINCc70000002mkH.0
REMARK                            x       y       z     vdW  Elec       q    Type
REMARK                         _______ _______ _______ _____ _____    ______ ____
ROOT
ATOM      1  C   UNK    1        2.074  -0.074  -1.393  0.00  0.00    +0.230 C 
ENDROOT
BRANCH   1   2
ATOM      2  O   UNK    1        2.160   1.352  -1.335  0.00  0.00    -0.520 OA
ATOM      3  H   UNK    1        1.694   1.804  -2.051  0.00  0.00    +0.380 HD
ENDBRANCH   1   2
BRANCH   1   4
ATOM      4  C   UNK    1        0.606  -0.499  -1.314  0.00  0.00    -0.020 C 
BRANCH   4   6
ATOM      5  C   UNK    1        0.016   1.381   0.223  0.00  0.00    +0.040 C 
ATOM      6  C   UNK    1        0.045  -0.141   0.064  0.00  0.00    -0.060 C 
ATOM      7  C   UNK    1       -1.375  -0.695   0.196  0.00  0.00    +0.020 C 
ATOM      8  C   UNK    1        0.933  -0.750   1.150  0.00  0.00    +0.020 C 
ENDBRANCH   4   6
ENDBRANCH   1   4
BRANCH   1   9
ATOM      9  C   UNK    1        2.678  -0.568  -2.709  0.00  0.00    +0.040 C 
BRANCH   9  10
ATOM     10  N   UNK    1        2.588  -2.033  -2.768  0.00  0.00    -0.610 N 
ATOM     11  H   UNK    1        2.987  -2.359  -3.636  0.00  0.00    +0.430 HD
ATOM     12  H   UNK    1        1.621  -2.314  -2.716  0.00  0.00    +0.410 HD
ATOM     13  H   UNK    1        3.097  -2.433  -1.994  0.00  0.00    +0.430 HD
ENDBRANCH   9  10
BRANCH   9  14
ATOM     14  C   UNK    1        4.123  -0.149  -2.787  0.00  0.00    +0.490 C 
ATOM     15  O   UNK    1        4.422   0.921  -3.288  0.00  0.00    -0.630 OA
ATOM     16  O   UNK    1        4.994  -0.881  -2.348  0.00  0.00    -0.670 OA
ENDBRANCH   9  14
ENDBRANCH   1   9
TORSDOF 6
