REMARK  Name = ZINCfA000000blaX.0
REMARK                            x       y       z     vdW  Elec       q    Type
REMARK                         _______ _______ _______ _____ _____    ______ ____
ROOT
ATOM      1  N   LIG    1        0.605   3.631  -1.234  0.00  0.00    -0.510 N 
ATOM      2  H   LIG    1        1.117   3.231  -0.461  0.00  0.00    +0.420 HD
ATOM      3  H   LIG    1        0.593   4.636  -1.145  0.00  0.00    +0.420 HD
ENDROOT
BRANCH   1   8
ATOM      4  C   LIG    1        0.011   1.072   2.506  0.00  0.00    +0.020 C 
ATOM      5  C   LIG    1       -0.729   1.579   1.267  0.00  0.00    -0.010 C 
ATOM      6  C   LIG    1       -0.013   1.086   0.008  0.00  0.00    +0.020 C 
ATOM      7  C   LIG    1       -0.753   1.593  -1.232  0.00  0.00    +0.060 C 
ATOM      8  C   LIG    1       -0.773   3.123  -1.223  0.00  0.00    +0.170 C 
ATOM      9  C   LIG    1       -1.490   3.616   0.036  0.00  0.00    +0.010 C 
ATOM     10  C   LIG    1       -1.510   5.146   0.044  0.00  0.00    +0.050 C 
ATOM     11  C   LIG    1       -0.750   3.109   1.275  0.00  0.00    +0.020 C 
ENDBRANCH   1   8
BRANCH   1  12
ATOM     12  C   LIG    1        1.255   3.258  -2.497  0.00  0.00    +0.380 C 
BRANCH  12  13
ATOM     13  C   LIG    1        2.668   3.780  -2.508  0.00  0.00    -0.340 A 
ATOM     14  C   LIG    1        3.749   3.131  -2.065  0.00  0.00    +0.300 A 
ATOM     15  N   LIG    1        4.877   3.802  -2.183  0.00  0.00    -0.470 NA
ATOM     16  C   LIG    1        4.807   4.982  -2.702  0.00  0.00    +0.280 A 
ATOM     17  S   LIG    1        3.189   5.350  -3.113  0.00  0.00    +0.180 S 
ENDBRANCH  12  13
ENDBRANCH   1  12
TORSDOF 3
