REMARK  Name = ZINCkj000005iWhq.0
REMARK                            x       y       z     vdW  Elec       q    Type
REMARK                         _______ _______ _______ _____ _____    ______ ____
ROOT
ATOM      1  C   LIG    1       -3.599   4.515  -3.366  0.00  0.00    +0.070 A 
ATOM      2  C   LIG    1       -2.922   4.021  -2.297  0.00  0.00    +0.260 A 
ATOM      3  N   LIG    1       -1.568   3.911  -2.326  0.00  0.00    -0.490 N 
ATOM      4  C   LIG    1       -0.869   4.294  -3.411  0.00  0.00    +0.520 A 
ATOM      5  C   LIG    1       -1.536   4.805  -4.537  0.00  0.00    -0.060 A 
ATOM      6  O   LIG    1        0.348   4.193  -3.418  0.00  0.00    -0.540 OA
ATOM      7  C   LIG    1       -2.895   4.918  -4.515  0.00  0.00    +0.150 A 
ENDROOT
BRANCH   1   9
ATOM      8  C   LIG    1       -5.588   5.820  -3.517  0.00  0.00    +0.530 C 
ATOM      9  N   LIG    1       -4.998   4.623  -3.325  0.00  0.00    -0.680 N 
ATOM     10  H   LIG    1       -5.541   3.837  -3.158  0.00  0.00    +0.410 HD
ATOM     11  O   LIG    1       -4.917   6.786  -3.811  0.00  0.00    -0.510 OA
BRANCH   8  12
ATOM     12  C   LIG    1       -7.081   5.957  -3.367  0.00  0.00    +0.020 C 
ATOM     13  C   LIG    1       -7.781   5.035  -4.367  0.00  0.00    +0.070 C 
BRANCH  12  14
ATOM     14  C   LIG    1       -7.490   7.407  -3.637  0.00  0.00    +0.110 C 
BRANCH  14  16
ATOM     15  C   LIG    1       -9.552   9.358  -3.682  0.00  0.00    +0.150 C 
ATOM     16  S   LIG    1       -9.263   7.605  -3.312  0.00  0.00    -0.250 S 
ENDBRANCH  14  16
ENDBRANCH  12  14
ENDBRANCH   8  12
ENDBRANCH   1   9
BRANCH   3  17
ATOM     17  C   LIG    1       -0.860   3.375  -1.161  0.00  0.00    +0.300 C 
BRANCH  17  18
ATOM     18  C   LIG    1       -0.733   1.856  -1.296  0.00  0.00    +0.250 C 
BRANCH  18  19
ATOM     19  N   LIG    1       -0.022   1.319  -0.127  0.00  0.00    -0.380 N 
ATOM     20  C   LIG    1        1.357   1.825  -0.117  0.00  0.00    +0.330 C 
ATOM     21  C   LIG    1       -0.005  -0.148  -0.197  0.00  0.00    +0.320 C 
ATOM     22  H   LIG    1       -0.494   1.610   0.716  0.00  0.00    +0.430 HD
ENDBRANCH  18  19
ENDBRANCH  17  18
ENDBRANCH   3  17
TORSDOF 7
