REMARK  Name = ZINCtj00000042An.0
REMARK                            x       y       z     vdW  Elec       q    Type
REMARK                         _______ _______ _______ _____ _____    ______ ____
ROOT
ATOM      1  O   LIG    1        1.601   6.035  -0.608  0.00  0.00    -0.490 OA
ATOM      2  C   LIG    1        1.428   5.465  -1.665  0.00  0.00    +0.510 C 
ATOM      3  N   LIG    1        1.006   6.156  -2.742  0.00  0.00    -0.750 N 
ATOM      4  H   LIG    1        0.868   5.700  -3.587  0.00  0.00    +0.400 HD
ENDROOT
BRANCH   3   5
ATOM      5  C   LIG    1        0.756   7.596  -2.638  0.00  0.00    +0.320 C 
BRANCH   5   6
ATOM      6  C   LIG    1        0.129   8.100  -3.939  0.00  0.00    +0.050 C 
ATOM      7  C   LIG    1        0.963   7.617  -5.128  0.00  0.00    +0.050 C 
ATOM      8  C   LIG    1        2.388   8.159  -5.005  0.00  0.00    +0.050 C 
ATOM      9  C   LIG    1        2.353   9.689  -4.994  0.00  0.00    +0.020 C 
ATOM     10  C   LIG    1        1.520  10.172  -3.805  0.00  0.00    +0.050 C 
ATOM     11  C   LIG    1        0.094   9.630  -3.928  0.00  0.00    +0.060 C 
BRANCH   6  12
ATOM     12  N   LIG    1       -1.240   7.580  -4.057  0.00  0.00    -0.380 N 
ATOM     13  C   LIG    1       -2.074   8.149  -2.989  0.00  0.00    +0.230 C 
ATOM     14  C   LIG    1       -3.499   7.606  -3.115  0.00  0.00    +0.260 C 
ATOM     15  O   LIG    1       -3.467   6.177  -3.050  0.00  0.00    -0.350 OA
ATOM     16  C   LIG    1       -2.647   5.576  -4.056  0.00  0.00    +0.260 C 
ATOM     17  C   LIG    1       -1.220   6.116  -3.933  0.00  0.00    +0.220 C 
ATOM     18  H   LIG    1       -1.621   7.836  -4.955  0.00  0.00    +0.420 HD
ENDBRANCH   6  12
ENDBRANCH   5   6
ENDBRANCH   3   5
BRANCH   2  19
ATOM     19  C   LIG    1        1.685   3.984  -1.772  0.00  0.00    +0.220 C 
BRANCH  19  20
ATOM     20  N   LIG    1        2.027   3.449  -0.448  0.00  0.00    -0.460 N 
ATOM     21  C   LIG    1        3.404   3.797  -0.079  0.00  0.00    +0.240 C 
ATOM     22  C   LIG    1        4.365   2.917  -0.889  0.00  0.00    +0.130 C 
ATOM     23  O   LIG    1        4.138   1.555  -0.512  0.00  0.00    -0.290 OA
ATOM     24  C   LIG    1        2.841   1.151  -0.428  0.00  0.00    +0.100 A 
ATOM     25  C   LIG    1        2.567  -0.207  -0.374  0.00  0.00    +0.010 A 
ATOM     26  C   LIG    1        1.261  -0.650  -0.279  0.00  0.00    +0.040 A 
ATOM     27  C   LIG    1        0.223   0.261  -0.238  0.00  0.00    -0.010 A 
ATOM     28  C   LIG    1        0.487   1.616  -0.293  0.00  0.00    +0.050 A 
ATOM     29  C   LIG    1        1.798   2.070  -0.390  0.00  0.00    +0.010 A 
BRANCH  22  30
ATOM     30  C   LIG    1        5.811   3.307  -0.578  0.00  0.00    +0.220 C 
BRANCH  30  31
ATOM     31  O   LIG    1        6.696   2.566  -1.420  0.00  0.00    -0.570 OA
ATOM     32  H   LIG    1        7.632   2.763  -1.277  0.00  0.00    +0.390 HD
ENDBRANCH  30  31
ENDBRANCH  22  30
ENDBRANCH  19  20
ENDBRANCH   2  19
TORSDOF 7
