REMARK  Name = ZINCvU000000090G.0
REMARK                            x       y       z     vdW  Elec       q    Type
REMARK                         _______ _______ _______ _____ _____    ______ ____
ROOT
ATOM      1  N   LIG    1       -0.662  -2.216  -0.138  0.00  0.00    -0.500 N 
ATOM      2  C   LIG    1       -1.107  -0.946  -0.221  0.00  0.00    +0.570 C 
ATOM      3  C   LIG    1        0.002  -0.004   0.002  0.00  0.00    +0.100 A 
ATOM      4  C   LIG    1        1.141  -0.727   0.218  0.00  0.00    -0.230 A 
ATOM      5  C   LIG    1        2.424  -0.061   0.464  0.00  0.00    +0.460 A 
ATOM      6  C   LIG    1        2.389   1.404   0.224  0.00  0.00    -0.210 A 
ATOM      7  C   LIG    1        3.569   2.147   0.217  0.00  0.00    +0.120 A 
ATOM      8  C   LIG    1        3.518   3.504  -0.014  0.00  0.00    +0.000 A 
ATOM      9  C   LIG    1        2.297   4.126  -0.238  0.00  0.00    +0.100 A 
ATOM     10  C   LIG    1        1.125   3.403  -0.231  0.00  0.00    +0.020 A 
ATOM     11  C   LIG    1        1.150   2.029   0.002  0.00  0.00    +0.140 A 
ATOM     12  O   LIG    1        3.424  -0.653   0.831  0.00  0.00    -0.420 OA
ATOM     13  O   LIG    1       -0.016   1.343   0.009  0.00  0.00    -0.180 OA
ATOM     14  O   LIG    1       -2.257  -0.625  -0.448  0.00  0.00    -0.450 OA
ATOM     15  C   LIG    1        0.782  -2.175   0.146  0.00  0.00    +0.380 C 
ENDROOT
BRANCH  15  16
ATOM     16  C   LIG    1        1.550  -2.846  -0.964  0.00  0.00    -0.090 A 
ATOM     17  C   LIG    1        1.121  -2.724  -2.273  0.00  0.00    +0.030 A 
ATOM     18  C   LIG    1        1.828  -3.334  -3.292  0.00  0.00    +0.030 A 
ATOM     19  C   LIG    1        2.958  -4.077  -3.001  0.00  0.00    -0.020 A 
ATOM     20  C   LIG    1        3.384  -4.203  -1.690  0.00  0.00    +0.040 A 
ATOM     21 CL   LIG    1        3.842  -4.849  -4.279  0.00  0.00    -0.060 Cl
ATOM     22  C   LIG    1        2.679  -3.588  -0.673  0.00  0.00    +0.080 A 
ENDBRANCH  15  16
BRANCH   1  26
ATOM     23  C   LIG    1       -3.072  -5.180  -0.624  0.00  0.00    +0.020 A 
ATOM     24  N   LIG    1       -1.845  -5.514  -0.385  0.00  0.00    -0.230 NA
ATOM     25  N   LIG    1       -1.002  -4.590  -0.221  0.00  0.00    -0.270 NA
ATOM     26  C   LIG    1       -1.430  -3.362  -0.294  0.00  0.00    +0.250 A 
ATOM     27  S   LIG    1       -3.161  -3.417  -0.634  0.00  0.00    +0.140 S 
BRANCH  23  28
ATOM     28  C   LIG    1       -4.221  -6.128  -0.855  0.00  0.00    +0.160 C 
BRANCH  28  30
ATOM     29  C   LIG    1       -6.129  -7.316   0.236  0.00  0.00    +0.030 C 
ATOM     30  C   LIG    1       -4.888  -6.455   0.482  0.00  0.00    -0.020 C 
ATOM     31  C   LIG    1       -3.905  -7.219   1.370  0.00  0.00    +0.030 C 
ENDBRANCH  28  30
ENDBRANCH  23  28
ENDBRANCH   1  26
TORSDOF 4
