REMARK  Name = ZINCrH000004l7Gs.0
REMARK                            x       y       z     vdW  Elec       q    Type
REMARK                         _______ _______ _______ _____ _____    ______ ____
ROOT
ATOM      1  N   LIG    1       -1.462   5.383  -2.040  0.00  0.00    -1.110 NA
ATOM      2  H   LIG    1       -2.311   5.317  -1.574  0.00  0.00    +0.420 HD
ENDROOT
BRANCH   1   3
ATOM      3  S   LIG    1       -1.401   5.183  -3.682  0.00  0.00    +2.710 S 
ATOM      4  O   LIG    1       -0.624   6.259  -4.189  0.00  0.00    -0.930 OA
ATOM      5  O   LIG    1       -2.732   4.919  -4.104  0.00  0.00    -0.930 OA
BRANCH   3   7
ATOM      6  C   LIG    1       -0.453   3.087  -5.210  0.00  0.00    -0.160 A 
ATOM      7  C   LIG    1       -0.479   3.714  -3.995  0.00  0.00    -0.610 A 
ATOM      8  C   LIG    1        0.289   3.087  -3.043  0.00  0.00    +0.070 A 
ATOM      9  C   LIG    1        0.915   1.980  -3.458  0.00  0.00    -0.060 A 
ATOM     10  S   LIG    1        0.578   1.666  -5.101  0.00  0.00    +0.320 S 
BRANCH   6  11
ATOM     11  C   LIG    1       -1.167   3.528  -6.409  0.00  0.00    +0.520 C 
ATOM     12  O   LIG    1       -1.919   4.482  -6.352  0.00  0.00    -0.470 OA
BRANCH  11  14
ATOM     13  C   LIG    1       -1.732   3.369  -8.725  0.00  0.00    +0.280 C 
ATOM     14  O   LIG    1       -0.992   2.877  -7.577  0.00  0.00    -0.350 OA
ENDBRANCH  11  14
ENDBRANCH   6  11
ENDBRANCH   3   7
ENDBRANCH   1   3
BRANCH   1  15
ATOM     15  C   LIG    1       -0.235   5.659  -1.289  0.00  0.00    +0.290 C 
BRANCH  15  16
ATOM     16  C   LIG    1       -0.022   7.149  -1.204  0.00  0.00    -0.100 A 
ATOM     17  C   LIG    1       -1.099   7.990  -0.997  0.00  0.00    +0.020 A 
ATOM     18  C   LIG    1       -0.904   9.356  -0.915  0.00  0.00    +0.000 A 
ATOM     19  C   LIG    1        0.368   9.881  -1.049  0.00  0.00    +0.000 A 
ATOM     20  C   LIG    1        1.444   9.041  -1.262  0.00  0.00    +0.000 A 
ATOM     21  C   LIG    1        1.249   7.674  -1.339  0.00  0.00    +0.020 A 
ENDBRANCH  15  16
BRANCH  15  22
ATOM     22  C   LIG    1       -0.358   5.080   0.122  0.00  0.00    +0.110 C 
BRANCH  22  23
ATOM     23  C   LIG    1       -0.448   3.578   0.043  0.00  0.00    -0.090 A 
ATOM     24  C   LIG    1        0.704   2.814   0.080  0.00  0.00    +0.010 A 
ATOM     25  C   LIG    1        0.622   1.437   0.007  0.00  0.00    +0.000 A 
ATOM     26  C   LIG    1       -0.612   0.822  -0.102  0.00  0.00    +0.000 A 
ATOM     27  C   LIG    1       -1.763   1.586  -0.144  0.00  0.00    +0.010 A 
ATOM     28  C   LIG    1       -1.681   2.964  -0.067  0.00  0.00    +0.010 A 
ENDBRANCH  22  23
ENDBRANCH  15  22
ENDBRANCH   1  15
TORSDOF 8
