REMARK  Name = ZINCrD000000fNMP.0
REMARK                            x       y       z     vdW  Elec       q    Type
REMARK                         _______ _______ _______ _____ _____    ______ ____
ROOT
ATOM      1  C   LIG    1       -1.278   6.077   0.032  0.00  0.00    +0.180 C 
ATOM      2  C   LIG    1       -0.723   7.515   0.041  0.00  0.00    +0.140 C 
ATOM      3  C   LIG    1        0.777   7.328   0.027  0.00  0.00    +0.020 C 
ATOM      4  N   LIG    1        1.054   6.064   0.019  0.00  0.00    -0.170 NA
ATOM      5  N   LIG    1       -0.069   5.238   0.024  0.00  0.00    -0.440 N 
ENDROOT
BRANCH   5   6
ATOM      6  C   LIG    1       -0.050   3.842   0.016  0.00  0.00    +0.220 A 
ATOM      7  C   LIG    1        1.162   3.162   0.002  0.00  0.00    -0.020 A 
ATOM      8  C   LIG    1        1.177   1.782  -0.006  0.00  0.00    +0.050 A 
ATOM      9  C   LIG    1       -0.012   1.075  -0.001  0.00  0.00    -0.020 A 
ATOM     10  C   LIG    1       -1.220   1.749   0.007  0.00  0.00    +0.050 A 
ATOM     11  C   LIG    1       -1.242   3.129   0.021  0.00  0.00    -0.050 A 
ENDBRANCH   5   6
BRANCH   3  12
ATOM     12  C   LIG    1        1.763   8.408   0.025  0.00  0.00    +0.590 C 
ATOM     13  N   LIG    1        3.079   8.120   0.012  0.00  0.00    -0.650 N 
ATOM     14  H   LIG    1        3.374   7.198   0.080  0.00  0.00    +0.430 HD
ATOM     15  O   LIG    1        1.394   9.568   0.033  0.00  0.00    -0.450 OA
BRANCH  13  16
ATOM     16  C   LIG    1        4.014   9.142  -0.098  0.00  0.00    +0.380 A 
ATOM     17  N   LIG    1        3.603  10.393  -0.081  0.00  0.00    -0.470 NA
ATOM     18  C   LIG    1        4.468  11.409  -0.183  0.00  0.00    +0.160 A 
ATOM     19  C   LIG    1        4.024  12.742  -0.166  0.00  0.00    +0.040 A 
ATOM     20  C   LIG    1        4.925  13.756  -0.273  0.00  0.00    +0.040 A 
ATOM     21  C   LIG    1        6.287  13.496  -0.400  0.00  0.00    +0.010 A 
ATOM     22  C   LIG    1        6.755  12.216  -0.420  0.00  0.00    +0.040 A 
ATOM     23  C   LIG    1        5.854  11.146  -0.312  0.00  0.00    -0.130 A 
ATOM     24  C   LIG    1        6.300   9.809  -0.330  0.00  0.00    +0.120 A 
ATOM     25  C   LIG    1        5.373   8.818  -0.217  0.00  0.00    -0.050 A 
ENDBRANCH  13  16
ENDBRANCH   3  12
BRANCH   1  27
ATOM     26  C   LIG    1       -3.544   6.224   1.318  0.00  0.00    +0.090 C 
ATOM     27  C   LIG    1       -2.093   5.818   1.272  0.00  0.00    +0.340 C 
ATOM     28  O   LIG    1       -1.584   5.287   2.230  0.00  0.00    -0.420 OA
ENDBRANCH   1  27
TORSDOF 4
