REMARK  Name = ZINCtV000002vM7d.0
REMARK                            x       y       z     vdW  Elec       q    Type
REMARK                         _______ _______ _______ _____ _____    ______ ____
ROOT
ATOM      1  C   LIG    1        3.485   1.944   2.232  0.00  0.00    +0.190 C 
ENDROOT
BRANCH   1   2
ATOM      2  C   LIG    1        3.392   2.533   3.616  0.00  0.00    -0.110 A 
ATOM      3  C   LIG    1        2.722   1.848   4.614  0.00  0.00    +0.080 A 
ATOM      4  C   LIG    1        2.639   2.383   5.884  0.00  0.00    -0.070 A 
ATOM      5  C   LIG    1        3.218   3.615   6.156  0.00  0.00    +0.120 A 
ATOM      6  C   LIG    1        3.885   4.302   5.152  0.00  0.00    -0.020 A 
ATOM      7  C   LIG    1        3.970   3.760   3.885  0.00  0.00    +0.050 A 
BRANCH   5   8
ATOM      8  O   LIG    1        3.133   4.146   7.404  0.00  0.00    -0.260 OA
BRANCH   8   9
ATOM      9  C   LIG    1        2.575   3.388   8.384  0.00  0.00    +0.080 A 
ATOM     10  C   LIG    1        1.287   3.657   8.823  0.00  0.00    +0.010 A 
ATOM     11  C   LIG    1        0.720   2.880   9.815  0.00  0.00    +0.030 A 
ATOM     12  C   LIG    1        1.440   1.844  10.379  0.00  0.00    +0.010 A 
ATOM     13  C   LIG    1        2.726   1.577   9.947  0.00  0.00    +0.020 A 
ATOM     14  C   LIG    1        3.296   2.347   8.951  0.00  0.00    +0.000 A 
ENDBRANCH   8   9
ENDBRANCH   5   8
ENDBRANCH   1   2
BRANCH   1  15
ATOM     15  N   LIG    1        2.206   1.312   1.881  0.00  0.00    -0.670 NA
ATOM     16  H   LIG    1        2.351   0.500   1.299  0.00  0.00    +0.350 HD
BRANCH  15  17
ATOM     17  C   LIG    1        1.305   2.272   1.231  0.00  0.00    +0.190 C 
ATOM     18  C   LIG    1        0.317   2.884   2.252  0.00  0.00    +0.260 C 
ATOM     19  O   LIG    1       -0.825   2.016   2.148  0.00  0.00    -0.280 OA
ATOM     20  C   LIG    1       -0.866   1.474   0.900  0.00  0.00    +0.190 A 
ATOM     21  C   LIG    1       -1.925   0.874   0.223  0.00  0.00    -0.040 A 
ATOM     22  C   LIG    1       -1.743   0.378  -1.054  0.00  0.00    +0.180 A 
ATOM     23  C   LIG    1       -0.508   0.473  -1.672  0.00  0.00    -0.070 A 
ATOM     24  C   LIG    1        0.549   1.072  -1.005  0.00  0.00    +0.190 A 
ATOM     25  F   LIG    1        1.757   1.169  -1.602  0.00  0.00    -0.130 F 
ATOM     26  F   LIG    1       -2.776  -0.203  -1.703  0.00  0.00    -0.120 F 
ATOM     27  C   LIG    1        0.367   1.570   0.269  0.00  0.00    -0.250 A 
ENDBRANCH  15  17
ENDBRANCH   1  15
BRANCH   1  28
ATOM     28  C   LIG    1        4.598   0.895   2.199  0.00  0.00    +0.030 C 
BRANCH  28  30
ATOM     29  C   LIG    1        5.987  -0.551   0.707  0.00  0.00    +0.030 C 
ATOM     30  C   LIG    1        4.790   0.400   0.764  0.00  0.00    -0.010 C 
ENDBRANCH  28  30
ENDBRANCH   1  28
TORSDOF 7
