REMARK  Name = ZINCvU00000005Ou.0
REMARK                            x       y       z     vdW  Elec       q    Type
REMARK                         _______ _______ _______ _____ _____    ______ ____
ROOT
ATOM      1  C   LIG    1       -0.770   1.847   1.538  0.00  0.00    -0.690 A 
ATOM      2  C   LIG    1       -0.752   3.101   2.123  0.00  0.00    +0.190 A 
ATOM      3  C   LIG    1       -1.566   3.378   3.207  0.00  0.00    +0.020 A 
ATOM      4  C   LIG    1       -2.395   2.399   3.719  0.00  0.00    +0.070 A 
ATOM      5  C   LIG    1       -2.414   1.129   3.136  0.00  0.00    -0.150 A 
ATOM      6 CL   LIG    1       -3.411   2.745   5.084  0.00  0.00    -0.010 Cl
ATOM      7  C   LIG    1       -1.593   0.860   2.039  0.00  0.00    +0.180 A 
ENDROOT
BRANCH   5   8
ATOM      8  C   LIG    1       -3.297   0.077   3.678  0.00  0.00    +0.560 C 
ATOM      9  N   LIG    1       -3.313  -1.147   3.114  0.00  0.00    -0.670 N 
ATOM     10  H   LIG    1       -2.802  -1.315   2.306  0.00  0.00    +0.410 HD
ATOM     11  O   LIG    1       -4.011   0.314   4.633  0.00  0.00    -0.480 OA
BRANCH   9  12
ATOM     12  C   LIG    1       -4.066  -2.176   3.692  0.00  0.00    +0.150 A 
ATOM     13  C   LIG    1       -4.666  -3.136   2.881  0.00  0.00    +0.040 A 
ATOM     14  C   LIG    1       -5.410  -4.154   3.439  0.00  0.00    +0.070 A 
ATOM     15  C   LIG    1       -5.564  -4.225   4.816  0.00  0.00    -0.010 A 
ATOM     16  O   LIG    1       -6.213  -5.075   5.643  0.00  0.00    -0.210 OA
ATOM     17  C   LIG    1       -6.023  -4.658   6.904  0.00  0.00    +0.250 A 
ATOM     18  N   LIG    1       -5.287  -3.588   6.919  0.00  0.00    -0.480 NA
ATOM     19  C   LIG    1       -6.583  -5.336   8.128  0.00  0.00    +0.230 C 
ATOM     20  C   LIG    1       -4.963  -3.261   5.639  0.00  0.00    +0.050 A 
ATOM     21  C   LIG    1       -4.207  -2.237   5.067  0.00  0.00    +0.090 A 
ENDBRANCH   9  12
ENDBRANCH   5   8
BRANCH   1  22
ATOM     22  S   LIG    1        0.266   1.509   0.154  0.00  0.00    +2.690 S 
ATOM     23  O   LIG    1        1.389   2.370   0.274  0.00  0.00    -0.940 OA
ATOM     24  O   LIG    1        0.376   0.094   0.071  0.00  0.00    -0.950 OA
BRANCH  22  25
ATOM     25  N   LIG    1       -0.553   1.994  -1.202  0.00  0.00    -1.060 N 
ATOM     26  H   LIG    1       -0.832   1.339  -1.860  0.00  0.00    +0.430 HD
BRANCH  25  32
ATOM     27  C   LIG    1        0.968   6.516  -2.383  0.00  0.00    +0.090 C 
ATOM     28  C   LIG    1       -0.124   5.562  -1.970  0.00  0.00    -0.080 A 
ATOM     29  C   LIG    1       -1.413   6.026  -1.784  0.00  0.00    +0.020 A 
ATOM     30  C   LIG    1       -2.417   5.154  -1.405  0.00  0.00    +0.020 A 
ATOM     31  C   LIG    1       -2.136   3.815  -1.216  0.00  0.00    +0.010 A 
ATOM     32  C   LIG    1       -0.841   3.346  -1.397  0.00  0.00    +0.120 A 
ATOM     33  C   LIG    1        0.165   4.225  -1.777  0.00  0.00    +0.040 A 
ENDBRANCH  25  32
ENDBRANCH  22  25
ENDBRANCH   1  22
TORSDOF 5
