REMARK  Name = ZINCrH000004rZDx.0
REMARK                            x       y       z     vdW  Elec       q    Type
REMARK                         _______ _______ _______ _____ _____    ______ ____
ROOT
ATOM      1  C   LIG    1        1.583  -0.481   2.008  0.00  0.00    +0.150 A 
ATOM      2  N   LIG    1        1.670  -1.679   2.546  0.00  0.00    -0.260 NA
ATOM      3  N   LIG    1        0.663  -1.798   3.513  0.00  0.00    -0.310 N 
ATOM      4  C   LIG    1       -0.030  -0.630   3.543  0.00  0.00    +0.300 A 
ATOM      5  C   LIG    1        0.518   0.201   2.629  0.00  0.00    -0.280 A 
ENDROOT
BRANCH   1  12
ATOM      6  C   LIG    1        3.525  -2.207   0.736  0.00  0.00    +0.110 C 
ATOM      7  C   LIG    1        3.395  -0.765   0.319  0.00  0.00    -0.050 A 
ATOM      8  C   LIG    1        4.201  -0.259  -0.680  0.00  0.00    +0.020 A 
ATOM      9  C   LIG    1        4.087   1.067  -1.060  0.00  0.00    +0.040 A 
ATOM     10  C   LIG    1        3.161   1.890  -0.446  0.00  0.00    +0.030 A 
ATOM     11  C   LIG    1        2.346   1.393   0.551  0.00  0.00    -0.020 A 
ATOM     12  C   LIG    1        2.457   0.059   0.937  0.00  0.00    -0.040 A 
ENDBRANCH   1  12
BRANCH   3  13
ATOM     13  C   LIG    1        0.413  -2.924   4.308  0.00  0.00    +0.140 A 
ATOM     14  C   LIG    1       -0.619  -2.905   5.237  0.00  0.00    +0.000 A 
ATOM     15  C   LIG    1       -0.866  -4.019   6.015  0.00  0.00    +0.050 A 
ATOM     16  C   LIG    1       -0.079  -5.148   5.879  0.00  0.00    +0.010 A 
ATOM     17  C   LIG    1        0.954  -5.167   4.960  0.00  0.00    +0.050 A 
ATOM     18  C   LIG    1        1.202  -4.059   4.174  0.00  0.00    +0.030 A 
ENDBRANCH   3  13
BRANCH   5  19
ATOM     19  C   LIG    1        0.065   1.605   2.324  0.00  0.00    +0.360 C 
BRANCH  19  20
ATOM     20  N   LIG    1        0.964   2.563   2.982  0.00  0.00    -0.400 N 
ATOM     21  C   LIG    1        0.838   2.453   4.458  0.00  0.00    +0.240 C 
ATOM     22  C   LIG    1        1.357   3.822   4.965  0.00  0.00    +0.080 C 
ATOM     23  C   LIG    1        0.825   4.809   3.901  0.00  0.00    -0.080 C 
ATOM     24  C   LIG    1        0.570   3.951   2.648  0.00  0.00    +0.260 C 
ATOM     25  H   LIG    1        1.918   2.397   2.701  0.00  0.00    +0.420 HD
BRANCH  23  26
ATOM     26  C   LIG    1        1.856   5.869   3.609  0.00  0.00    +0.490 C 
ATOM     27  O   LIG    1        1.629   6.726   2.772  0.00  0.00    -0.680 OA
ATOM     28  O   LIG    1        2.917   5.868   4.209  0.00  0.00    -0.670 OA
ENDBRANCH  23  26
ENDBRANCH  19  20
ENDBRANCH   5  19
TORSDOF 5
