REMARK  Name = ZINCrH000004rZDx.1
REMARK                            x       y       z     vdW  Elec       q    Type
REMARK                         _______ _______ _______ _____ _____    ______ ____
ROOT
ATOM      1  C   LIG    1        1.288  -3.467  -1.073  0.00  0.00    +0.150 A 
ATOM      2  N   LIG    1        0.394  -4.399  -1.329  0.00  0.00    -0.260 NA
ATOM      3  N   LIG    1       -0.599  -4.334  -0.342  0.00  0.00    -0.300 N 
ATOM      4  C   LIG    1       -0.270  -3.336   0.519  0.00  0.00    +0.290 A 
ATOM      5  C   LIG    1        0.889  -2.788   0.095  0.00  0.00    -0.280 A 
ENDROOT
BRANCH   1  12
ATOM      6  C   LIG    1        1.076  -3.144  -3.940  0.00  0.00    +0.090 C 
ATOM      7  C   LIG    1        2.413  -3.027  -3.255  0.00  0.00    -0.050 A 
ATOM      8  C   LIG    1        3.547  -2.758  -3.993  0.00  0.00    +0.010 A 
ATOM      9  C   LIG    1        4.776  -2.655  -3.366  0.00  0.00    +0.040 A 
ATOM     10  C   LIG    1        4.874  -2.816  -1.996  0.00  0.00    +0.010 A 
ATOM     11  C   LIG    1        3.745  -3.079  -1.247  0.00  0.00    +0.030 A 
ATOM     12  C   LIG    1        2.505  -3.183  -1.873  0.00  0.00    -0.050 A 
ENDBRANCH   1  12
BRANCH   3  13
ATOM     13  C   LIG    1       -1.732  -5.154  -0.259  0.00  0.00    +0.140 A 
ATOM     14  C   LIG    1       -2.638  -4.985   0.779  0.00  0.00    +0.000 A 
ATOM     15  C   LIG    1       -3.757  -5.792   0.855  0.00  0.00    +0.050 A 
ATOM     16  C   LIG    1       -3.969  -6.774  -0.095  0.00  0.00    +0.010 A 
ATOM     17  C   LIG    1       -3.065  -6.948  -1.127  0.00  0.00    +0.050 A 
ATOM     18  C   LIG    1       -1.947  -6.141  -1.212  0.00  0.00    +0.030 A 
ENDBRANCH   3  13
BRANCH   5  19
ATOM     19  C   LIG    1        1.623  -1.647   0.752  0.00  0.00    +0.340 C 
BRANCH  19  20
ATOM     20  N   LIG    1        1.430  -0.422  -0.036  0.00  0.00    -0.390 N 
ATOM     21  C   LIG    1        0.012  -0.004   0.010  0.00  0.00    +0.240 C 
ATOM     22  C   LIG    1       -0.005   1.536   0.021  0.00  0.00    +0.080 C 
ATOM     23  C   LIG    1        1.483   1.956   0.011  0.00  0.00    -0.090 C 
ATOM     24  C   LIG    1        2.202   0.698   0.560  0.00  0.00    +0.280 C 
ATOM     25  H   LIG    1        1.717  -0.574  -0.992  0.00  0.00    +0.420 HD
BRANCH  23  26
ATOM     26  C   LIG    1        1.709   3.138   0.918  0.00  0.00    +0.500 C 
ATOM     27  O   LIG    1        2.832   3.593   1.058  0.00  0.00    -0.680 OA
ATOM     28  O   LIG    1        0.770   3.639   1.512  0.00  0.00    -0.670 OA
ENDBRANCH  23  26
ENDBRANCH  19  20
ENDBRANCH   5  19
TORSDOF 5
