REMARK  Name = ZINCqH0000035GDP.0
REMARK                            x       y       z     vdW  Elec       q    Type
REMARK                         _______ _______ _______ _____ _____    ______ ____
ROOT
ATOM      1  C   LIG    1        5.736   1.199  -1.363  0.00  0.00    +0.100 A 
ATOM      2  C   LIG    1        6.609   1.856  -2.215  0.00  0.00    -0.010 A 
ATOM      3  C   LIG    1        6.116   2.688  -3.203  0.00  0.00    -0.110 A 
ATOM      4  C   LIG    1        4.753   2.866  -3.344  0.00  0.00    +0.040 A 
ATOM      5  C   LIG    1        3.876   2.210  -2.501  0.00  0.00    -0.040 A 
ATOM      6  C   LIG    1        4.363   1.379  -1.505  0.00  0.00    +0.120 A 
ENDROOT
BRANCH   1   8
ATOM      7  C   LIG    1        7.639   0.243  -0.304  0.00  0.00    +0.250 C 
ATOM      8  O   LIG    1        6.219   0.381  -0.391  0.00  0.00    -0.300 OA
ENDBRANCH   1   8
BRANCH   3   9
ATOM      9  C   LIG    1        7.068   3.401  -4.129  0.00  0.00    +0.330 C 
BRANCH   9  10
ATOM     10  N   LIG    1        7.326   2.564  -5.303  0.00  0.00    -0.720 N 
ATOM     11  H   LIG    1        6.902   1.695  -5.383  0.00  0.00    +0.400 HD
ATOM     12  C   LIG    1        8.154   3.001  -6.273  0.00  0.00    +0.510 C 
ATOM     13  O   LIG    1        8.684   4.087  -6.174  0.00  0.00    -0.530 OA
BRANCH  12  14
ATOM     14  C   LIG    1        8.419   2.140  -7.481  0.00  0.00    +0.290 C 
BRANCH  14  15
ATOM     15  N   LIG    1        9.344   2.833  -8.381  0.00  0.00    -0.740 N 
ATOM     16  H   LIG    1        9.681   3.712  -8.147  0.00  0.00    +0.410 HD
BRANCH  15  17
ATOM     17  C   LIG    1        9.742   2.228  -9.576  0.00  0.00    +0.220 A 
ATOM     18  C   LIG    1        9.265   0.967  -9.909  0.00  0.00    -0.080 A 
ATOM     19  C   LIG    1        9.656   0.373 -11.094  0.00  0.00    +0.050 A 
ATOM     20  C   LIG    1       10.529   1.029 -11.942  0.00  0.00    -0.060 A 
ATOM     21  C   LIG    1       11.009   2.283 -11.611  0.00  0.00    +0.050 A 
ATOM     22  C   LIG    1       10.618   2.884 -10.430  0.00  0.00    -0.070 A 
ENDBRANCH  15  17
ENDBRANCH  14  15
ENDBRANCH  12  14
ENDBRANCH   9  10
ENDBRANCH   3   9
BRANCH   6  23
ATOM     23  O   LIG    1        3.502   0.737  -0.671  0.00  0.00    -0.290 OA
BRANCH  23  24
ATOM     24  C   LIG    1        2.107   0.868  -0.953  0.00  0.00    +0.160 C 
ATOM     25  C   LIG    1        1.522   2.108  -0.233  0.00  0.00    +0.000 C 
ATOM     26  C   LIG    1        0.016   1.764  -0.129  0.00  0.00    +0.020 C 
ATOM     27  C   LIG    1       -0.007   0.250   0.166  0.00  0.00    +0.020 C 
ATOM     28  C   LIG    1        1.323  -0.320  -0.357  0.00  0.00    +0.030 C 
ENDBRANCH  23  24
ENDBRANCH   6  23
TORSDOF 8
