REMARK  Name = ZINCqH0000008tIT.0
REMARK                            x       y       z     vdW  Elec       q    Type
REMARK                         _______ _______ _______ _____ _____    ______ ____
ROOT
ATOM      1  C   LIG    1       -1.982   1.146  -1.126  0.00  0.00    +0.040 C 
ATOM      2  C   LIG    1       -0.513   1.576  -1.091  0.00  0.00    +0.050 C 
ATOM      3  C   LIG    1        0.144   1.018   0.174  0.00  0.00    +0.050 C 
ATOM      4  C   LIG    1       -0.619   1.518   1.403  0.00  0.00    +0.200 C 
ATOM      5  N   LIG    1       -2.019   1.080   1.322  0.00  0.00    -0.490 N 
ATOM      6  C   LIG    1       -2.684   1.642   0.140  0.00  0.00    +0.230 C 
ENDROOT
BRANCH   5   7
ATOM      7  C   LIG    1       -2.710   1.405   2.484  0.00  0.00    +0.350 A 
ATOM      8  N   LIG    1       -2.827   2.673   2.845  0.00  0.00    -0.510 NA
ATOM      9  C   LIG    1       -3.475   3.023   3.940  0.00  0.00    +0.310 A 
ATOM     10  C   LIG    1       -4.057   2.072   4.753  0.00  0.00    -0.020 A 
ATOM     11  C   LIG    1       -3.957   0.730   4.410  0.00  0.00    +0.130 A 
ATOM     12  C   LIG    1       -3.277   0.394   3.253  0.00  0.00    -0.210 A 
BRANCH  12  13
ATOM     13  C   LIG    1       -3.147  -1.048   2.836  0.00  0.00    +0.530 C 
ATOM     14  F   LIG    1       -1.796  -1.412   2.827  0.00  0.00    -0.170 F 
ATOM     15  F   LIG    1       -3.683  -1.213   1.554  0.00  0.00    -0.170 F 
ATOM     16  F   LIG    1       -3.843  -1.860   3.739  0.00  0.00    -0.180 F 
ENDBRANCH  12  13
ENDBRANCH   5   7
BRANCH   1  17
ATOM     17  C   LIG    1       -2.651   1.739  -2.339  0.00  0.00    +0.470 C 
ATOM     18  O   LIG    1       -3.596   2.481  -2.206  0.00  0.00    -0.500 OA
BRANCH  17  19
ATOM     19  O   LIG    1       -2.198   1.444  -3.568  0.00  0.00    -0.340 OA
BRANCH  19  21
ATOM     20  C   LIG    1       -4.030   1.135  -5.143  0.00  0.00    +0.040 C 
ATOM     21  C   LIG    1       -2.891   2.051  -4.690  0.00  0.00    +0.200 C 
BRANCH  21  22
ATOM     22  C   LIG    1       -1.910   2.255  -5.846  0.00  0.00    +0.040 C 
ATOM     23  C   LIG    1       -1.337   0.902  -6.272  0.00  0.00    +0.090 C 
ATOM     24  C   LIG    1       -0.771   3.171  -5.393  0.00  0.00    +0.070 C 
BRANCH  22  25
ATOM     25  C   LIG    1       -2.613   2.871  -6.983  0.00  0.00    +0.210 C 
ATOM     26  N   LIG    1       -3.155   3.346  -7.861  0.00  0.00    -0.410 NA
ENDBRANCH  22  25
ENDBRANCH  21  22
ENDBRANCH  19  21
ENDBRANCH  17  19
ENDBRANCH   1  17
TORSDOF 7
