REMARK  Name = ZINCrD0000074pbI.0
REMARK                            x       y       z     vdW  Elec       q    Type
REMARK                         _______ _______ _______ _____ _____    ______ ____
ROOT
ATOM      1  C   LIG    1        1.112   4.051   1.433  0.00  0.00    +0.420 C 
ATOM      2  O   LIG    1        1.137   3.258   2.352  0.00  0.00    -0.460 OA
ENDROOT
BRANCH   1   6
ATOM      3  C   LIG    1        1.004   9.110   0.836  0.00  0.00    +0.120 C 
ATOM      4  C   LIG    1        1.038   7.723   1.426  0.00  0.00    +0.010 A 
ATOM      5  C   LIG    1        1.060   6.578   0.723  0.00  0.00    +0.000 A 
ATOM      6  C   LIG    1        1.085   5.489   1.708  0.00  0.00    -0.280 A 
ATOM      7  C   LIG    1        1.084   6.100   2.948  0.00  0.00    +0.140 A 
ATOM      8  C   LIG    1        1.110   5.396   4.281  0.00  0.00    +0.150 C 
ATOM      9  N   LIG    1        1.056   7.431   2.759  0.00  0.00    -0.430 N 
BRANCH   9  10
ATOM     10  C   LIG    1        1.045   8.428   3.833  0.00  0.00    +0.310 C 
BRANCH  10  11
ATOM     11  C   LIG    1        2.484   8.803   4.194  0.00  0.00    +0.150 C 
ATOM     12  C   LIG    1        2.494   9.923   5.266  0.00  0.00    +0.020 C 
ATOM     13  C   LIG    1        3.882   9.686   5.923  0.00  0.00    +0.020 C 
ATOM     14  C   LIG    1        4.029   8.152   5.840  0.00  0.00    +0.190 C 
ATOM     15  O   LIG    1        3.151   7.689   4.807  0.00  0.00    -0.370 OA
ENDBRANCH  10  11
ENDBRANCH   9  10
ENDBRANCH   1   6
BRANCH   1  16
ATOM     16  C   LIG    1        1.109   3.555   0.010  0.00  0.00    +0.320 C 
BRANCH  16  17
ATOM     17  N   LIG    1        1.140   2.091   0.002  0.00  0.00    -0.480 N 
ATOM     18  C   LIG    1        2.333   1.444  -0.012  0.00  0.00    +0.380 A 
ATOM     19  C   LIG    1        2.387   0.092  -0.020  0.00  0.00    -0.290 A 
ATOM     20  C   LIG    1        1.200  -0.655  -0.013  0.00  0.00    +0.160 A 
ATOM     21  C   LIG    1        0.002  -0.004   0.002  0.00  0.00    -0.070 A 
ATOM     22  C   LIG    1       -0.017   1.401   0.010  0.00  0.00    +0.520 A 
ATOM     23  O   LIG    1       -1.082   1.997   0.018  0.00  0.00    -0.530 OA
BRANCH  19  24
ATOM     24  C   LIG    1        3.720  -0.610  -0.037  0.00  0.00    +0.530 C 
ATOM     25  F   LIG    1        4.684   0.234  -0.599  0.00  0.00    -0.180 F 
ATOM     26  F   LIG    1        3.622  -1.779  -0.799  0.00  0.00    -0.170 F 
ATOM     27  F   LIG    1        4.092  -0.937   1.271  0.00  0.00    -0.170 F 
ENDBRANCH  19  24
ENDBRANCH  16  17
ENDBRANCH   1  16
TORSDOF 6
