REMARK  Name = ZINCqH0000032szs.0
REMARK                            x       y       z     vdW  Elec       q    Type
REMARK                         _______ _______ _______ _____ _____    ______ ____
ROOT
ATOM      1  N   LIG    1       -1.247  -0.464   0.156  0.00  0.00    -0.640 N 
ATOM      2  H   LIG    1       -2.045   0.086   0.169  0.00  0.00    +0.410 HD
ATOM      3  C   LIG    1       -0.035   0.109   0.021  0.00  0.00    +0.720 C 
ATOM      4  N   LIG    1        0.079   1.452   0.016  0.00  0.00    -0.620 N 
ATOM      5  C   LIG    1       -1.118   2.305   0.038  0.00  0.00    +0.270 C 
ATOM      6  C   LIG    1       -0.993   3.294   1.206  0.00  0.00    +0.010 C 
ATOM      7  C   LIG    1        0.324   4.063   1.077  0.00  0.00    +0.170 C 
ATOM      8  C   LIG    1        1.498   3.084   1.147  0.00  0.00    +0.040 C 
ATOM      9  C   LIG    1        1.401   2.092  -0.017  0.00  0.00    +0.320 C 
ATOM     10  O   LIG    1        0.957  -0.585  -0.096  0.00  0.00    -0.560 OA
ENDROOT
BRANCH   1  13
ATOM     11  C   LIG    1       -0.907  -3.984   0.420  0.00  0.00    -0.010 A 
ATOM     12  C   LIG    1       -0.289  -2.790   0.272  0.00  0.00    -0.030 A 
ATOM     13  C   LIG    1       -1.353  -1.850   0.278  0.00  0.00    +0.260 A 
ATOM     14  N   LIG    1       -2.453  -2.544   0.414  0.00  0.00    -0.390 NA
ATOM     15  O   LIG    1       -2.222  -3.728   0.494  0.00  0.00    +0.100 OA
BRANCH  11  17
ATOM     16  C   LIG    1       -0.583  -6.005   1.819  0.00  0.00    +0.040 C 
ATOM     17  C   LIG    1       -0.249  -5.338   0.484  0.00  0.00    +0.090 C 
ATOM     18  C   LIG    1       -0.762  -6.209  -0.665  0.00  0.00    +0.040 C 
ENDBRANCH  11  17
ENDBRANCH   1  13
BRANCH   7  19
ATOM     19  O   LIG    1        0.429   5.010   2.142  0.00  0.00    -0.300 OA
BRANCH  19  20
ATOM     20  C   LIG    1       -0.194   6.205   1.969  0.00  0.00    +0.130 A 
ATOM     21  C   LIG    1       -0.812   6.497   0.761  0.00  0.00    -0.040 A 
ATOM     22  C   LIG    1       -1.452   7.709   0.581  0.00  0.00    +0.060 A 
ATOM     23  C   LIG    1       -1.472   8.642   1.598  0.00  0.00    +0.030 A 
ATOM     24  C   LIG    1       -0.847   8.360   2.815  0.00  0.00    +0.020 A 
ATOM     25  C   LIG    1       -0.206   7.133   2.997  0.00  0.00    +0.030 A 
BRANCH  24  26
ATOM     26  C   LIG    1       -0.865   9.325   3.873  0.00  0.00    +0.250 C 
ATOM     27  N   LIG    1       -0.878  10.091   4.711  0.00  0.00    -0.400 NA
ENDBRANCH  24  26
ENDBRANCH  19  20
ENDBRANCH   7  19
TORSDOF 5
