REMARK  Name = ZINCkj00000dDif2.1
REMARK                            x       y       z     vdW  Elec       q    Type
REMARK                         _______ _______ _______ _____ _____    ______ ____
ROOT
ATOM      1  C   LIG    1        5.606  -0.184   3.594  0.00  0.00    +0.340 C 
ATOM      2  N   LIG    1        6.088  -0.760   2.332  0.00  0.00    -0.370 N 
ATOM      3  H   LIG    1        5.758  -1.709   2.248  0.00  0.00    +0.430 HD
ENDROOT
BRANCH   2   4
ATOM      4  C   LIG    1        7.557  -0.749   2.318  0.00  0.00    +0.170 C 
ATOM      5  C   LIG    1        8.100  -1.504   1.087  0.00  0.00    +0.110 C 
ATOM      6  C   LIG    1        9.363  -2.188   1.565  0.00  0.00    -0.110 A 
ATOM      7  C   LIG    1       10.417  -2.729   0.849  0.00  0.00    +0.040 A 
ATOM      8  C   LIG    1       11.481  -3.311   1.511  0.00  0.00    +0.040 A 
ATOM      9  C   LIG    1       11.494  -3.354   2.892  0.00  0.00    +0.040 A 
ATOM     10  C   LIG    1       10.443  -2.815   3.609  0.00  0.00    +0.040 A 
ATOM     11  C   LIG    1        9.376  -2.230   2.947  0.00  0.00    -0.110 A 
ATOM     12  C   LIG    1        8.123  -1.578   3.491  0.00  0.00    +0.120 C 
ENDBRANCH   2   4
BRANCH   2  13
ATOM     13  C   LIG    1        5.583   0.036   1.206  0.00  0.00    +0.230 C 
BRANCH  13  14
ATOM     14  C   LIG    1        4.058  -0.076   1.146  0.00  0.00    +0.200 C 
BRANCH  14  15
ATOM     15  O   LIG    1        3.688  -1.444   0.966  0.00  0.00    -0.530 OA
ATOM     16  H   LIG    1        4.036  -1.843   0.156  0.00  0.00    +0.390 HD
ENDBRANCH  14  15
BRANCH  14  17
ATOM     17  C   LIG    1        3.531   0.753  -0.027  0.00  0.00    +0.320 C 
BRANCH  17  18
ATOM     18  N   LIG    1        2.066   0.743  -0.014  0.00  0.00    -0.390 N 
ATOM     19  C   LIG    1        1.265   1.828  -0.000  0.00  0.00    +0.230 A 
ATOM     20  C   LIG    1       -0.017   1.395   0.010  0.00  0.00    -0.110 A 
ATOM     21  C   LIG    1        0.002  -0.004   0.002  0.00  0.00    +0.240 A 
ATOM     22  N   LIG    1        1.250  -0.396  -0.012  0.00  0.00    -0.280 NA
ENDBRANCH  17  18
ENDBRANCH  14  17
ENDBRANCH  13  14
ENDBRANCH   2  13
TORSDOF 6
