REMARK  Name = ZINCkj00000dDif2.0
REMARK                            x       y       z     vdW  Elec       q    Type
REMARK                         _______ _______ _______ _____ _____    ______ ____
ROOT
ATOM      1  C   LIG    1       -2.352  -3.410  -0.366  0.00  0.00    +0.330 C 
ATOM      2  N   LIG    1       -0.885  -3.439  -0.434  0.00  0.00    -0.370 N 
ATOM      3  H   LIG    1       -0.594  -3.490  -1.399  0.00  0.00    +0.420 HD
ENDROOT
BRANCH   2   4
ATOM      4  C   LIG    1       -0.342  -2.218   0.176  0.00  0.00    +0.170 C 
ATOM      5  C   LIG    1       -0.849  -0.962  -0.564  0.00  0.00    +0.120 C 
ATOM      6  C   LIG    1        0.307   0.014  -0.528  0.00  0.00    -0.110 A 
ATOM      7  C   LIG    1        0.335   1.381  -0.744  0.00  0.00    +0.040 A 
ATOM      8  C   LIG    1        1.526   2.075  -0.656  0.00  0.00    +0.040 A 
ATOM      9  C   LIG    1        2.695   1.403  -0.351  0.00  0.00    +0.040 A 
ATOM     10  C   LIG    1        2.670   0.038  -0.136  0.00  0.00    +0.040 A 
ATOM     11  C   LIG    1        1.476  -0.659  -0.223  0.00  0.00    -0.110 A 
ATOM     12  C   LIG    1        1.185  -2.132  -0.034  0.00  0.00    +0.110 C 
ENDBRANCH   2   4
BRANCH   2  13
ATOM     13  C   LIG    1       -0.384  -4.614   0.291  0.00  0.00    +0.230 C 
BRANCH  13  14
ATOM     14  C   LIG    1       -0.802  -5.886  -0.448  0.00  0.00    +0.200 C 
BRANCH  14  15
ATOM     15  O   LIG    1       -2.221  -6.039  -0.366  0.00  0.00    -0.530 OA
ATOM     16  H   LIG    1       -2.558  -6.110   0.537  0.00  0.00    +0.390 HD
ENDBRANCH  14  15
BRANCH  14  17
ATOM     17  C   LIG    1       -0.121  -7.096   0.195  0.00  0.00    +0.320 C 
BRANCH  17  18
ATOM     18  N   LIG    1       -0.427  -8.299  -0.584  0.00  0.00    -0.390 N 
ATOM     19  C   LIG    1        0.475  -9.150  -1.117  0.00  0.00    +0.230 A 
ATOM     20  C   LIG    1       -0.208 -10.129  -1.754  0.00  0.00    -0.110 A 
ATOM     21  C   LIG    1       -1.574  -9.863  -1.613  0.00  0.00    +0.240 A 
ATOM     22  N   LIG    1       -1.706  -8.766  -0.912  0.00  0.00    -0.280 NA
ENDBRANCH  17  18
ENDBRANCH  14  17
ENDBRANCH  13  14
ENDBRANCH   2  13
TORSDOF 6
