REMARK  Name = ZINCpk00000KfLL1.0
REMARK                            x       y       z     vdW  Elec       q    Type
REMARK                         _______ _______ _______ _____ _____    ______ ____
ROOT
ATOM      1  N   LIG    1        1.140   1.885   0.150  0.00  0.00    -0.730 N 
ATOM      2  H   LIG    1        1.140   2.849   0.040  0.00  0.00    +0.400 HD
ATOM      3  C   LIG    1       -0.025   1.208   0.163  0.00  0.00    +0.700 C 
ATOM      4  N   LIG    1       -1.191   1.870   0.018  0.00  0.00    -0.680 N 
ATOM      5  H   LIG    1       -1.197   2.839  -0.014  0.00  0.00    +0.410 HD
ATOM      6  O   LIG    1       -0.025  -0.000   0.300  0.00  0.00    -0.570 OA
ENDROOT
BRANCH   4   7
ATOM      7  C   LIG    1       -2.392   1.157  -0.086  0.00  0.00    +0.120 A 
ATOM      8  C   LIG    1       -2.421  -0.091  -0.704  0.00  0.00    +0.100 A 
ATOM      9  C   LIG    1       -3.630  -0.760  -0.779  0.00  0.00    +0.020 A 
ATOM     10  C   LIG    1       -4.768  -0.165  -0.250  0.00  0.00    +0.340 A 
ATOM     11  N   LIG    1       -4.705   1.024   0.326  0.00  0.00    -0.480 NA
ATOM     12  C   LIG    1       -3.570   1.689   0.421  0.00  0.00    +0.280 A 
BRANCH  10  13
ATOM     13  N   LIG    1       -5.996  -0.832  -0.326  0.00  0.00    -0.330 N 
ATOM     14  C   LIG    1       -7.183  -0.396   0.141  0.00  0.00    +0.520 A 
ATOM     15  N   LIG    1       -8.083  -1.306  -0.130  0.00  0.00    -0.540 NA
ATOM     16  C   LIG    1       -7.513  -2.335  -0.756  0.00  0.00    +0.450 A 
ATOM     17  N   LIG    1       -6.236  -2.092  -0.899  0.00  0.00    -0.310 NA
ENDBRANCH  10  13
ENDBRANCH   4   7
BRANCH   1  18
ATOM     18  C   LIG    1        2.407   1.165   0.301  0.00  0.00    +0.350 C 
BRANCH  18  22
ATOM     19  C   LIG    1        5.620   3.905   0.083  0.00  0.00    +0.410 A 
ATOM     20  C   LIG    1        5.069   3.630   1.330  0.00  0.00    -0.100 A 
ATOM     21  C   LIG    1        4.018   2.736   1.419  0.00  0.00    +0.120 A 
ATOM     22  C   LIG    1        3.551   2.145   0.252  0.00  0.00    -0.230 A 
ATOM     23  C   LIG    1        4.148   2.460  -0.952  0.00  0.00    +0.340 A 
ATOM     24  N   LIG    1        5.146   3.321  -1.007  0.00  0.00    -0.540 NA
BRANCH  19  26
ATOM     25  C   LIG    1        7.278   5.369   1.190  0.00  0.00    +0.290 C 
ATOM     26  N   LIG    1        6.677   4.802  -0.020  0.00  0.00    -0.610 N 
ATOM     27  C   LIG    1        7.191   5.181  -1.339  0.00  0.00    +0.300 C 
ENDBRANCH  19  26
ENDBRANCH  18  22
ENDBRANCH   1  18
TORSDOF 5
