REMARK  Name = ZINCqH0000008xso.0
REMARK                            x       y       z     vdW  Elec       q    Type
REMARK                         _______ _______ _______ _____ _____    ______ ____
ROOT
ATOM      1  N   LIG    1        0.049   5.356  -0.518  0.00  0.00    -0.540 N 
ATOM      2  C   LIG    1        1.079   6.225  -0.484  0.00  0.00    +0.610 C 
ATOM      3  O   LIG    1        0.904   7.359  -0.081  0.00  0.00    -0.500 OA
ENDROOT
BRANCH   2   4
ATOM      4  C   LIG    1        2.414   5.801  -0.934  0.00  0.00    -0.020 A 
ATOM      5  C   LIG    1        3.456   5.362  -0.141  0.00  0.00    -0.180 A 
ATOM      6  C   LIG    1        3.879   5.065   1.276  0.00  0.00    +0.110 C 
ATOM      7  C   LIG    1        5.133   4.173   1.147  0.00  0.00    +0.060 C 
ATOM      8  C   LIG    1        5.696   4.581  -0.231  0.00  0.00    +0.140 C 
ATOM      9  C   LIG    1        4.503   5.077  -1.018  0.00  0.00    +0.010 A 
ATOM     10  N   LIG    1        4.088   5.345  -2.232  0.00  0.00    -0.260 NA
ATOM     11  N   LIG    1        2.875   5.769  -2.220  0.00  0.00    -0.270 N 
ATOM     12  C   LIG    1        2.105   6.157  -3.403  0.00  0.00    +0.370 C 
ENDBRANCH   2   4
BRANCH   1  13
ATOM     13  C   LIG    1        0.270   4.028  -0.876  0.00  0.00    +0.340 A 
ATOM     14  C   LIG    1        1.044   3.213  -0.058  0.00  0.00    -0.010 A 
ATOM     15  C   LIG    1        1.252   1.895  -0.424  0.00  0.00    +0.080 A 
ATOM     16  C   LIG    1        0.684   1.438  -1.605  0.00  0.00    -0.030 A 
ATOM     17  C   LIG    1       -0.074   2.303  -2.369  0.00  0.00    +0.270 A 
ATOM     18  N   LIG    1       -0.259   3.553  -1.993  0.00  0.00    -0.480 NA
ENDBRANCH   1  13
BRANCH   1  20
ATOM     19  C   LIG    1       -2.257   5.469  -1.325  0.00  0.00    +0.060 C 
ATOM     20  C   LIG    1       -1.302   5.808  -0.178  0.00  0.00    +0.300 C 
BRANCH  20  21
ATOM     21  C   LIG    1       -1.762   5.116   1.079  0.00  0.00    -0.100 A 
ATOM     22  C   LIG    1       -1.687   3.739   1.177  0.00  0.00    +0.010 A 
ATOM     23  C   LIG    1       -2.105   3.104   2.332  0.00  0.00    +0.000 A 
ATOM     24  C   LIG    1       -2.606   3.846   3.385  0.00  0.00    +0.010 A 
ATOM     25  C   LIG    1       -2.686   5.222   3.285  0.00  0.00    +0.010 A 
ATOM     26  C   LIG    1       -2.264   5.857   2.132  0.00  0.00    +0.030 A 
ENDBRANCH  20  21
ENDBRANCH   1  20
TORSDOF 4
