REMARK  Name = ZINCkj00000kIYSg.0
REMARK                            x       y       z     vdW  Elec       q    Type
REMARK                         _______ _______ _______ _____ _____    ______ ____
ROOT
ATOM      1  C   LIG    1       -1.075   3.204   1.343  0.00  0.00    +0.060 C 
ATOM      2  C   LIG    1       -2.297   4.073   1.220  0.00  0.00    +0.040 C 
ATOM      3  C   LIG    1       -3.298   3.670   2.323  0.00  0.00    +0.030 C 
ATOM      4  C   LIG    1       -4.055   2.477   1.976  0.00  0.00    +0.020 C 
ATOM      5  C   LIG    1       -3.151   1.241   1.790  0.00  0.00    +0.050 C 
ATOM      6  C   LIG    1       -2.533   1.306   0.420  0.00  0.00    +0.050 C 
ATOM      7  C   LIG    1       -1.140   1.963   0.432  0.00  0.00    +0.210 C 
ENDROOT
BRANCH   7   8
ATOM      8  N   LIG    1       -0.793   2.363  -0.939  0.00  0.00    -0.510 N 
ATOM      9  H   LIG    1        0.158   2.700  -0.960  0.00  0.00    +0.430 HD
ATOM     10  H   LIG    1       -0.883   1.568  -1.553  0.00  0.00    +0.440 HD
BRANCH   8  11
ATOM     11  C   LIG    1       -1.701   3.429  -1.382  0.00  0.00    +0.410 C 
BRANCH  11  12
ATOM     12  C   LIG    1       -1.441   3.738  -2.834  0.00  0.00    +0.080 A 
ATOM     13  N   LIG    1       -2.019   3.175  -3.860  0.00  0.00    -0.230 NA
ATOM     14  N   LIG    1       -1.557   3.682  -4.948  0.00  0.00    -0.270 NA
ATOM     15  C   LIG    1       -0.664   4.591  -4.666  0.00  0.00    +0.220 A 
ATOM     16  C   LIG    1        0.113   5.418  -5.658  0.00  0.00    +0.220 C 
ATOM     17  N   LIG    1       -0.569   4.656  -3.316  0.00  0.00    -0.460 N 
ATOM     18  C   LIG    1        0.303   5.538  -2.536  0.00  0.00    +0.350 C 
ENDBRANCH  11  12
ENDBRANCH   8  11
ENDBRANCH   7   8
BRANCH   1  19
ATOM     19  C   LIG    1        0.138   4.018   0.972  0.00  0.00    +0.450 C 
ATOM     20  O   LIG    1        1.130   3.468   0.555  0.00  0.00    -0.510 OA
BRANCH  19  22
ATOM     21  C   LIG    1        1.321   6.073   0.730  0.00  0.00    +0.290 C 
ATOM     22  O   LIG    1        0.117   5.353   1.106  0.00  0.00    -0.340 OA
ENDBRANCH  19  22
ENDBRANCH   1  19
TORSDOF 5
