REMARK  Name = ZINCqH00000075E4.0
REMARK                            x       y       z     vdW  Elec       q    Type
REMARK                         _______ _______ _______ _____ _____    ______ ____
ROOT
ATOM      1  N   LIG    1       -3.905  -0.322   5.243  0.00  0.00    -0.230 N 
ATOM      2  C   LIG    1       -4.654   0.739   5.640  0.00  0.00    +0.160 A 
ATOM      3  C   LIG    1       -4.636   1.640   4.630  0.00  0.00    +0.000 A 
ATOM      4  C   LIG    1       -3.840   1.057   3.615  0.00  0.00    -0.020 A 
ATOM      5  N   LIG    1       -3.446  -0.120   4.060  0.00  0.00    -0.230 NA
ENDROOT
BRANCH   1  12
ATOM      6  C   LIG    1       -2.892  -2.507   5.497  0.00  0.00    +0.140 A 
ATOM      7  C   LIG    1       -2.661  -3.640   6.261  0.00  0.00    -0.050 A 
ATOM      8  C   LIG    1       -3.215  -3.747   7.523  0.00  0.00    +0.050 A 
ATOM      9  C   LIG    1       -3.995  -2.724   8.029  0.00  0.00    -0.100 A 
ATOM     10  C   LIG    1       -4.226  -1.588   7.276  0.00  0.00    +0.050 A 
ATOM     11  C   LIG    1       -4.596  -2.847   9.405  0.00  0.00    +0.100 C 
ATOM     12  C   LIG    1       -3.673  -1.473   6.009  0.00  0.00    +0.100 A 
BRANCH   6  14
ATOM     13  C   LIG    1       -1.562  -3.501   3.795  0.00  0.00    +0.240 C 
ATOM     14  O   LIG    1       -2.352  -2.402   4.254  0.00  0.00    -0.280 OA
ENDBRANCH   6  14
ENDBRANCH   1  12
BRANCH   4  15
ATOM     15  C   LIG    1       -3.517   1.652   2.303  0.00  0.00    +0.610 C 
ATOM     16  N   LIG    1       -2.843   0.933   1.384  0.00  0.00    -0.600 N 
ATOM     17  C   LIG    1       -2.355  -0.408   1.718  0.00  0.00    +0.300 C 
ATOM     18  O   LIG    1       -3.859   2.792   2.052  0.00  0.00    -0.530 OA
BRANCH  16  19
ATOM     19  C   LIG    1       -2.599   1.491   0.052  0.00  0.00    +0.340 C 
BRANCH  19  20
ATOM     20  C   LIG    1       -1.293   2.242   0.053  0.00  0.00    -0.110 A 
ATOM     21  C   LIG    1       -1.288   3.619   0.168  0.00  0.00    +0.040 A 
ATOM     22  C   LIG    1       -0.089   4.309   0.163  0.00  0.00    -0.010 A 
ATOM     23  C   LIG    1        1.104   3.620   0.050  0.00  0.00    +0.010 A 
ATOM     24  C   LIG    1        1.099   2.242  -0.059  0.00  0.00    -0.010 A 
ATOM     25  C   LIG    1       -0.099   1.553  -0.054  0.00  0.00    -0.070 A 
ATOM     26  C   LIG    1       -0.105   0.050  -0.173  0.00  0.00    +0.090 C 
ENDBRANCH  19  20
ENDBRANCH  16  19
ENDBRANCH   4  15
TORSDOF 5
