REMARK  Name = ZINCrg000000tNCL.0
REMARK                            x       y       z     vdW  Elec       q    Type
REMARK                         _______ _______ _______ _____ _____    ______ ____
ROOT
ATOM      1  C   LIG    1        0.148   1.360  -0.152  0.00  0.00    -0.070 A 
ATOM      2  C   LIG    1       -0.712   2.025   0.724  0.00  0.00    +0.030 A 
ATOM      3  C   LIG    1       -0.695   3.403   0.789  0.00  0.00    +0.120 A 
ATOM      4  C   LIG    1        0.164   4.126  -0.019  0.00  0.00    -0.660 A 
ATOM      5  C   LIG    1        1.015   3.473  -0.894  0.00  0.00    +0.130 A 
ATOM      6  C   LIG    1        1.012   2.095  -0.965  0.00  0.00    +0.060 A 
ENDROOT
BRANCH   1   8
ATOM      7  O   LIG    1        1.174  -0.721  -0.430  0.00  0.00    -0.520 OA
ATOM      8  C   LIG    1        0.140  -0.117  -0.222  0.00  0.00    +0.560 C 
ATOM      9  N   LIG    1       -1.014  -0.793  -0.055  0.00  0.00    -0.610 N 
ATOM     10  C   LIG    1       -2.294  -0.081   0.077  0.00  0.00    +0.290 C 
ATOM     11  C   LIG    1       -3.288  -0.687  -0.926  0.00  0.00    +0.170 C 
ATOM     12  N   LIG    1       -3.362  -2.139  -0.719  0.00  0.00    -0.530 NA
ATOM     13  C   LIG    1       -2.069  -2.782  -0.989  0.00  0.00    +0.170 C 
ATOM     14  C   LIG    1       -1.026  -2.263   0.005  0.00  0.00    +0.300 C 
BRANCH  12  15
ATOM     15  C   LIG    1       -4.428  -2.734  -1.536  0.00  0.00    +0.180 C 
BRANCH  15  16
ATOM     16  C   LIG    1       -4.819  -4.093  -0.952  0.00  0.00    +0.170 C 
BRANCH  16  17
ATOM     17  O   LIG    1       -5.371  -3.910   0.354  0.00  0.00    -0.560 OA
ATOM     18  H   LIG    1       -5.642  -4.731   0.785  0.00  0.00    +0.380 HD
ENDBRANCH  16  17
ENDBRANCH  15  16
ENDBRANCH  12  15
ENDBRANCH   1   8
BRANCH   4  19
ATOM     19  S   LIG    1        0.174   5.886   0.065  0.00  0.00    +2.680 S 
ATOM     20  O   LIG    1        1.449   6.303  -0.405  0.00  0.00    -0.950 OA
ATOM     21  O   LIG    1       -0.332   6.229   1.348  0.00  0.00    -0.950 OA
BRANCH  19  22
ATOM     22  N   LIG    1       -0.933   6.436  -1.037  0.00  0.00    -0.990 NA
ATOM     23  C   LIG    1       -0.492   6.709  -2.386  0.00  0.00    +0.280 C 
ATOM     24  C   LIG    1       -0.006   8.170  -2.495  0.00  0.00    +0.010 C 
ATOM     25  C   LIG    1       -1.149   9.093  -2.421  0.00  0.00    +0.000 C 
ATOM     26  C   LIG    1       -1.912   9.044  -1.101  0.00  0.00    +0.010 C 
ATOM     27  C   LIG    1       -2.933   7.935  -1.155  0.00  0.00    +0.020 C 
ATOM     28  C   LIG    1       -2.329   6.633  -0.599  0.00  0.00    +0.280 C 
ENDBRANCH  19  22
ENDBRANCH   4  19
TORSDOF 6
