REMARK  Name = ZINC9u0000000C5l.0
REMARK                            x       y       z     vdW  Elec       q    Type
REMARK                         _______ _______ _______ _____ _____    ______ ____
ROOT
ATOM      1  C   LIG    1       -0.016   1.341   0.009  0.00  0.00    +0.020 A 
ATOM      2  C   LIG    1        0.002  -0.004   0.002  0.00  0.00    -0.060 A 
ATOM      3  C   LIG    1        1.361  -0.395  -0.013  0.00  0.00    -0.060 A 
ATOM      4  C   LIG    1        2.091   0.734  -0.014  0.00  0.00    +0.160 A 
ATOM      5  O   LIG    1        1.252   1.783  -0.000  0.00  0.00    -0.180 OA
ENDROOT
BRANCH   1   9
ATOM      6  C   LIG    1       -2.877   3.423  -1.628  0.00  0.00    +0.070 C 
ATOM      7  C   LIG    1       -1.446   3.173  -1.149  0.00  0.00    -0.030 C 
ATOM      8  C   LIG    1       -1.058   3.709   0.231  0.00  0.00    +0.030 C 
ATOM      9  C   LIG    1       -1.250   2.205   0.020  0.00  0.00    +0.050 C 
ENDBRANCH   1   9
TORSDOF 1
