REMARK  Name = ZINCpk00000xIc3a.0
REMARK                            x       y       z     vdW  Elec       q    Type
REMARK                         _______ _______ _______ _____ _____    ______ ____
ROOT
ATOM      1  C   LIG    1       -6.402  -6.241  -0.409  0.00  0.00    +0.340 A 
ATOM      2  N   LIG    1       -7.688  -6.558  -0.302  0.00  0.00    -0.550 NA
ATOM      3  C   LIG    1       -8.561  -5.675   0.140  0.00  0.00    +0.510 A 
ATOM      4  N   LIG    1       -8.202  -4.458   0.489  0.00  0.00    -0.520 NA
ATOM      5  C   LIG    1       -6.934  -4.067   0.408  0.00  0.00    +0.190 A 
ATOM      6  C   LIG    1       -6.571  -2.662   0.810  0.00  0.00    +0.130 C 
ATOM      7  C   LIG    1       -5.062  -2.560   1.037  0.00  0.00    +0.180 C 
ATOM      8  N   LIG    1       -4.372  -3.131  -0.132  0.00  0.00    -0.520 NA
ATOM      9  C   LIG    1       -4.535  -4.589  -0.158  0.00  0.00    +0.270 C 
ATOM     10  C   LIG    1       -5.988  -4.955  -0.045  0.00  0.00    -0.160 A 
ENDROOT
BRANCH   1  12
ATOM     11  C   LIG    1       -5.412  -8.332   0.021  0.00  0.00    +0.230 C 
ATOM     12  N   LIG    1       -5.485  -7.170  -0.875  0.00  0.00    -0.500 N 
ATOM     13  C   LIG    1       -5.804  -7.582  -2.248  0.00  0.00    +0.230 C 
ENDBRANCH   1  12
BRANCH   8  14
ATOM     14  C   LIG    1       -2.951  -2.760  -0.137  0.00  0.00    +0.170 C 
BRANCH  14  15
ATOM     15  C   LIG    1       -2.818  -1.252  -0.359  0.00  0.00    +0.230 C 
BRANCH  15  16
ATOM     16  O   LIG    1       -3.406  -0.902  -1.614  0.00  0.00    -0.530 OA
ATOM     17  H   LIG    1       -3.000  -1.339  -2.374  0.00  0.00    +0.370 HD
ENDBRANCH  15  16
BRANCH  15  18
ATOM     18  C   LIG    1       -1.338  -0.865  -0.365  0.00  0.00    +0.170 C 
BRANCH  18  19
ATOM     19  O   LIG    1       -1.217   0.556  -0.456  0.00  0.00    -0.290 OA
BRANCH  19  20
ATOM     20  C   LIG    1        0.042   1.068  -0.472  0.00  0.00    +0.100 A 
ATOM     21  C   LIG    1        1.138   0.222  -0.403  0.00  0.00    -0.050 A 
ATOM     22  C   LIG    1        2.417   0.744  -0.425  0.00  0.00    +0.040 A 
ATOM     23  C   LIG    1        2.606   2.111  -0.511  0.00  0.00    +0.010 A 
ATOM     24  C   LIG    1        1.516   2.960  -0.576  0.00  0.00    +0.020 A 
ATOM     25  C   LIG    1        0.234   2.442  -0.554  0.00  0.00    +0.070 A 
ATOM     26  F   LIG    1       -0.831   3.271  -0.617  0.00  0.00    -0.130 F 
ENDBRANCH  19  20
ENDBRANCH  18  19
ENDBRANCH  15  18
ENDBRANCH  14  15
ENDBRANCH   8  14
TORSDOF 7
