REMARK  Name = ZINCtV000002qQa1.0
REMARK                            x       y       z     vdW  Elec       q    Type
REMARK                         _______ _______ _______ _____ _____    ______ ____
ROOT
ATOM      1  C   LIG    1       -1.306   2.064   0.019  0.00  0.00    -0.070 A 
ATOM      2  C   LIG    1       -2.512   1.387  -0.076  0.00  0.00    +0.080 A 
ATOM      3  C   LIG    1       -3.716   2.113  -0.056  0.00  0.00    +0.230 A 
ATOM      4  N   LIG    1       -3.741   3.429   0.039  0.00  0.00    -0.440 NA
ATOM      5  C   LIG    1       -2.628   4.159   0.129  0.00  0.00    +0.130 A 
ATOM      6  C   LIG    1       -2.687   5.561   0.230  0.00  0.00    +0.050 A 
ATOM      7  C   LIG    1       -1.535   6.280   0.321  0.00  0.00    +0.040 A 
ATOM      8  C   LIG    1       -0.292   5.651   0.316  0.00  0.00    +0.030 A 
ATOM      9  C   LIG    1       -0.197   4.293   0.220  0.00  0.00    +0.050 A 
ATOM     10  C   LIG    1       -1.361   3.524   0.125  0.00  0.00    -0.060 A 
ENDROOT
BRANCH   3  11
ATOM     11  C   LIG    1       -4.992   1.381  -0.151  0.00  0.00    +0.000 A 
ATOM     12  C   LIG    1       -6.235   1.936  -0.146  0.00  0.00    +0.020 A 
ATOM     13  C   LIG    1       -7.154   0.876  -0.257  0.00  0.00    -0.060 A 
ATOM     14  C   LIG    1       -6.436  -0.265  -0.317  0.00  0.00    +0.200 A 
ATOM     15  O   LIG    1       -5.131   0.044  -0.253  0.00  0.00    -0.170 OA
ENDBRANCH   3  11
BRANCH   1  16
ATOM     16  C   LIG    1       -0.016   1.343   0.009  0.00  0.00    +0.520 C 
ATOM     17  O   LIG    1        1.027   1.964  -0.009  0.00  0.00    -0.490 OA
BRANCH  16  18
ATOM     18  O   LIG    1        0.002  -0.004   0.015  0.00  0.00    -0.340 OA
BRANCH  18  19
ATOM     19  C   LIG    1        1.305  -0.646  -0.002  0.00  0.00    +0.270 C 
BRANCH  19  23
ATOM     20  C   LIG    1        0.804  -4.888   0.025  0.00  0.00    -0.050 A 
ATOM     21  C   LIG    1        0.866  -4.207  -1.176  0.00  0.00    +0.010 A 
ATOM     22  C   LIG    1        1.028  -2.834  -1.185  0.00  0.00    +0.030 A 
ATOM     23  C   LIG    1        1.128  -2.142   0.008  0.00  0.00    -0.110 A 
ATOM     24  C   LIG    1        1.070  -2.824   1.209  0.00  0.00    +0.030 A 
ATOM     25  C   LIG    1        0.903  -4.196   1.218  0.00  0.00    +0.010 A 
BRANCH  20  27
ATOM     26  C   LIG    1        1.798  -7.040  -0.702  0.00  0.00    +0.040 C 
ATOM     27  C   LIG    1        0.627  -6.384   0.034  0.00  0.00    -0.030 C 
ATOM     28  C   LIG    1       -0.683  -6.748  -0.666  0.00  0.00    +0.040 C 
ATOM     29  C   LIG    1        0.590  -6.885   1.480  0.00  0.00    +0.030 C 
ENDBRANCH  20  27
ENDBRANCH  19  23
ENDBRANCH  18  19
ENDBRANCH  16  18
ENDBRANCH   1  16
TORSDOF 6
