REMARK  Name = ZINCpk00000kjk6f.0
REMARK                            x       y       z     vdW  Elec       q    Type
REMARK                         _______ _______ _______ _____ _____    ______ ____
ROOT
ATOM      1  S   LIG    1       -2.246   2.515   1.217  0.00  0.00    +2.710 S 
ATOM      2  O   LIG    1       -2.433   3.337   0.072  0.00  0.00    -0.930 OA
ATOM      3  O   LIG    1       -2.557   2.940   2.537  0.00  0.00    -0.960 OA
ENDROOT
BRANCH   1   9
ATOM      4  C   LIG    1       -3.069   0.365  -0.272  0.00  0.00    +0.440 A 
ATOM      5  N   LIG    1       -3.768  -0.736  -0.489  0.00  0.00    -0.540 NA
ATOM      6  C   LIG    1       -4.588  -1.226   0.421  0.00  0.00    +0.440 A 
ATOM      7  C   LIG    1       -4.747  -0.600   1.641  0.00  0.00    -0.300 A 
ATOM      8  C   LIG    1       -4.027   0.556   1.910  0.00  0.00    +0.280 A 
ATOM      9  C   LIG    1       -3.179   1.048   0.933  0.00  0.00    -0.760 A 
BRANCH   7  10
ATOM     10  C   LIG    1       -5.687  -1.169   2.672  0.00  0.00    +0.520 C 
ATOM     11  F   LIG    1       -6.678  -0.227   2.971  0.00  0.00    -0.170 F 
ATOM     12  F   LIG    1       -4.973  -1.478   3.835  0.00  0.00    -0.170 F 
ATOM     13  F   LIG    1       -6.284  -2.330   2.170  0.00  0.00    -0.170 F 
ENDBRANCH   7  10
BRANCH   4  15
ATOM     14  C   LIG    1       -2.168   0.087  -2.452  0.00  0.00    +0.280 C 
ATOM     15  O   LIG    1       -2.237   0.834  -1.236  0.00  0.00    -0.290 OA
ENDBRANCH   4  15
ENDBRANCH   1   9
BRANCH   1  16
ATOM     16  N   LIG    1       -0.647   2.085   1.228  0.00  0.00    -1.100 NA
ATOM     17  H   LIG    1       -0.126   2.176   2.042  0.00  0.00    +0.420 HD
BRANCH  16  18
ATOM     18  C   LIG    1       -0.019   1.567   0.011  0.00  0.00    +0.300 C 
ATOM     19  C   LIG    1        0.002  -0.004   0.002  0.00  0.00    -0.030 C 
ATOM     20  C   LIG    1        0.967  -0.230   1.227  0.00  0.00    +0.060 C 
ATOM     21  C   LIG    1        2.158   0.690   0.772  0.00  0.00    -0.010 C 
ATOM     22  C   LIG    1        2.161   0.675  -0.802  0.00  0.00    +0.000 C 
ATOM     23  C   LIG    1        0.943  -0.217  -1.243  0.00  0.00    +0.060 C 
ATOM     24  C   LIG    1        1.508   1.849  -0.002  0.00  0.00    -0.130 C 
BRANCH  24  25
ATOM     25  C   LIG    1        2.027   3.288   0.018  0.00  0.00    +0.230 C 
BRANCH  25  26
ATOM     26  O   LIG    1        1.170   4.115  -0.772  0.00  0.00    -0.560 OA
ATOM     27  H   LIG    1        1.439   5.043  -0.804  0.00  0.00    +0.380 HD
ENDBRANCH  25  26
ENDBRANCH  24  25
ENDBRANCH  16  18
ENDBRANCH   1  16
TORSDOF 7
