REMARK  Name = ZINCvU0000000JIM.0
REMARK                            x       y       z     vdW  Elec       q    Type
REMARK                         _______ _______ _______ _____ _____    ______ ____
ROOT
ATOM      1  C   LIG    1        1.189   1.800   0.014  0.00  0.00    +0.200 A 
ATOM      2  N   LIG    1        1.217   3.116   0.006  0.00  0.00    -0.450 NA
ATOM      3  C   LIG    1        0.106   3.853   0.006  0.00  0.00    +0.130 A 
ATOM      4  C   LIG    1        0.167   5.259  -0.001  0.00  0.00    +0.050 A 
ATOM      5  C   LIG    1       -0.985   5.984  -0.001  0.00  0.00    +0.030 A 
ATOM      6  C   LIG    1       -2.229   5.358   0.007  0.00  0.00    +0.020 A 
ATOM      7  C   LIG    1       -2.327   3.998   0.015  0.00  0.00    +0.060 A 
ATOM      8  C   LIG    1       -1.164   3.222   0.015  0.00  0.00    -0.060 A 
ATOM      9  C   LIG    1       -1.220   1.760   0.017  0.00  0.00    -0.070 A 
ATOM     10  C   LIG    1       -0.013   1.076   0.022  0.00  0.00    +0.020 A 
ENDROOT
BRANCH   1  15
ATOM     11  C   LIG    1        6.173  -1.086   0.011  0.00  0.00    +0.090 C 
ATOM     12  C   LIG    1        4.868  -0.331   0.012  0.00  0.00    -0.070 A 
ATOM     13  C   LIG    1        4.873   1.053   0.005  0.00  0.00    +0.000 A 
ATOM     14  C   LIG    1        3.682   1.750   0.005  0.00  0.00    +0.070 A 
ATOM     15  C   LIG    1        2.473   1.057   0.013  0.00  0.00    -0.070 A 
ATOM     16  C   LIG    1        2.474  -0.337   0.026  0.00  0.00    +0.040 A 
ATOM     17  C   LIG    1        3.671  -1.023   0.020  0.00  0.00    +0.010 A 
ENDBRANCH   1  15
BRANCH   9  18
ATOM     18  C   LIG    1       -2.512   1.039   0.020  0.00  0.00    +0.580 C 
ATOM     19  N   LIG    1       -2.534  -0.304  -0.088  0.00  0.00    -0.630 N 
ATOM     20  H   LIG    1       -1.704  -0.798  -0.168  0.00  0.00    +0.420 HD
ATOM     21  O   LIG    1       -3.553   1.659   0.120  0.00  0.00    -0.490 OA
BRANCH  19  22
ATOM     22  C   LIG    1       -3.757  -0.985  -0.086  0.00  0.00    +0.310 A 
ATOM     23  N   LIG    1       -3.914  -2.285  -0.184  0.00  0.00    -0.310 NA
ATOM     24  N   LIG    1       -5.286  -2.565  -0.142  0.00  0.00    -0.320 N 
ATOM     25  C   LIG    1       -5.949  -1.386  -0.015  0.00  0.00    +0.250 A 
ATOM     26  C   LIG    1       -5.028  -0.397   0.028  0.00  0.00    -0.070 A 
BRANCH  24  27
ATOM     27  C   LIG    1       -5.871  -3.836  -0.217  0.00  0.00    +0.160 A 
ATOM     28  C   LIG    1       -7.251  -3.971  -0.157  0.00  0.00    -0.010 A 
ATOM     29  C   LIG    1       -7.825  -5.225  -0.238  0.00  0.00    +0.040 A 
ATOM     30  C   LIG    1       -7.026  -6.346  -0.366  0.00  0.00    +0.000 A 
ATOM     31  C   LIG    1       -5.650  -6.215  -0.420  0.00  0.00    +0.040 A 
ATOM     32  C   LIG    1       -5.071  -4.963  -0.346  0.00  0.00    +0.020 A 
ENDBRANCH  24  27
ENDBRANCH  19  22
ENDBRANCH   9  18
TORSDOF 4
