REMARK  Name = ZINCrH000004lY74.0
REMARK                            x       y       z     vdW  Elec       q    Type
REMARK                         _______ _______ _______ _____ _____    ______ ____
ROOT
ATOM      1  C   LIG    1        1.151   1.790   0.406  0.00  0.00    +0.100 A 
ATOM      2  C   LIG    1       -0.042   1.094   0.396  0.00  0.00    -0.010 A 
ATOM      3  C   LIG    1       -1.224   1.747   0.038  0.00  0.00    -0.130 A 
ATOM      4  C   LIG    1       -1.196   3.103  -0.298  0.00  0.00    +0.080 A 
ATOM      5  C   LIG    1       -0.002   3.791  -0.286  0.00  0.00    -0.020 A 
ATOM      6  C   LIG    1        1.174   3.141   0.065  0.00  0.00    +0.130 A 
ENDROOT
BRANCH   3   7
ATOM      7  C   LIG    1       -2.502   1.008   0.019  0.00  0.00    +0.570 C 
ATOM      8  N   LIG    1       -2.597  -0.155  -0.656  0.00  0.00    -0.610 N 
ATOM      9  C   LIG    1       -1.423  -0.749  -1.311  0.00  0.00    +0.280 C 
ATOM     10  C   LIG    1       -1.097  -2.091  -0.647  0.00  0.00    +0.270 C 
ATOM     11  N   LIG    1       -2.334  -2.866  -0.493  0.00  0.00    -0.450 N 
ATOM     12  C   LIG    1       -2.438  -4.207  -0.285  0.00  0.00    +0.150 A 
ATOM     13  C   LIG    1       -3.747  -4.519  -0.189  0.00  0.00    -0.060 A 
ATOM     14  C   LIG    1       -4.481  -3.325  -0.347  0.00  0.00    -0.040 A 
ATOM     15  C   LIG    1       -3.594  -2.335  -0.534  0.00  0.00    +0.000 A 
ATOM     16  C   LIG    1       -3.882  -0.872  -0.755  0.00  0.00    +0.330 C 
ATOM     17  C   LIG    1       -4.489  -0.668  -2.145  0.00  0.00    +0.060 C 
ATOM     18  O   LIG    1       -3.467   1.447   0.614  0.00  0.00    -0.520 OA
ENDBRANCH   3   7
BRANCH   1  20
ATOM     19  C   LIG    1        2.208  -0.229   1.087  0.00  0.00    +0.240 C 
ATOM     20  O   LIG    1        2.305   1.156   0.749  0.00  0.00    -0.300 OA
ENDBRANCH   1  20
BRANCH   6  21
ATOM     21  O   LIG    1        2.348   3.824   0.075  0.00  0.00    -0.300 OA
BRANCH  21  22
ATOM     22  C   LIG    1        2.298   5.205  -0.285  0.00  0.00    +0.320 C 
BRANCH  22  23
ATOM     23  C   LIG    1        3.685   5.792  -0.217  0.00  0.00    +0.050 A 
ATOM     24  C   LIG    1        4.757   5.076   0.134  0.00  0.00    -0.040 A 
ATOM     25  S   LIG    1        6.160   6.139   0.083  0.00  0.00    +0.130 S 
ATOM     26  C   LIG    1        5.166   7.442  -0.406  0.00  0.00    +0.230 A 
ATOM     27  N   LIG    1        3.940   7.053  -0.505  0.00  0.00    -0.470 NA
ENDBRANCH  22  23
ENDBRANCH  21  22
ENDBRANCH   6  21
TORSDOF 5
