REMARK  Name = ZINCqH0000001CGI.0
REMARK                            x       y       z     vdW  Elec       q    Type
REMARK                         _______ _______ _______ _____ _____    ______ ____
ROOT
ATOM      1  C   LIG    1        1.073  -0.601  -0.429  0.00  0.00    +0.250 C 
ATOM      2  C   LIG    1       -0.044   0.010   0.429  0.00  0.00    +0.270 C 
ATOM      3  N   LIG    1       -0.036   1.466   0.225  0.00  0.00    -0.550 N 
ATOM      4  C   LIG    1        1.193   2.144   0.244  0.00  0.00    +0.080 A 
ATOM      5  C   LIG    1        1.230   3.520   0.399  0.00  0.00    +0.050 A 
ATOM      6  C   LIG    1        2.446   4.179   0.415  0.00  0.00    -0.030 A 
ATOM      7  C   LIG    1        3.624   3.470   0.275  0.00  0.00    +0.020 A 
ATOM      8  C   LIG    1        3.596   2.096   0.120  0.00  0.00    -0.050 A 
ATOM      9  C   LIG    1        2.382   1.428   0.105  0.00  0.00    +0.180 A 
ATOM     10  C   LIG    1       -1.187   2.137   0.019  0.00  0.00    +0.510 C 
ATOM     11  O   LIG    1       -1.175   3.346  -0.076  0.00  0.00    -0.510 OA
ATOM     12  N   LIG    1        2.344   0.036  -0.050  0.00  0.00    -0.750 N 
ATOM     13  H   LIG    1        3.141  -0.499   0.091  0.00  0.00    +0.400 HD
ENDROOT
BRANCH   1  15
ATOM     14  C   LIG    1        1.904  -0.952  -2.759  0.00  0.00    +0.030 C 
ATOM     15  C   LIG    1        0.787  -0.342  -1.910  0.00  0.00    -0.040 C 
ATOM     16  C   LIG    1       -0.550  -0.981  -2.290  0.00  0.00    +0.020 C 
ENDBRANCH   1  15
BRANCH  10  17
ATOM     17  C   LIG    1       -2.488   1.385  -0.092  0.00  0.00    +0.060 C 
BRANCH  17  18
ATOM     18  C   LIG    1       -3.646   2.380  -0.182  0.00  0.00    +0.060 C 
BRANCH  18  19
ATOM     19  C   LIG    1       -4.967   1.617  -0.296  0.00  0.00    +0.190 C 
BRANCH  19  20
ATOM     20  C   LIG    1       -6.108   2.597  -0.385  0.00  0.00    +0.180 A 
ATOM     21  N   LIG    1       -6.613   3.111  -1.481  0.00  0.00    -0.470 NA
ATOM     22  C   LIG    1       -7.604   3.926  -1.076  0.00  0.00    +0.200 A 
ATOM     23  N   LIG    1       -7.650   3.867   0.222  0.00  0.00    -0.380 NA
ATOM     24  O   LIG    1       -6.803   3.105   0.638  0.00  0.00    +0.080 OA
BRANCH  22  25
ATOM     25  C   LIG    1       -8.495   4.755  -1.963  0.00  0.00    +0.060 C 
ATOM     26  C   LIG    1       -9.422   5.766  -1.286  0.00  0.00    +0.050 C 
ATOM     27  C   LIG    1      -10.001   4.488  -1.899  0.00  0.00    +0.050 C 
ENDBRANCH  22  25
ENDBRANCH  19  20
ENDBRANCH  18  19
ENDBRANCH  17  18
ENDBRANCH  10  17
TORSDOF 6
