REMARK  Name = ZINCpe00000y04gl.0
REMARK                            x       y       z     vdW  Elec       q    Type
REMARK                         _______ _______ _______ _____ _____    ______ ____
ROOT
ATOM      1  C   LIG    1        2.463   0.825  -0.621  0.00  0.00    +0.280 C 
ENDROOT
BRANCH   1   5
ATOM      2  C   LIG    1       -0.013   1.086   0.008  0.00  0.00    +0.260 C 
ATOM      3  C   LIG    1       -0.192   1.692   1.410  0.00  0.00    +0.010 C 
ATOM      4  C   LIG    1        1.341   1.659   1.534  0.00  0.00    +0.040 C 
ATOM      5  C   LIG    1        1.388   1.721  -0.002  0.00  0.00    -0.030 C 
BRANCH   2   7
ATOM      6  C   LIG    1       -1.968   0.926  -1.437  0.00  0.00    +0.510 C 
ATOM      7  N   LIG    1       -0.919   1.648  -0.996  0.00  0.00    -0.730 N 
ATOM      8  H   LIG    1       -0.764   2.540  -1.344  0.00  0.00    +0.400 HD
ATOM      9  O   LIG    1       -2.162  -0.190  -1.002  0.00  0.00    -0.510 OA
BRANCH   6  10
ATOM     10  C   LIG    1       -2.901   1.504  -2.470  0.00  0.00    +0.020 C 
BRANCH  10  12
ATOM     11  C   LIG    1       -4.784   0.163  -1.521  0.00  0.00    +0.060 C 
ATOM     12  C   LIG    1       -3.998   0.487  -2.793  0.00  0.00    +0.140 C 
ATOM     13  C   LIG    1       -4.944   1.074  -3.842  0.00  0.00    +0.020 C 
BRANCH  12  14
ATOM     14  O   LIG    1       -3.404  -0.708  -3.303  0.00  0.00    -0.540 OA
ATOM     15  H   LIG    1       -2.889  -0.578  -4.111  0.00  0.00    +0.370 HD
ENDBRANCH  12  14
ENDBRANCH  10  12
ENDBRANCH   6  10
ENDBRANCH   2   7
ENDBRANCH   1   5
BRANCH   1  16
ATOM     16  N   LIG    1        3.728   1.560  -0.693  0.00  0.00    -0.720 N 
ATOM     17  H   LIG    1        3.778   2.473  -0.371  0.00  0.00    +0.410 HD
ATOM     18  C   LIG    1        4.824   0.966  -1.207  0.00  0.00    +0.600 C 
ATOM     19  O   LIG    1        4.761  -0.179  -1.610  0.00  0.00    -0.520 OA
BRANCH  18  20
ATOM     20  C   LIG    1        6.100   1.706  -1.280  0.00  0.00    +0.010 A 
ATOM     21  N   LIG    1        6.312   2.946  -0.888  0.00  0.00    -0.250 NA
ATOM     22  N   LIG    1        7.537   3.270  -1.094  0.00  0.00    -0.360 N 
ATOM     23  H   LIG    1        7.926   4.133  -0.884  0.00  0.00    +0.450 HD
ATOM     24  C   LIG    1        8.207   2.233  -1.655  0.00  0.00    +0.020 A 
ATOM     25  C   LIG    1        9.569   1.835  -2.166  0.00  0.00    +0.030 C 
ATOM     26  C   LIG    1        9.743   1.496  -3.690  0.00  0.00    +0.070 C 
ATOM     27  C   LIG    1        9.447   0.390  -2.675  0.00  0.00    -0.010 C 
ATOM     28  C   LIG    1        7.981   0.014  -2.409  0.00  0.00    +0.160 C 
ATOM     29  C   LIG    1        7.329   1.221  -1.789  0.00  0.00    -0.160 A 
ENDBRANCH  18  20
ENDBRANCH   1  16
TORSDOF 7
