REMARK  Name = ZINCpe00000y04gl.1
REMARK                            x       y       z     vdW  Elec       q    Type
REMARK                         _______ _______ _______ _____ _____    ______ ____
ROOT
ATOM      1  C   LIG    1       -4.274   1.575   1.365  0.00  0.00    +0.290 C 
ENDROOT
BRANCH   1   5
ATOM      2  C   LIG    1       -2.427   1.099  -0.353  0.00  0.00    +0.250 C 
ATOM      3  C   LIG    1       -2.977   1.023  -1.788  0.00  0.00    +0.020 C 
ATOM      4  C   LIG    1       -4.376   1.221  -1.177  0.00  0.00    +0.040 C 
ATOM      5  C   LIG    1       -3.677   1.923   0.000  0.00  0.00    -0.030 C 
BRANCH   2   7
ATOM      6  C   LIG    1       -0.012   1.203  -0.052  0.00  0.00    +0.520 C 
ATOM      7  N   LIG    1       -1.176   1.854  -0.243  0.00  0.00    -0.720 N 
ATOM      8  H   LIG    1       -1.187   2.821  -0.308  0.00  0.00    +0.400 HD
ATOM      9  O   LIG    1        0.001  -0.007   0.029  0.00  0.00    -0.540 OA
BRANCH   6  10
ATOM     10  C   LIG    1        1.276   1.979   0.056  0.00  0.00    +0.030 C 
BRANCH  10  12
ATOM     11  C   LIG    1        2.480   0.163  -1.167  0.00  0.00    +0.010 C 
ATOM     12  C   LIG    1        2.455   1.006   0.110  0.00  0.00    +0.150 C 
ATOM     13  C   LIG    1        3.761   1.793   0.227  0.00  0.00    +0.060 C 
BRANCH  12  14
ATOM     14  O   LIG    1        2.313   0.148   1.244  0.00  0.00    -0.570 OA
ATOM     15  H   LIG    1        1.504  -0.383   1.236  0.00  0.00    +0.390 HD
ENDBRANCH  12  14
ENDBRANCH  10  12
ENDBRANCH   6  10
ENDBRANCH   2   7
ENDBRANCH   1   5
BRANCH   1  16
ATOM     16  N   LIG    1       -5.380   2.489   1.661  0.00  0.00    -0.730 N 
ATOM     17  H   LIG    1       -5.623   3.179   1.024  0.00  0.00    +0.400 HD
ATOM     18  C   LIG    1       -6.061   2.370   2.818  0.00  0.00    +0.590 C 
ATOM     19  O   LIG    1       -5.757   1.505   3.617  0.00  0.00    -0.510 OA
BRANCH  18  20
ATOM     20  C   LIG    1       -7.173   3.288   3.115  0.00  0.00    -0.030 A 
ATOM     21  C   LIG    1       -7.967   3.293   4.248  0.00  0.00    -0.130 A 
ATOM     22  C   LIG    1       -8.204   2.605   5.565  0.00  0.00    +0.160 C 
ATOM     23  C   LIG    1       -9.379   3.325   6.242  0.00  0.00    -0.020 C 
ATOM     24  C   LIG    1       -9.213   4.797   6.625  0.00  0.00    +0.070 C 
ATOM     25  C   LIG    1       -9.790   4.433   5.263  0.00  0.00    +0.040 C 
ATOM     26  C   LIG    1       -8.870   4.336   4.072  0.00  0.00    +0.040 A 
ATOM     27  N   LIG    1       -8.615   4.891   2.908  0.00  0.00    -0.240 NA
ATOM     28  N   LIG    1       -7.633   4.304   2.326  0.00  0.00    -0.370 N 
ATOM     29  H   LIG    1       -7.272   4.544   1.458  0.00  0.00    +0.450 HD
ENDBRANCH  18  20
ENDBRANCH   1  16
TORSDOF 7
