REMARK  Name = ZINCkj000005gebq.0
REMARK                            x       y       z     vdW  Elec       q    Type
REMARK                         _______ _______ _______ _____ _____    ______ ____
ROOT
ATOM      1  C   LIG    1        1.029   0.665  -6.608  0.00  0.00    -0.340 A 
ATOM      2  C   LIG    1        0.689   1.524  -5.565  0.00  0.00    +0.440 A 
ATOM      3  N   LIG    1       -0.246   0.897  -4.824  0.00  0.00    -0.410 N 
ATOM      4  N   LIG    1       -0.506  -0.352  -5.399  0.00  0.00    -0.300 NA
ATOM      5  C   LIG    1        0.242  -0.502  -6.455  0.00  0.00    +0.360 A 
ENDROOT
BRANCH   2   6
ATOM      6  N   LIG    1        1.213   2.779  -5.333  0.00  0.00    -0.820 N 
ATOM      7  H   LIG    1        1.886   3.142  -5.929  0.00  0.00    +0.440 HD
ATOM      8  H   LIG    1        0.908   3.299  -4.572  0.00  0.00    +0.400 HD
ENDBRANCH   2   6
BRANCH   1   9
ATOM      9  C   LIG    1        2.011   0.922  -7.666  0.00  0.00    +0.550 C 
ATOM     10  O   LIG    1        2.624   1.972  -7.684  0.00  0.00    -0.540 OA
BRANCH   9  11
ATOM     11  O   LIG    1        2.233  -0.005  -8.620  0.00  0.00    -0.350 OA
BRANCH  11  13
ATOM     12  C   LIG    1        3.334  -0.846 -10.623  0.00  0.00    +0.060 C 
ATOM     13  C   LIG    1        3.219   0.318  -9.636  0.00  0.00    +0.210 C 
ENDBRANCH  11  13
ENDBRANCH   9  11
ENDBRANCH   1   9
BRANCH   3  14
ATOM     14  C   LIG    1       -0.888   1.435  -3.622  0.00  0.00    +0.360 C 
BRANCH  14  15
ATOM     15  C   LIG    1       -0.078   1.032  -2.388  0.00  0.00    +0.250 C 
BRANCH  15  16
ATOM     16  N   LIG    1       -0.722   1.571  -1.182  0.00  0.00    -0.380 N 
ATOM     17  C   LIG    1       -0.013   1.086   0.008  0.00  0.00    +0.250 C 
ATOM     18  C   LIG    1       -0.728   1.579   1.268  0.00  0.00    +0.060 C 
ATOM     19  C   LIG    1       -0.745   3.110   1.272  0.00  0.00    -0.010 C 
ATOM     20  C   LIG    1       -1.421   3.606  -0.009  0.00  0.00    +0.060 C 
ATOM     21  C   LIG    1       -1.526   3.611   2.489  0.00  0.00    +0.050 C 
ATOM     22  C   LIG    1       -0.681   3.038  -1.222  0.00  0.00    +0.240 C 
ATOM     23  H   LIG    1       -1.682   1.265  -1.149  0.00  0.00    +0.430 HD
ENDBRANCH  15  16
ENDBRANCH  14  15
ENDBRANCH   3  14
TORSDOF 7
