REMARK  Name = ZINCqH00000075UG.0
REMARK                            x       y       z     vdW  Elec       q    Type
REMARK                         _______ _______ _______ _____ _____    ______ ____
ROOT
ATOM      1  N   LIG    1        3.615   3.409  -0.115  0.00  0.00    -0.600 N 
ATOM      2  C   LIG    1        3.612   2.068   0.024  0.00  0.00    +0.570 C 
ATOM      3  O   LIG    1        4.664   1.462   0.090  0.00  0.00    -0.520 OA
ATOM      4  C   LIG    1        2.351   4.149  -0.100  0.00  0.00    +0.300 C 
ENDROOT
BRANCH   2   5
ATOM      5  C   LIG    1        2.332   1.336   0.096  0.00  0.00    -0.250 A 
ATOM      6  C   LIG    1        1.189   1.938   0.638  0.00  0.00    +0.360 A 
ATOM      7  N   LIG    1        0.064   1.250   0.685  0.00  0.00    -0.520 NA
ATOM      8  C   LIG    1        0.007   0.005   0.228  0.00  0.00    +0.380 A 
ATOM      9  N   LIG    1        1.068  -0.600  -0.293  0.00  0.00    -0.510 NA
ATOM     10  C   LIG    1        2.229   0.021  -0.376  0.00  0.00    +0.390 A 
BRANCH   8  11
ATOM     11  C   LIG    1       -1.277  -0.730   0.301  0.00  0.00    -0.060 A 
ATOM     12  C   LIG    1       -2.404  -0.118   0.850  0.00  0.00    +0.070 A 
ATOM     13  C   LIG    1       -3.598  -0.805   0.910  0.00  0.00    +0.000 A 
ATOM     14  C   LIG    1       -3.677  -2.104   0.439  0.00  0.00    +0.040 A 
ATOM     15  C   LIG    1       -2.561  -2.718  -0.101  0.00  0.00    +0.000 A 
ATOM     16  C   LIG    1       -1.363  -2.038  -0.172  0.00  0.00    +0.070 A 
ENDBRANCH   8  11
ENDBRANCH   2   5
BRANCH   1  17
ATOM     17  C   LIG    1        4.882   4.126  -0.282  0.00  0.00    +0.360 C 
BRANCH  17  24
ATOM     18  C   LIG    1        4.603   5.193  -2.534  0.00  0.00    +0.130 A 
ATOM     19  C   LIG    1        4.911   5.282  -3.884  0.00  0.00    -0.080 A 
ATOM     20  C   LIG    1        5.824   4.409  -4.442  0.00  0.00    +0.050 A 
ATOM     21  C   LIG    1        6.431   3.446  -3.658  0.00  0.00    -0.120 A 
ATOM     22  C   LIG    1        6.130   3.358  -2.311  0.00  0.00    +0.070 A 
ATOM     23  C   LIG    1        7.426   2.494  -4.269  0.00  0.00    +0.090 C 
ATOM     24  C   LIG    1        5.213   4.226  -1.749  0.00  0.00    -0.140 A 
BRANCH  18  26
ATOM     25  C   LIG    1        3.117   7.021  -2.851  0.00  0.00    +0.240 C 
ATOM     26  O   LIG    1        3.706   6.051  -1.983  0.00  0.00    -0.320 OA
ENDBRANCH  18  26
ENDBRANCH  17  24
ENDBRANCH   1  17
TORSDOF 5
