REMARK  Name = ZINCrD00000l0xnP.0
REMARK                            x       y       z     vdW  Elec       q    Type
REMARK                         _______ _______ _______ _____ _____    ______ ____
ROOT
ATOM      1  C   LIG    1        1.584   3.338   0.005  0.00  0.00    +0.520 C 
ATOM      2  N   LIG    1        1.356   2.010  -0.000  0.00  0.00    -0.730 N 
ATOM      3  H   LIG    1        2.102   1.390  -0.011  0.00  0.00    +0.400 HD
ATOM      4  O   LIG    1        0.652   4.114   0.018  0.00  0.00    -0.530 OA
ENDROOT
BRANCH   1   8
ATOM      5  N   LIG    1        5.173   5.318   1.063  0.00  0.00    -1.000 NA
ATOM      6  C   LIG    1        4.415   5.917  -0.043  0.00  0.00    +0.300 C 
ATOM      7  C   LIG    1        2.977   5.390   0.003  0.00  0.00    +0.050 C 
ATOM      8  C   LIG    1        2.998   3.860  -0.006  0.00  0.00    +0.000 C 
ATOM      9  C   LIG    1        3.739   3.351   1.233  0.00  0.00    +0.030 C 
ATOM     10  C   LIG    1        5.185   3.855   1.201  0.00  0.00    +0.300 C 
BRANCH   5  11
ATOM     11  S   LIG    1        6.000   6.273   2.135  0.00  0.00    +2.610 S 
ATOM     12  O   LIG    1        6.288   7.454   1.400  0.00  0.00    -0.950 OA
ATOM     13  O   LIG    1        7.042   5.437   2.617  0.00  0.00    -0.950 OA
BRANCH  11  15
ATOM     14  C   LIG    1        5.452   7.504   4.514  0.00  0.00    +0.070 C 
ATOM     15  C   LIG    1        4.800   6.619   3.450  0.00  0.00    -0.370 C 
ENDBRANCH  11  15
ENDBRANCH   5  11
ENDBRANCH   1   8
BRANCH   2  16
ATOM     16  C   LIG    1       -0.018   1.503   0.010  0.00  0.00    +0.390 C 
BRANCH  16  17
ATOM     17  C   LIG    1        0.002  -0.004   0.002  0.00  0.00    -0.030 A 
ATOM     18  C   LIG    1        0.023  -0.795   1.092  0.00  0.00    -0.020 A 
ATOM     19  C   LIG    1        0.037  -2.128   0.635  0.00  0.00    -0.030 A 
ATOM     20  C   LIG    1        0.023  -2.076  -0.724  0.00  0.00    +0.040 A 
ATOM     21  O   LIG    1       -0.004  -0.781  -1.093  0.00  0.00    -0.160 OA
BRANCH  20  22
ATOM     22  C   LIG    1        0.030  -3.239  -1.636  0.00  0.00    -0.000 A 
ATOM     23  C   LIG    1        0.058  -4.535  -1.120  0.00  0.00    +0.050 A 
ATOM     24  C   LIG    1        0.060  -5.616  -1.977  0.00  0.00    +0.050 A 
ATOM     25  C   LIG    1        0.044  -5.417  -3.347  0.00  0.00    -0.090 A 
ATOM     26  C   LIG    1        0.021  -4.133  -3.865  0.00  0.00    +0.050 A 
ATOM     27 BR   LIG    1        0.053  -6.904  -4.514  0.00  0.00    -0.040 Br
ATOM     28  C   LIG    1        0.015  -3.044  -3.019  0.00  0.00    +0.040 A 
ENDBRANCH  20  22
ENDBRANCH  16  17
ENDBRANCH   2  16
TORSDOF 6
