REMARK  Name = ZINCrD00000hQ72P.0
REMARK                            x       y       z     vdW  Elec       q    Type
REMARK                         _______ _______ _______ _____ _____    ______ ____
ROOT
ATOM      1  C   LIG    1       -0.006  -0.003  -0.004  0.00  0.00    +0.340 C 
ATOM      2  C   LIG    1       -0.534  -0.525  -1.344  0.00  0.00    +0.240 C 
ATOM      3  O   LIG    1       -0.678  -1.946  -1.272  0.00  0.00    -0.360 OA
ATOM      4  C   LIG    1       -1.626  -2.389  -0.297  0.00  0.00    +0.220 C 
ATOM      5  C   LIG    1       -1.154  -1.961   1.097  0.00  0.00    +0.270 C 
ATOM      6  N   LIG    1       -0.872  -0.517   1.069  0.00  0.00    -0.620 N 
ATOM      7  C   LIG    1       -1.391   0.309   1.998  0.00  0.00    +0.520 C 
ATOM      8  O   LIG    1       -1.216   1.506   1.911  0.00  0.00    -0.520 OA
ENDROOT
BRANCH   1  13
ATOM      9  C   LIG    1        1.231   4.832   0.414  0.00  0.00    +0.200 C 
ATOM     10  C   LIG    1        0.475   3.551   0.172  0.00  0.00    +0.170 A 
ATOM     11  N   LIG    1       -0.764   3.449  -0.206  0.00  0.00    -0.380 NA
ATOM     12  O   LIG    1       -1.074   2.281  -0.316  0.00  0.00    +0.090 OA
ATOM     13  C   LIG    1       -0.034   1.504   0.000  0.00  0.00    +0.200 A 
ATOM     14  N   LIG    1        0.958   2.303   0.309  0.00  0.00    -0.480 NA
ENDBRANCH   1  13
BRANCH   7  15
ATOM     15  C   LIG    1       -2.190  -0.254   3.145  0.00  0.00    +0.070 C 
BRANCH  15  16
ATOM     16  C   LIG    1       -2.661   0.888   4.048  0.00  0.00    +0.040 C 
BRANCH  16  17
ATOM     17  C   LIG    1       -3.472   0.317   5.212  0.00  0.00    +0.080 C 
BRANCH  17  18
ATOM     18  C   LIG    1       -3.936   1.442   6.101  0.00  0.00    -0.080 A 
ATOM     19  C   LIG    1       -3.150   1.855   7.161  0.00  0.00    +0.050 A 
ATOM     20  C   LIG    1       -3.574   2.889   7.974  0.00  0.00    +0.020 A 
ATOM     21  C   LIG    1       -4.787   3.506   7.732  0.00  0.00    +0.070 A 
ATOM     22  C   LIG    1       -5.576   3.089   6.676  0.00  0.00    -0.180 A 
ATOM     23  C   LIG    1       -5.150   2.058   5.861  0.00  0.00    +0.070 A 
BRANCH  22  24
ATOM     24  C   LIG    1       -6.899   3.761   6.413  0.00  0.00    +0.510 C 
ATOM     25  F   LIG    1       -7.182   3.714   5.043  0.00  0.00    -0.180 F 
ATOM     26  F   LIG    1       -6.836   5.095   6.830  0.00  0.00    -0.180 F 
ATOM     27  F   LIG    1       -7.907   3.099   7.120  0.00  0.00    -0.180 F 
ENDBRANCH  22  24
ENDBRANCH  17  18
ENDBRANCH  16  17
ENDBRANCH  15  16
ENDBRANCH   7  15
TORSDOF 6
