REMARK  Name = ZINCqH000003686G.0
REMARK                            x       y       z     vdW  Elec       q    Type
REMARK                         _______ _______ _______ _____ _____    ______ ____
ROOT
ATOM      1  C   LIG    1        2.489   1.044  -0.016  0.00  0.00    +0.290 C 
ATOM      2  C   LIG    1        3.022   0.890   1.424  0.00  0.00    +0.050 C 
ATOM      3  C   LIG    1        3.636  -0.535   1.417  0.00  0.00    +0.040 C 
ATOM      4  C   LIG    1        2.658  -1.290   0.483  0.00  0.00    +0.240 C 
ATOM      5  N   LIG    1        2.296  -0.309  -0.557  0.00  0.00    -0.620 N 
ATOM      6  C   LIG    1        1.861  -0.605  -1.797  0.00  0.00    +0.530 C 
ATOM      7  O   LIG    1        1.590   0.287  -2.573  0.00  0.00    -0.500 OA
ENDROOT
BRANCH   1  11
ATOM      8  C   LIG    1       -1.241   3.137   0.031  0.00  0.00    +0.170 A 
ATOM      9  C   LIG    1       -1.219   1.749   0.017  0.00  0.00    -0.110 A 
ATOM     10  C   LIG    1       -0.013   1.076   0.008  0.00  0.00    +0.100 A 
ATOM     11  C   LIG    1        1.175   1.782   0.000  0.00  0.00    -0.150 A 
ATOM     12  C   LIG    1        1.159   3.170   0.008  0.00  0.00    +0.180 A 
ATOM     13  C   LIG    1       -0.050   3.847   0.023  0.00  0.00    -0.100 A 
BRANCH   8  15
ATOM     14  C   LIG    1       -3.614   3.002   0.052  0.00  0.00    +0.250 C 
ATOM     15  O   LIG    1       -2.428   3.798   0.045  0.00  0.00    -0.320 OA
ENDBRANCH   8  15
BRANCH  12  16
ATOM     16  O   LIG    1        2.327   3.863   0.001  0.00  0.00    -0.310 OA
ATOM     17  C   LIG    1        2.235   5.289   0.009  0.00  0.00    +0.240 C 
ENDBRANCH  12  16
ENDBRANCH   1  11
BRANCH   6  18
ATOM     18  C   LIG    1        1.709  -2.043  -2.220  0.00  0.00    +0.230 C 
BRANCH  18  19
ATOM     19  O   LIG    1        1.236  -2.096  -3.568  0.00  0.00    -0.290 OA
BRANCH  19  20
ATOM     20  C   LIG    1        1.044  -3.329  -4.106  0.00  0.00    +0.120 A 
ATOM     21  C   LIG    1        1.312  -4.464  -3.355  0.00  0.00    -0.080 A 
ATOM     22  C   LIG    1        1.110  -5.716  -3.903  0.00  0.00    +0.050 A 
ATOM     23  C   LIG    1        0.654  -5.839  -5.203  0.00  0.00    -0.120 A 
ATOM     24  C   LIG    1        0.393  -4.709  -5.955  0.00  0.00    +0.050 A 
ATOM     25  C   LIG    1        0.442  -7.206  -5.800  0.00  0.00    +0.100 C 
ATOM     26  C   LIG    1        0.587  -3.454  -5.410  0.00  0.00    -0.010 A 
ENDBRANCH  19  20
ENDBRANCH  18  19
ENDBRANCH   6  18
TORSDOF 6
