REMARK  Name = ZINCrH000004luOl.0
REMARK                            x       y       z     vdW  Elec       q    Type
REMARK                         _______ _______ _______ _____ _____    ______ ____
ROOT
ATOM      1  N   LIG    1        2.019   6.070   6.049  0.00  0.00    -0.710 N 
ATOM      2  H   LIG    1        1.783   6.933   5.674  0.00  0.00    +0.400 HD
ATOM      3  C   LIG    1        1.661   4.938   5.411  0.00  0.00    +0.580 C 
ATOM      4  O   LIG    1        1.956   3.856   5.881  0.00  0.00    -0.530 OA
ENDROOT
BRANCH   3   5
ATOM      5  C   LIG    1        0.910   5.011   4.141  0.00  0.00    -0.210 A 
ATOM      6  C   LIG    1        0.565   6.251   3.591  0.00  0.00    +0.380 A 
ATOM      7  N   LIG    1       -0.103   6.340   2.462  0.00  0.00    -0.460 NA
ATOM      8  C   LIG    1       -0.482   5.265   1.790  0.00  0.00    +0.230 A 
ATOM      9  O   LIG    1       -1.154   5.047   0.646  0.00  0.00    +0.090 OA
ATOM     10  N   LIG    1       -1.285   3.873   0.390  0.00  0.00    -0.310 NA
ATOM     11  C   LIG    1       -0.749   3.086   1.275  0.00  0.00    +0.080 A 
ATOM     12  C   LIG    1       -0.174   3.979   2.286  0.00  0.00    -0.220 A 
ATOM     13  C   LIG    1        0.534   3.843   3.470  0.00  0.00    +0.230 A 
BRANCH  11  14
ATOM     14  C   LIG    1       -0.729   1.579   1.267  0.00  0.00    +0.080 C 
ATOM     15  C   LIG    1       -2.164   1.050   1.278  0.00  0.00    +0.040 C 
ATOM     16  C   LIG    1       -0.013   1.086   0.008  0.00  0.00    +0.040 C 
ENDBRANCH  11  14
ENDBRANCH   3   5
BRANCH   1  17
ATOM     17  C   LIG    1        2.764   5.997   7.309  0.00  0.00    +0.320 C 
BRANCH  17  18
ATOM     18  C   LIG    1        3.553   7.266   7.500  0.00  0.00    -0.080 A 
ATOM     19  C   LIG    1        4.835   7.211   8.012  0.00  0.00    +0.050 A 
ATOM     20  C   LIG    1        5.562   8.374   8.188  0.00  0.00    +0.030 A 
ATOM     21  C   LIG    1        5.004   9.595   7.852  0.00  0.00    +0.070 A 
ATOM     22  C   LIG    1        3.717   9.651   7.338  0.00  0.00    +0.070 A 
ATOM     23  F   LIG    1        3.171  10.842   7.009  0.00  0.00    -0.120 F 
ATOM     24  F   LIG    1        5.713  10.733   8.024  0.00  0.00    -0.130 F 
ATOM     25  C   LIG    1        2.995   8.484   7.158  0.00  0.00    +0.050 A 
ENDBRANCH  17  18
BRANCH  17  26
ATOM     26  C   LIG    1        1.784   5.825   8.471  0.00  0.00    +0.190 C 
BRANCH  26  28
ATOM     27  C   LIG    1        0.012   6.936   9.643  0.00  0.00    +0.200 C 
ATOM     28  O   LIG    1        0.967   6.993   8.582  0.00  0.00    -0.390 OA
ENDBRANCH  26  28
ENDBRANCH  17  26
ENDBRANCH   1  17
TORSDOF 6
