REMARK  Name = ZINCpk00000e9DQh.0
REMARK                            x       y       z     vdW  Elec       q    Type
REMARK                         _______ _______ _______ _____ _____    ______ ____
ROOT
ATOM      1  C   LIG    1        1.389   0.632  -4.651  0.00  0.00    -0.110 A 
ATOM      2  C   LIG    1        2.002   1.357  -3.646  0.00  0.00    +0.040 A 
ATOM      3  C   LIG    1        1.306   1.671  -2.495  0.00  0.00    -0.030 A 
ATOM      4  C   LIG    1       -0.012   1.256  -2.348  0.00  0.00    +0.090 A 
ATOM      5  C   LIG    1       -0.623   0.522  -3.357  0.00  0.00    +0.040 A 
ATOM      6  C   LIG    1        0.078   0.217  -4.508  0.00  0.00    +0.040 A 
ENDROOT
BRANCH   4   7
ATOM      7  N   LIG    1       -0.719   1.571  -1.185  0.00  0.00    -0.500 N 
ATOM      8  C   LIG    1       -0.950   3.021  -1.085  0.00  0.00    +0.190 C 
ATOM      9  C   LIG    1       -1.977   3.279   0.020  0.00  0.00    +0.280 C 
ATOM     10  N   LIG    1       -1.587   2.577   1.239  0.00  0.00    -0.720 N 
ATOM     11  H   LIG    1       -1.983   2.855   2.080  0.00  0.00    +0.400 HD
ATOM     12  C   LIG    1       -0.712   1.568   1.247  0.00  0.00    +0.530 C 
ATOM     13  O   LIG    1       -0.470   1.020   2.302  0.00  0.00    -0.550 OA
ATOM     14  C   LIG    1       -0.013   1.086   0.008  0.00  0.00    +0.240 C 
ENDBRANCH   4   7
BRANCH   1  15
ATOM     15  C   LIG    1        2.152   0.292  -5.905  0.00  0.00    +0.320 C 
BRANCH  15  17
ATOM     16  C   LIG    1        3.583  -1.500  -6.729  0.00  0.00    +0.600 C 
ATOM     17  N   LIG    1        2.834  -0.992  -5.729  0.00  0.00    -0.720 N 
ATOM     18  H   LIG    1        2.748  -1.477  -4.894  0.00  0.00    +0.400 HD
ATOM     19  O   LIG    1        3.692  -0.892  -7.776  0.00  0.00    -0.520 OA
BRANCH  16  25
ATOM     20  C   LIG    1        5.620  -3.049  -6.028  0.00  0.00    +0.060 A 
ATOM     21  N   LIG    1        5.765  -4.341  -6.069  0.00  0.00    -0.350 NA
ATOM     22  O   LIG    1        4.787  -4.897  -6.505  0.00  0.00    +0.100 OA
ATOM     23  C   LIG    1        3.804  -4.055  -6.829  0.00  0.00    +0.020 A 
ATOM     24  C   LIG    1        2.453  -4.416  -7.391  0.00  0.00    +0.200 C 
ATOM     25  C   LIG    1        4.269  -2.792  -6.551  0.00  0.00    -0.260 A 
BRANCH  20  27
ATOM     26  C   LIG    1        6.424  -1.791  -4.048  0.00  0.00    +0.040 C 
ATOM     27  C   LIG    1        6.622  -2.032  -5.546  0.00  0.00    +0.130 C 
ENDBRANCH  20  27
ENDBRANCH  16  25
ENDBRANCH  15  17
ENDBRANCH   1  15
TORSDOF 5
