REMARK  Name = ZINCvU0000000Iul.0
REMARK                            x       y       z     vdW  Elec       q    Type
REMARK                         _______ _______ _______ _____ _____    ______ ____
ROOT
ATOM      1  C   LIG    1        3.461   0.825  -0.039  0.00  0.00    +0.160 A 
ATOM      2  C   LIG    1        4.017   2.089  -0.046  0.00  0.00    -0.090 A 
ATOM      3  C   LIG    1        3.176   3.200  -0.041  0.00  0.00    +0.220 A 
ATOM      4  N   LIG    1        1.869   3.046  -0.030  0.00  0.00    -0.470 NA
ATOM      5  C   LIG    1        1.315   1.829  -0.023  0.00  0.00    +0.300 A 
ATOM      6  C   LIG    1       -0.017   1.397  -0.010  0.00  0.00    -0.200 A 
ATOM      7  C   LIG    1        0.002  -0.003  -0.007  0.00  0.00    +0.140 A 
ATOM      8  N   LIG    1        1.248  -0.409  -0.018  0.00  0.00    -0.300 NA
ATOM      9  C   LIG    1       -1.212  -0.896   0.005  0.00  0.00    +0.180 C 
ATOM     10  C   LIG    1        3.768   4.587  -0.048  0.00  0.00    +0.150 C 
ATOM     11  N   LIG    1        2.095   0.703  -0.028  0.00  0.00    -0.300 N 
ENDROOT
BRANCH   6  12
ATOM     12  C   LIG    1       -1.221   2.260  -0.007  0.00  0.00    +0.010 A 
ATOM     13  C   LIG    1       -1.495   3.084  -1.098  0.00  0.00    +0.020 A 
ATOM     14  C   LIG    1       -2.621   3.881  -1.091  0.00  0.00    +0.000 A 
ATOM     15  C   LIG    1       -3.471   3.873   0.000  0.00  0.00    +0.000 A 
ATOM     16  C   LIG    1       -3.202   3.062   1.088  0.00  0.00    +0.000 A 
ATOM     17  C   LIG    1       -2.082   2.256   1.091  0.00  0.00    +0.010 A 
ENDBRANCH   6  12
BRANCH   1  18
ATOM     18  S   LIG    1        4.489  -0.607  -0.045  0.00  0.00    +0.100 S 
BRANCH  18  19
ATOM     19  C   LIG    1        6.120   0.178  -0.060  0.00  0.00    +0.080 C 
BRANCH  19  22
ATOM     20  N   LIG    1        8.489  -0.533  -0.078  0.00  0.00    -0.660 N 
ATOM     21  H   LIG    1        8.738   0.402  -0.150  0.00  0.00    +0.410 HD
ATOM     22  C   LIG    1        7.188  -0.885  -0.067  0.00  0.00    +0.530 C 
ATOM     23  O   LIG    1        6.877  -2.058  -0.062  0.00  0.00    -0.500 OA
BRANCH  20  27
ATOM     24  C   LIG    1       11.444  -3.462   0.194  0.00  0.00    +0.120 A 
ATOM     25  C   LIG    1       10.268  -3.726  -0.492  0.00  0.00    +0.010 A 
ATOM     26  C   LIG    1        9.289  -2.756  -0.583  0.00  0.00    +0.070 A 
ATOM     27  C   LIG    1        9.482  -1.517   0.013  0.00  0.00    +0.100 A 
ATOM     28  C   LIG    1       10.662  -1.252   0.696  0.00  0.00    +0.030 A 
ATOM     29  C   LIG    1       11.638  -2.225   0.790  0.00  0.00    -0.060 A 
BRANCH  24  30
ATOM     30  O   LIG    1       12.408  -4.417   0.283  0.00  0.00    -0.310 OA
BRANCH  30  32
ATOM     31  C   LIG    1       14.555  -5.268   0.997  0.00  0.00    +0.070 C 
ATOM     32  C   LIG    1       13.594  -4.077   1.005  0.00  0.00    +0.170 C 
ENDBRANCH  30  32
ENDBRANCH  24  30
ENDBRANCH  20  27
ENDBRANCH  19  22
ENDBRANCH  18  19
ENDBRANCH   1  18
TORSDOF 7
