REMARK  Name = ZINCrD000000Avpl.0
REMARK                            x       y       z     vdW  Elec       q    Type
REMARK                         _______ _______ _______ _____ _____    ______ ____
ROOT
ATOM      1  O   LIG    1       -1.075   1.936   0.018  0.00  0.00    -0.520 OA
ATOM      2  C   LIG    1       -0.016   1.344   0.009  0.00  0.00    +0.520 C 
ATOM      3  N   LIG    1        0.002  -0.004   0.002  0.00  0.00    -0.720 N 
ATOM      4  H   LIG    1        0.849  -0.478  -0.009  0.00  0.00    +0.400 HD
ENDROOT
BRANCH   3   5
ATOM      5  C   LIG    1       -1.256  -0.754   0.010  0.00  0.00    +0.340 C 
BRANCH   5   6
ATOM      6  C   LIG    1       -0.961  -2.232  -0.001  0.00  0.00    -0.190 A 
ATOM      7  C   LIG    1       -1.038  -2.953  -1.179  0.00  0.00    +0.120 A 
ATOM      8  C   LIG    1       -0.757  -4.312  -1.142  0.00  0.00    -0.070 A 
ATOM      9  C   LIG    1       -0.412  -4.899   0.059  0.00  0.00    +0.310 A 
ATOM     10  N   LIG    1       -0.347  -4.184   1.167  0.00  0.00    -0.540 NA
ATOM     11  C   LIG    1       -0.602  -2.886   1.171  0.00  0.00    +0.340 A 
BRANCH  11  12
ATOM     12  O   LIG    1       -0.518  -2.189   2.332  0.00  0.00    -0.290 OA
BRANCH  12  13
ATOM     13  C   LIG    1       -0.145  -2.919   3.502  0.00  0.00    +0.170 C 
ATOM     14  C   LIG    1       -1.405  -3.426   4.233  0.00  0.00    +0.000 C 
ATOM     15  C   LIG    1       -1.050  -3.293   5.736  0.00  0.00    +0.020 C 
ATOM     16  C   LIG    1       -0.242  -1.972   5.782  0.00  0.00    +0.020 C 
ATOM     17  C   LIG    1        0.594  -1.995   4.486  0.00  0.00    +0.040 C 
ENDBRANCH  12  13
ENDBRANCH  11  12
ENDBRANCH   5   6
ENDBRANCH   3   5
BRANCH   2  18
ATOM     18  C   LIG    1        1.278   2.115   0.001  0.00  0.00    +0.080 C 
BRANCH  18  19
ATOM     19  C   LIG    1        0.979   3.615   0.012  0.00  0.00    +0.270 C 
ATOM     20  O   LIG    1        0.349   4.007  -1.239  0.00  0.00    -0.300 OA
ATOM     21  C   LIG    1        1.126   4.914  -1.854  0.00  0.00    +0.520 C 
ATOM     22  C   LIG    1        2.329   5.186  -1.047  0.00  0.00    -0.190 A 
ATOM     23  C   LIG    1        3.424   6.030  -1.239  0.00  0.00    +0.110 A 
ATOM     24  C   LIG    1        4.426   6.079  -0.291  0.00  0.00    +0.020 A 
ATOM     25  C   LIG    1        4.351   5.296   0.847  0.00  0.00    +0.060 A 
ATOM     26  C   LIG    1        3.267   4.456   1.045  0.00  0.00    +0.040 A 
ATOM     27  O   LIG    1        0.873   5.436  -2.921  0.00  0.00    -0.450 OA
ATOM     28  C   LIG    1        2.263   4.399   0.108  0.00  0.00    -0.100 A 
ENDBRANCH  18  19
ENDBRANCH   2  18
TORSDOF 6
