REMARK  Name = ZINCqH0000005KGD.0
REMARK                            x       y       z     vdW  Elec       q    Type
REMARK                         _______ _______ _______ _____ _____    ______ ____
ROOT
ATOM      1  C   LIG    1       -7.006  -0.352   4.590  0.00  0.00    +0.290 C 
ENDROOT
BRANCH   1   2
ATOM      2  C   LIG    1       -8.146  -1.290   4.287  0.00  0.00    -0.060 A 
ATOM      3  C   LIG    1       -8.867  -1.145   3.117  0.00  0.00    +0.010 A 
ATOM      4  C   LIG    1       -9.910  -2.007   2.833  0.00  0.00    +0.050 A 
ATOM      5  C   LIG    1      -10.241  -3.010   3.724  0.00  0.00    -0.060 A 
ATOM      6  C   LIG    1       -9.522  -3.154   4.902  0.00  0.00    +0.130 A 
ATOM      7  C   LIG    1       -8.472  -2.291   5.182  0.00  0.00    +0.020 A 
BRANCH   6   8
ATOM      8  O   LIG    1       -9.845  -4.139   5.781  0.00  0.00    -0.310 OA
ATOM      9  C   LIG    1      -10.937  -4.991   5.427  0.00  0.00    +0.250 C 
ENDBRANCH   6   8
ENDBRANCH   1   2
BRANCH   1  10
ATOM     10  C   LIG    1       -7.543   0.898   5.239  0.00  0.00    +0.460 C 
ATOM     11  O   LIG    1       -7.450   1.961   4.673  0.00  0.00    -0.490 OA
BRANCH  10  13
ATOM     12  C   LIG    1       -8.620   2.073   7.011  0.00  0.00    +0.290 C 
ATOM     13  O   LIG    1       -8.126   0.830   6.447  0.00  0.00    -0.350 OA
ENDBRANCH  10  13
ENDBRANCH   1  10
BRANCH   1  14
ATOM     14  O   LIG    1       -6.326  -0.002   3.356  0.00  0.00    -0.320 OA
BRANCH  14  15
ATOM     15  C   LIG    1       -5.010   0.274   3.441  0.00  0.00    +0.520 C 
ATOM     16  O   LIG    1       -4.446   0.224   4.516  0.00  0.00    -0.500 OA
BRANCH  15  17
ATOM     17  C   LIG    1       -4.253   0.637   2.227  0.00  0.00    -0.130 A 
ATOM     18  C   LIG    1       -4.902   0.695   0.990  0.00  0.00    +0.080 A 
ATOM     19  C   LIG    1       -4.194   1.034  -0.141  0.00  0.00    +0.020 A 
ATOM     20  C   LIG    1       -2.832   1.318  -0.046  0.00  0.00    -0.010 A 
ATOM     21  C   LIG    1       -2.050   1.683  -1.245  0.00  0.00    -0.010 C 
ATOM     22  C   LIG    1       -0.728   1.578  -1.219  0.00  0.00    +0.000 C 
ATOM     23  C   LIG    1       -0.013   1.086   0.008  0.00  0.00    +0.060 C 
ATOM     24  C   LIG    1       -0.716   1.573   1.274  0.00  0.00    +0.080 C 
ATOM     25  C   LIG    1       -2.186   1.260   1.194  0.00  0.00    -0.090 A 
ATOM     26  C   LIG    1       -2.887   0.924   2.315  0.00  0.00    +0.090 A 
ENDBRANCH  15  17
ENDBRANCH  14  15
ENDBRANCH   1  14
TORSDOF 7
