REMARK  Name = ZINCnE000000qxyj.1
REMARK                            x       y       z     vdW  Elec       q    Type
REMARK                         _______ _______ _______ _____ _____    ______ ____
ROOT
ATOM      1  N   LIG    1       -0.382   1.770  -0.023  0.00  0.00    -0.480 N 
ATOM      2  C   LIG    1       -0.232   3.109  -0.008  0.00  0.00    +0.400 A 
ATOM      3  N   LIG    1       -0.599   3.576  -1.219  0.00  0.00    -0.380 NA
ATOM      4  N   LIG    1       -0.985   2.475  -1.996  0.00  0.00    -0.310 NA
ATOM      5  S   LIG    1        0.324   4.049   1.311  0.00  0.00    -0.770 S 
ATOM      6  C   LIG    1       -0.846   1.401  -1.271  0.00  0.00    +0.210 A 
ENDROOT
BRANCH   6   7
ATOM      7  C   LIG    1       -1.138   0.018  -1.709  0.00  0.00    +0.010 A 
ATOM      8  C   LIG    1       -1.374  -0.982  -0.765  0.00  0.00    +0.000 A 
ATOM      9  C   LIG    1       -1.652  -2.268  -1.181  0.00  0.00    +0.000 A 
ATOM     10  C   LIG    1       -1.684  -2.570  -2.530  0.00  0.00    -0.090 A 
ATOM     11  C   LIG    1       -1.445  -1.584  -3.472  0.00  0.00    +0.000 A 
ATOM     12  C   LIG    1       -1.982  -3.978  -2.977  0.00  0.00    +0.080 C 
ATOM     13  C   LIG    1       -1.172  -0.293  -3.069  0.00  0.00    +0.050 A 
ENDBRANCH   6   7
BRANCH   1  14
ATOM     14  C   LIG    1       -0.097   0.861   1.090  0.00  0.00    +0.320 C 
BRANCH  14  17
ATOM     15  N   LIG    1       -1.232   0.086   3.146  0.00  0.00    -0.730 N 
ATOM     16  H   LIG    1       -0.435  -0.424   3.359  0.00  0.00    +0.400 HD
ATOM     17  C   LIG    1       -1.300   0.782   1.994  0.00  0.00    +0.510 C 
ATOM     18  O   LIG    1       -2.329   1.345   1.686  0.00  0.00    -0.510 OA
BRANCH  15  19
ATOM     19  C   LIG    1       -2.363   0.098   4.078  0.00  0.00    +0.240 C 
BRANCH  19  20
ATOM     20  C   LIG    1       -1.840   0.168   5.514  0.00  0.00    -0.030 C 
ATOM     21  C   LIG    1       -3.021   0.182   6.486  0.00  0.00    +0.030 C 
ATOM     22  C   LIG    1       -1.016   1.444   5.695  0.00  0.00    +0.020 C 
ENDBRANCH  19  20
BRANCH  19  24
ATOM     23  C   LIG    1       -3.783  -1.204   2.487  0.00  0.00    +0.010 C 
ATOM     24  C   LIG    1       -3.187  -1.178   3.896  0.00  0.00    +0.000 C 
ENDBRANCH  19  24
ENDBRANCH  15  19
ENDBRANCH  14  17
ENDBRANCH   1  14
TORSDOF 6
