REMARK  Name = ZINCrg00000B8Cyb.0
REMARK                            x       y       z     vdW  Elec       q    Type
REMARK                         _______ _______ _______ _____ _____    ______ ____
ROOT
ATOM      1  C   LIG    1       -4.102  -4.170   1.995  0.00  0.00    -0.170 C 
ATOM      2  C   LIG    1       -5.496  -4.765   2.202  0.00  0.00    +0.050 C 
ATOM      3  C   LIG    1       -4.518  -4.679   3.376  0.00  0.00    +0.050 C 
ENDROOT
BRANCH   1   4
ATOM      4  C   LIG    1       -3.087  -5.004   1.210  0.00  0.00    +0.310 C 
BRANCH   4   6
ATOM      5  C   LIG    1       -2.626  -5.577  -1.113  0.00  0.00    +0.570 C 
ATOM      6  N   LIG    1       -3.340  -4.857  -0.225  0.00  0.00    -0.730 N 
ATOM      7  H   LIG    1       -4.021  -4.241  -0.537  0.00  0.00    +0.400 HD
ATOM      8  O   LIG    1       -1.835  -6.414  -0.720  0.00  0.00    -0.540 OA
BRANCH   5  12
ATOM      9  C   LIG    1       -3.177  -4.876  -5.214  0.00  0.00    +0.430 A 
ATOM     10  C   LIG    1       -2.344  -5.925  -4.826  0.00  0.00    -0.110 A 
ATOM     11  C   LIG    1       -2.146  -6.167  -3.493  0.00  0.00    +0.180 A 
ATOM     12  C   LIG    1       -2.803  -5.351  -2.560  0.00  0.00    -0.260 A 
ATOM     13  C   LIG    1       -3.623  -4.319  -3.020  0.00  0.00    +0.350 A 
ATOM     14  N   LIG    1       -3.782  -4.117  -4.311  0.00  0.00    -0.550 NA
BRANCH   9  15
ATOM     15  N   LIG    1       -3.375  -4.625  -6.561  0.00  0.00    -0.840 N 
ATOM     16  H   LIG    1       -2.995  -5.219  -7.226  0.00  0.00    +0.410 HD
ATOM     17  H   LIG    1       -3.894  -3.854  -6.839  0.00  0.00    +0.410 HD
ENDBRANCH   9  15
ENDBRANCH   5  12
ENDBRANCH   4   6
ENDBRANCH   1   4
BRANCH   1  18
ATOM     18  C   LIG    1       -4.002  -2.655   1.801  0.00  0.00    +0.310 C 
BRANCH  18  19
ATOM     19  N   LIG    1       -2.707  -2.184   2.296  0.00  0.00    -0.730 N 
ATOM     20  H   LIG    1       -2.045  -2.821   2.608  0.00  0.00    +0.400 HD
ATOM     21  C   LIG    1       -2.434  -0.864   2.319  0.00  0.00    +0.520 C 
ATOM     22  O   LIG    1       -3.291  -0.062   2.016  0.00  0.00    -0.540 OA
BRANCH  21  23
ATOM     23  C   LIG    1       -1.063  -0.385   2.721  0.00  0.00    -0.010 C 
ATOM     24  C   LIG    1       -0.971   1.126   2.504  0.00  0.00    +0.070 C 
ATOM     25  C   LIG    1        0.397   1.623   3.006  0.00  0.00    +0.010 C 
ATOM     26  C   LIG    1        1.468   0.642   2.476  0.00  0.00    +0.020 C 
ATOM     27  C   LIG    1        1.575  -0.484   3.520  0.00  0.00    +0.010 C 
ATOM     28  C   LIG    1        0.564  -0.137   4.638  0.00  0.00    -0.030 C 
ATOM     29  C   LIG    1        0.431   1.407   4.543  0.00  0.00    +0.160 C 
ATOM     30  C   LIG    1       -0.818  -0.727   4.192  0.00  0.00    +0.040 C 
BRANCH  29  31
ATOM     31  O   LIG    1        1.564   2.055   5.126  0.00  0.00    -0.560 OA
ATOM     32  H   LIG    1        1.628   1.948   6.085  0.00  0.00    +0.380 HD
ENDBRANCH  29  31
ENDBRANCH  21  23
ENDBRANCH  18  19
ENDBRANCH   1  18
TORSDOF 8
