REMARK  Name = ZINCrH000004rMdD.0
REMARK                            x       y       z     vdW  Elec       q    Type
REMARK                         _______ _______ _______ _____ _____    ______ ____
ROOT
ATOM      1  N   LIG    1       -5.814   3.121  -1.498  0.00  0.00    -0.720 N 
ATOM      2  H   LIG    1       -5.621   2.192  -1.700  0.00  0.00    +0.410 HD
ATOM      3  C   LIG    1       -7.037   3.626  -1.751  0.00  0.00    +0.520 C 
ATOM      4  O   LIG    1       -7.278   4.788  -1.499  0.00  0.00    -0.520 OA
ENDROOT
BRANCH   3   5
ATOM      5  C   LIG    1       -8.107   2.748  -2.348  0.00  0.00    +0.180 C 
ATOM      6  C   LIG    1       -7.636   2.222  -3.706  0.00  0.00    +0.030 C 
BRANCH   5   7
ATOM      7  N   LIG    1       -9.339   3.528  -2.526  0.00  0.00    -0.660 NA
ATOM      8  H   LIG    1       -9.298   4.081  -3.368  0.00  0.00    +0.350 HD
BRANCH   7   9
ATOM      9  C   LIG    1      -10.520   2.654  -2.526  0.00  0.00    +0.180 C 
ATOM     10  C   LIG    1      -10.966   2.399  -1.085  0.00  0.00    +0.050 C 
BRANCH   9  11
ATOM     11  C   LIG    1      -11.636   3.319  -3.288  0.00  0.00    -0.080 A 
ATOM     12  C   LIG    1      -11.618   4.686  -3.488  0.00  0.00    +0.040 A 
ATOM     13  C   LIG    1      -12.641   5.296  -4.191  0.00  0.00    +0.020 A 
ATOM     14  C   LIG    1      -13.687   4.540  -4.686  0.00  0.00    +0.020 A 
ATOM     15  C   LIG    1      -13.709   3.173  -4.482  0.00  0.00    +0.020 A 
ATOM     16  C   LIG    1      -12.684   2.562  -3.783  0.00  0.00    -0.030 A 
ATOM     17 CL   LIG    1      -12.711   0.845  -3.526  0.00  0.00    -0.070 Cl
ENDBRANCH   9  11
ENDBRANCH   7   9
ENDBRANCH   5   7
ENDBRANCH   3   5
BRANCH   1  18
ATOM     18  C   LIG    1       -4.774   3.975  -0.918  0.00  0.00    +0.300 C 
BRANCH  18  21
ATOM     19  N   LIG    1       -2.413   3.758  -0.214  0.00  0.00    -0.670 N 
ATOM     20  H   LIG    1       -2.457   4.672   0.109  0.00  0.00    +0.410 HD
ATOM     21  C   LIG    1       -3.510   3.175  -0.736  0.00  0.00    +0.510 C 
ATOM     22  O   LIG    1       -3.481   2.006  -1.059  0.00  0.00    -0.520 OA
BRANCH  19  30
ATOM     23  C   LIG    1       -1.161   2.972  -2.646  0.00  0.00    +0.090 C 
ATOM     24  C   LIG    1       -0.567   2.643  -1.301  0.00  0.00    -0.070 A 
ATOM     25  C   LIG    1        0.617   1.936  -1.222  0.00  0.00    +0.010 A 
ATOM     26  C   LIG    1        1.166   1.638   0.011  0.00  0.00    +0.020 A 
ATOM     27  C   LIG    1        0.529   2.041   1.170  0.00  0.00    +0.010 A 
ATOM     28  C   LIG    1       -0.658   2.744   1.099  0.00  0.00    -0.080 A 
ATOM     29  C   LIG    1       -1.351   3.184   2.363  0.00  0.00    +0.080 C 
ATOM     30  C   LIG    1       -1.211   3.046  -0.138  0.00  0.00    +0.130 A 
ENDBRANCH  19  30
ENDBRANCH  18  21
ENDBRANCH   1  18
TORSDOF 7
