REMARK  Name = ZINCrH000004ssVl.0
REMARK                            x       y       z     vdW  Elec       q    Type
REMARK                         _______ _______ _______ _____ _____    ______ ____
ROOT
ATOM      1  C   LIG    1       -3.389  -2.268  -4.652  0.00  0.00    +0.170 C 
ATOM      2  C   LIG    1       -2.253  -3.178  -4.260  0.00  0.00    +0.150 A 
ATOM      3  C   LIG    1       -1.579  -3.054  -3.090  0.00  0.00    -0.300 A 
ATOM      4  S   LIG    1       -0.341  -4.308  -3.047  0.00  0.00    +0.220 S 
ATOM      5  C   LIG    1       -0.849  -4.874  -4.578  0.00  0.00    +0.020 A 
ATOM      6  N   LIG    1       -1.832  -4.158  -5.021  0.00  0.00    -0.460 NA
ENDROOT
BRANCH   3   7
ATOM      7  C   LIG    1       -1.831  -2.052  -2.049  0.00  0.00    +0.600 C 
ATOM      8  N   LIG    1       -1.020  -1.977  -0.975  0.00  0.00    -0.600 N 
ATOM      9  C   LIG    1        0.039  -2.971  -0.786  0.00  0.00    +0.290 C 
ATOM     10  O   LIG    1       -2.773  -1.288  -2.155  0.00  0.00    -0.520 OA
BRANCH   8  11
ATOM     11  C   LIG    1       -1.198  -0.901   0.004  0.00  0.00    +0.330 C 
ATOM     12  C   LIG    1       -1.354  -1.504   1.401  0.00  0.00    +0.030 C 
BRANCH  11  13
ATOM     13  C   LIG    1        0.007   0.004  -0.021  0.00  0.00    -0.260 A 
ATOM     14  C   LIG    1       -0.014   1.357  -0.026  0.00  0.00    +0.250 A 
ATOM     15  N   LIG    1        1.264   1.788  -0.050  0.00  0.00    -0.370 N 
ATOM     16  N   LIG    1        2.099   0.663  -0.059  0.00  0.00    -0.290 NA
ATOM     17  C   LIG    1        1.702   3.186  -0.063  0.00  0.00    +0.360 C 
ATOM     18  C   LIG    1        1.344  -0.406  -0.042  0.00  0.00    +0.230 A 
ENDBRANCH  11  13
ENDBRANCH   8  11
ENDBRANCH   3   7
BRANCH   5  19
ATOM     19  C   LIG    1       -0.234  -6.038  -5.312  0.00  0.00    +0.330 C 
BRANCH  19  20
ATOM     20  O   LIG    1        0.835  -5.570  -6.137  0.00  0.00    -0.300 OA
BRANCH  20  21
ATOM     21  C   LIG    1        1.500  -6.500  -6.871  0.00  0.00    +0.120 A 
ATOM     22  C   LIG    1        1.135  -7.837  -6.795  0.00  0.00    -0.040 A 
ATOM     23  C   LIG    1        1.809  -8.780  -7.545  0.00  0.00    +0.030 A 
ATOM     24  C   LIG    1        2.855  -8.395  -8.366  0.00  0.00    +0.060 A 
ATOM     25  C   LIG    1        3.224  -7.062  -8.439  0.00  0.00    +0.030 A 
ATOM     26  F   LIG    1        3.517  -9.319  -9.096  0.00  0.00    -0.140 F 
ATOM     27  C   LIG    1        2.549  -6.116  -7.694  0.00  0.00    +0.020 A 
ENDBRANCH  20  21
ENDBRANCH  19  20
ENDBRANCH   5  19
TORSDOF 6
