REMARK  Name = ZINCBI00000008Ky.1
REMARK                            x       y       z     vdW  Elec       q    Type
REMARK                         _______ _______ _______ _____ _____    ______ ____
ROOT
ATOM      1  C   LIG    1       -2.467   5.530  -0.137  0.00  0.00    +0.080 A 
ATOM      2  C   LIG    1       -3.651   6.246  -0.223  0.00  0.00    -0.020 A 
ATOM      3  C   LIG    1       -4.863   5.581  -0.214  0.00  0.00    +0.120 A 
ATOM      4  C   LIG    1       -4.899   4.202  -0.126  0.00  0.00    -0.650 A 
ATOM      5  C   LIG    1       -3.723   3.479  -0.046  0.00  0.00    +0.150 A 
ATOM      6  C   LIG    1       -2.503   4.137  -0.054  0.00  0.00    +0.170 A 
ENDROOT
BRANCH   1  11
ATOM      7  C   LIG    1        1.733   9.182  -0.190  0.00  0.00    +0.330 C 
ATOM      8  N   LIG    1        0.419   8.526  -0.189  0.00  0.00    -0.390 N 
ATOM      9  C   LIG    1        0.308   7.651  -1.363  0.00  0.00    +0.280 C 
ATOM     10  C   LIG    1       -1.069   6.982  -1.373  0.00  0.00    +0.230 C 
ATOM     11  N   LIG    1       -1.239   6.200  -0.140  0.00  0.00    -0.500 N 
ATOM     12  C   LIG    1       -1.106   7.059   1.045  0.00  0.00    +0.220 C 
ATOM     13  C   LIG    1        0.271   7.728   1.035  0.00  0.00    +0.280 C 
ATOM     14  H   LIG    1       -0.306   9.227  -0.222  0.00  0.00    +0.420 HD
ENDBRANCH   1  11
BRANCH   6  15
ATOM     15  N   LIG    1       -1.311   3.407   0.027  0.00  0.00    -0.660 N 
ATOM     16  H   LIG    1       -0.549   3.773   0.504  0.00  0.00    +0.420 HD
ATOM     17  C   LIG    1       -1.221   2.196  -0.558  0.00  0.00    +0.550 C 
ATOM     18  O   LIG    1       -2.200   1.701  -1.086  0.00  0.00    -0.510 OA
BRANCH  17  19
ATOM     19  C   LIG    1        0.052   1.477  -0.558  0.00  0.00    -0.110 C 
ATOM     20  C   LIG    1        0.142   0.264  -1.144  0.00  0.00    +0.160 C 
BRANCH  20  21
ATOM     21  C   LIG    1        1.423  -0.457  -1.149  0.00  0.00    -0.120 A 
ATOM     22  C   LIG    1        2.553   0.115  -0.553  0.00  0.00    +0.070 A 
ATOM     23  C   LIG    1        3.749  -0.567  -0.555  0.00  0.00    -0.060 A 
ATOM     24  C   LIG    1        3.839  -1.815  -1.159  0.00  0.00    +0.130 A 
ATOM     25  C   LIG    1        2.721  -2.385  -1.758  0.00  0.00    +0.000 A 
ATOM     26  C   LIG    1        1.519  -1.714  -1.756  0.00  0.00    +0.090 A 
BRANCH  24  27
ATOM     27  O   LIG    1        5.022  -2.481  -1.164  0.00  0.00    -0.320 OA
BRANCH  27  28
ATOM     28  C   LIG    1        6.130  -1.838  -0.531  0.00  0.00    +0.600 C 
ATOM     29  F   LIG    1        5.831  -1.613   0.817  0.00  0.00    -0.200 F 
ATOM     30  F   LIG    1        6.384  -0.616  -1.163  0.00  0.00    -0.200 F 
ENDBRANCH  27  28
ENDBRANCH  24  27
ENDBRANCH  20  21
ENDBRANCH  17  19
ENDBRANCH   6  15
BRANCH   4  31
ATOM     31  S   LIG    1       -6.449   3.363  -0.116  0.00  0.00    +2.680 S 
ATOM     32  O   LIG    1       -6.192   2.041  -0.570  0.00  0.00    -0.940 OA
ATOM     33  O   LIG    1       -7.380   4.232  -0.744  0.00  0.00    -0.950 OA
BRANCH  31  34
ATOM     34  N   LIG    1       -6.925   3.230   1.465  0.00  0.00    -0.990 NA
ATOM     35  C   LIG    1       -6.544   2.059   2.266  0.00  0.00    +0.290 C 
ATOM     36  C   LIG    1       -5.860   2.548   3.552  0.00  0.00    +0.010 C 
ATOM     37  C   LIG    1       -6.787   3.529   4.274  0.00  0.00    +0.020 C 
ATOM     38  C   LIG    1       -7.049   4.741   3.377  0.00  0.00    +0.010 C 
ATOM     39  C   LIG    1       -7.741   4.279   2.091  0.00  0.00    +0.290 C 
ENDBRANCH  31  34
ENDBRANCH   4  31
TORSDOF 8
