REMARK  Name = ZINCpk00000xI5BL.1
REMARK                            x       y       z     vdW  Elec       q    Type
REMARK                         _______ _______ _______ _____ _____    ______ ____
ROOT
ATOM      1  C   LIG    1       -1.575   1.114  -0.887  0.00  0.00    +0.650 C 
ATOM      2  N   LIG    1       -0.306   0.736  -0.638  0.00  0.00    -0.600 N 
ATOM      3  C   LIG    1        0.745   1.739  -0.416  0.00  0.00    +0.260 C 
ATOM      4  C   LIG    1        1.447   1.432   0.910  0.00  0.00    +0.070 C 
ATOM      5  C   LIG    1        1.943  -0.013   0.899  0.00  0.00    +0.270 C 
ATOM      6  C   LIG    1        2.681  -0.314   2.176  0.00  0.00    -0.030 A 
ATOM      7  C   LIG    1        3.903  -0.889   2.226  0.00  0.00    +0.030 A 
ATOM      8  N   LIG    1        4.246  -1.010   3.512  0.00  0.00    -0.480 NA
ATOM      9  C   LIG    1        3.287  -0.530   4.260  0.00  0.00    +0.400 A 
ATOM     10  C   LIG    1        4.701  -1.296   1.013  0.00  0.00    +0.120 C 
ATOM     11  C   LIG    1        3.760  -1.385  -0.195  0.00  0.00    +0.310 C 
ATOM     12  N   LIG    1        2.292  -0.084   3.459  0.00  0.00    -0.550 N 
ATOM     13  H   LIG    1        1.459   0.322   3.746  0.00  0.00    +0.420 HD
ATOM     14  C   LIG    1        0.763  -0.970   0.740  0.00  0.00    +0.040 C 
ATOM     15  N   LIG    1        2.885  -0.202  -0.215  0.00  0.00    -0.990 NA
ATOM     16  C   LIG    1        0.054  -0.688  -0.589  0.00  0.00    +0.300 C 
ATOM     17  O   LIG    1       -2.434   0.275  -1.074  0.00  0.00    -0.550 OA
ENDROOT
BRANCH  15  18
ATOM     18  S   LIG    1        2.959   0.887  -1.461  0.00  0.00    +2.600 S 
ATOM     19  O   LIG    1        4.156   0.552  -2.149  0.00  0.00    -0.950 OA
ATOM     20  O   LIG    1        2.805   2.151  -0.830  0.00  0.00    -0.940 OA
ATOM     21  C   LIG    1        1.510   0.505  -2.482  0.00  0.00    -0.290 C 
ENDBRANCH  15  18
BRANCH   1  22
ATOM     22  O   LIG    1       -1.891   2.422  -0.930  0.00  0.00    -0.360 OA
BRANCH  22  24
ATOM     23  C   LIG    1       -4.172   2.153  -0.119  0.00  0.00    +0.040 C 
ATOM     24  C   LIG    1       -3.278   2.757  -1.204  0.00  0.00    +0.140 C 
ATOM     25  C   LIG    1       -3.679   2.192  -2.568  0.00  0.00    +0.030 C 
ATOM     26  C   LIG    1       -3.443   4.278  -1.213  0.00  0.00    +0.080 C 
ENDBRANCH  22  24
ENDBRANCH   1  22
TORSDOF 3
