REMARK  Name = ZINCpk00000xI5BL.0
REMARK                            x       y       z     vdW  Elec       q    Type
REMARK                         _______ _______ _______ _____ _____    ______ ____
ROOT
ATOM      1  C   LIG    1       -2.113   2.170   2.031  0.00  0.00    +0.650 C 
ATOM      2  N   LIG    1       -2.260   2.397   3.351  0.00  0.00    -0.600 N 
ATOM      3  C   LIG    1       -3.525   2.921   3.884  0.00  0.00    +0.270 C 
ATOM      4  C   LIG    1       -3.236   4.173   4.709  0.00  0.00    +0.050 C 
ATOM      5  C   LIG    1       -2.186   3.852   5.770  0.00  0.00    +0.280 C 
ATOM      6  C   LIG    1       -1.927   5.069   6.622  0.00  0.00    +0.000 A 
ATOM      7  C   LIG    1       -2.338   5.184   7.904  0.00  0.00    -0.010 A 
ATOM      8  N   LIG    1       -1.934   6.409   8.343  0.00  0.00    -0.560 N 
ATOM      9  H   LIG    1       -2.085   6.784   9.224  0.00  0.00    +0.420 HD
ATOM     10  C   LIG    1       -1.283   7.003   7.316  0.00  0.00    +0.390 A 
ATOM     11  C   LIG    1       -3.098   4.127   8.662  0.00  0.00    +0.120 C 
ATOM     12  C   LIG    1       -3.702   3.135   7.660  0.00  0.00    +0.310 C 
ATOM     13  N   LIG    1       -1.285   6.191   6.291  0.00  0.00    -0.470 NA
ATOM     14  C   LIG    1       -0.889   3.398   5.104  0.00  0.00    +0.090 C 
ATOM     15  N   LIG    1       -2.687   2.787   6.654  0.00  0.00    -0.990 NA
ATOM     16  C   LIG    1       -1.155   2.132   4.283  0.00  0.00    +0.280 C 
ATOM     17  O   LIG    1       -1.060   1.741   1.601  0.00  0.00    -0.560 OA
ENDROOT
BRANCH  15  18
ATOM     18  S   LIG    1       -2.122   1.236   6.518  0.00  0.00    +2.600 S 
ATOM     19  O   LIG    1       -2.571   0.595   7.704  0.00  0.00    -0.960 OA
ATOM     20  O   LIG    1       -0.736   1.391   6.249  0.00  0.00    -0.940 OA
ATOM     21  C   LIG    1       -2.982   0.566   5.068  0.00  0.00    -0.290 C 
ENDBRANCH  15  18
BRANCH   1  22
ATOM     22  O   LIG    1       -3.133   2.417   1.188  0.00  0.00    -0.360 OA
BRANCH  22  24
ATOM     23  C   LIG    1       -2.565   0.669  -0.409  0.00  0.00    +0.030 C 
ATOM     24  C   LIG    1       -2.905   2.148  -0.221  0.00  0.00    +0.140 C 
ATOM     25  C   LIG    1       -4.167   2.487  -1.016  0.00  0.00    +0.080 C 
ATOM     26  C   LIG    1       -1.741   3.007  -0.721  0.00  0.00    +0.040 C 
ENDBRANCH  22  24
ENDBRANCH   1  22
TORSDOF 3
