REMARK  Name = ZINCpe000000WfoI.0
REMARK                            x       y       z     vdW  Elec       q    Type
REMARK                         _______ _______ _______ _____ _____    ______ ____
ROOT
ATOM      1  C   LIG    1        1.641  -4.024   1.115  0.00  0.00    +0.530 C 
ATOM      2  O   LIG    1        2.271  -4.232   0.097  0.00  0.00    -0.490 OA
ENDROOT
BRANCH   1  12
ATOM      3  C   LIG    1        3.356  -5.227   2.473  0.00  0.00    +0.300 A 
ATOM      4  C   LIG    1        3.789  -5.672   3.734  0.00  0.00    -0.260 A 
ATOM      5  C   LIG    1        4.919  -6.395   4.181  0.00  0.00    +0.310 A 
ATOM      6  N   LIG    1        4.830  -6.542   5.471  0.00  0.00    -0.240 NA
ATOM      7  N   LIG    1        3.659  -5.934   5.936  0.00  0.00    -0.380 N 
ATOM      8  C   LIG    1        3.211  -5.889   7.331  0.00  0.00    +0.370 C 
ATOM      9  C   LIG    1        3.003  -5.391   4.868  0.00  0.00    +0.350 A 
ATOM     10  N   LIG    1        1.864  -4.713   4.748  0.00  0.00    -0.510 NA
ATOM     11  C   LIG    1        1.432  -4.277   3.588  0.00  0.00    +0.420 A 
ATOM     12  C   LIG    1        2.147  -4.517   2.407  0.00  0.00    -0.250 A 
BRANCH   3  14
ATOM     13  C   LIG    1        5.062  -4.505   0.991  0.00  0.00    +0.270 C 
ATOM     14  O   LIG    1        4.082  -5.477   1.358  0.00  0.00    -0.320 OA
ENDBRANCH   3  14
ENDBRANCH   1  12
BRANCH   1  15
ATOM     15  O   LIG    1        0.479  -3.343   1.062  0.00  0.00    -0.340 OA
BRANCH  15  16
ATOM     16  C   LIG    1        0.041  -2.888  -0.245  0.00  0.00    +0.320 C 
BRANCH  16  17
ATOM     17  C   LIG    1       -1.266  -2.151  -0.108  0.00  0.00    +0.180 A 
ATOM     18  N   LIG    1       -2.399  -2.785  -0.329  0.00  0.00    -0.470 NA
ATOM     19  C   LIG    1       -3.567  -2.181  -0.228  0.00  0.00    +0.300 A 
ATOM     20  C   LIG    1       -3.653  -0.846   0.125  0.00  0.00    -0.020 A 
ATOM     21  C   LIG    1       -2.491  -0.136   0.374  0.00  0.00    +0.100 A 
ATOM     22  C   LIG    1       -1.267  -0.804   0.258  0.00  0.00    -0.170 A 
BRANCH  22  23
ATOM     23  C   LIG    1        0.005  -0.094   0.512  0.00  0.00    +0.570 C 
ATOM     24  O   LIG    1        1.054  -0.709   0.517  0.00  0.00    -0.520 OA
ATOM     25  N   LIG    1        0.001   1.234   0.739  0.00  0.00    -0.850 N 
ATOM     26  H   LIG    1       -0.836   1.725   0.731  0.00  0.00    +0.400 HD
ATOM     27  H   LIG    1        0.835   1.700   0.906  0.00  0.00    +0.410 HD
ENDBRANCH  22  23
ENDBRANCH  16  17
ENDBRANCH  15  16
ENDBRANCH   1  15
TORSDOF 6
