REMARK  Name = ZINCpk000005ZDxa.1
REMARK                            x       y       z     vdW  Elec       q    Type
REMARK                         _______ _______ _______ _____ _____    ______ ____
ROOT
ATOM      1  N   LIG    1       -3.102   0.717   1.629  0.00  0.00    -1.060 N 
ATOM      2  H   LIG    1       -2.594   0.006   2.049  0.00  0.00    +0.430 HD
ENDROOT
BRANCH   1  11
ATOM      3  O   LIG    1       -4.188   6.404   4.236  0.00  0.00    -0.530 OA
ATOM      4  C   LIG    1       -4.516   5.290   4.596  0.00  0.00    +0.560 C 
ATOM      5  N   LIG    1       -5.237   5.123   5.723  0.00  0.00    -0.730 N 
ATOM      6  H   LIG    1       -5.527   5.902   6.223  0.00  0.00    +0.410 HD
ATOM      7  C   LIG    1       -5.590   3.790   6.204  0.00  0.00    +0.270 C 
ATOM      8  C   LIG    1       -5.919   2.856   5.041  0.00  0.00    +0.090 C 
ATOM      9  C   LIG    1       -4.813   2.902   4.019  0.00  0.00    -0.040 A 
ATOM     10  C   LIG    1       -4.472   1.783   3.299  0.00  0.00    +0.020 A 
ATOM     11  C   LIG    1       -3.447   1.850   2.358  0.00  0.00    +0.150 A 
ATOM     12  C   LIG    1       -2.763   3.044   2.148  0.00  0.00    +0.040 A 
ATOM     13  C   LIG    1       -3.104   4.171   2.864  0.00  0.00    +0.110 A 
ATOM     14  C   LIG    1       -4.130   4.105   3.807  0.00  0.00    -0.130 A 
ENDBRANCH   1  11
BRANCH   1  15
ATOM     15  S   LIG    1       -3.558   0.583   0.042  0.00  0.00    +2.690 S 
ATOM     16  O   LIG    1       -3.198   1.806  -0.584  0.00  0.00    -0.930 OA
ATOM     17  O   LIG    1       -3.094  -0.685  -0.403  0.00  0.00    -0.940 OA
BRANCH  15  18
ATOM     18  C   LIG    1       -5.319   0.507   0.011  0.00  0.00    -0.700 A 
ATOM     19  C   LIG    1       -6.056   1.658  -0.193  0.00  0.00    +0.210 A 
ATOM     20  C   LIG    1       -7.437   1.597  -0.224  0.00  0.00    +0.000 A 
ATOM     21  C   LIG    1       -8.080   0.387  -0.044  0.00  0.00    +0.200 A 
ATOM     22  C   LIG    1       -7.342  -0.763   0.165  0.00  0.00    -0.720 A 
ATOM     23  C   LIG    1       -5.962  -0.703   0.196  0.00  0.00    +0.250 A 
BRANCH  22  24
ATOM     24  S   LIG    1       -8.162  -2.306   0.394  0.00  0.00    +2.670 S 
ATOM     25  F   LIG    1       -8.340  -2.971  -1.061  0.00  0.00    -0.470 F 
ATOM     26  O   LIG    1       -9.470  -2.001   0.858  0.00  0.00    -0.920 OA
ATOM     27  O   LIG    1       -7.259  -3.138   1.108  0.00  0.00    -0.920 OA
ENDBRANCH  22  24
ENDBRANCH  15  18
ENDBRANCH   1  15
TORSDOF 4
