REMARK  Name = ZINCBu00000008Gn.0
REMARK                            x       y       z     vdW  Elec       q    Type
REMARK                         _______ _______ _______ _____ _____    ______ ____
ROOT
ATOM      1  C   LIG    1        2.782  -4.359  -4.268  0.00  0.00    -0.090 C 
ATOM      2  C   LIG    1        2.862  -5.517  -4.092  0.00  0.00    -0.180 C 
ENDROOT
BRANCH   1   6
ATOM      3  N   LIG    1        1.685  -1.027  -1.416  0.00  0.00    -0.610 N 
ATOM      4  C   LIG    1        1.982  -2.344  -1.990  0.00  0.00    +0.320 C 
ATOM      5  C   LIG    1        2.324  -2.105  -3.439  0.00  0.00    -0.060 A 
ATOM      6  C   LIG    1        2.685  -2.947  -4.483  0.00  0.00    +0.020 A 
ATOM      7  C   LIG    1        2.953  -2.408  -5.745  0.00  0.00    +0.080 A 
ATOM      8  C   LIG    1        2.857  -1.046  -5.949  0.00  0.00    +0.030 A 
ATOM      9  C   LIG    1        2.499  -0.205  -4.913  0.00  0.00    +0.120 A 
ATOM     10  C   LIG    1        2.228  -0.729  -3.647  0.00  0.00    -0.150 A 
ATOM     11  C   LIG    1        1.831  -0.096  -2.374  0.00  0.00    +0.570 C 
ATOM     12  O   LIG    1        1.661   1.097  -2.216  0.00  0.00    -0.500 OA
BRANCH   3  17
ATOM     13  O   LIG    1        0.244  -4.478   1.249  0.00  0.00    -0.490 OA
ATOM     14  C   LIG    1        0.560  -3.373   0.865  0.00  0.00    +0.520 C 
ATOM     15  C   LIG    1       -0.362  -2.620  -0.057  0.00  0.00    +0.080 C 
ATOM     16  C   LIG    1       -0.181  -1.115   0.167  0.00  0.00    +0.070 C 
ATOM     17  C   LIG    1        1.299  -0.768  -0.026  0.00  0.00    +0.300 C 
ATOM     18  C   LIG    1        2.131  -1.621   0.894  0.00  0.00    +0.520 C 
ATOM     19  O   LIG    1        3.190  -1.196   1.304  0.00  0.00    -0.470 OA
ATOM     20  N   LIG    1        1.724  -2.843   1.270  0.00  0.00    -0.670 N 
ATOM     21  H   LIG    1        2.295  -3.365   1.855  0.00  0.00    +0.420 HD
ENDBRANCH   3  17
ENDBRANCH   1   6
BRANCH   2  22
ATOM     22  C   LIG    1        2.962  -6.969  -3.871  0.00  0.00    +0.140 C 
ATOM     23  C   LIG    1        1.606  -7.511  -3.411  0.00  0.00    +0.070 C 
ATOM     24  C   LIG    1        1.737  -9.005  -3.105  0.00  0.00    +0.260 C 
ATOM     25  N   LIG    1        2.733  -9.207  -2.046  0.00  0.00    -0.380 N 
ATOM     26  C   LIG    1        4.051  -8.755  -2.509  0.00  0.00    +0.260 C 
ATOM     27  H   LIG    1        2.465  -8.678  -1.230  0.00  0.00    +0.420 HD
ATOM     28  C   LIG    1        4.009  -7.252  -2.789  0.00  0.00    +0.070 C 
BRANCH  25  29
ATOM     29  C   LIG    1        2.799 -10.634  -1.703  0.00  0.00    +0.330 C 
BRANCH  29  30
ATOM     30  C   LIG    1        1.483 -11.070  -1.113  0.00  0.00    -0.160 A 
ATOM     31  C   LIG    1        1.280 -10.995   0.252  0.00  0.00    +0.050 A 
ATOM     32  C   LIG    1        0.072 -11.389   0.796  0.00  0.00    +0.040 A 
ATOM     33  C   LIG    1       -0.935 -11.873  -0.025  0.00  0.00    +0.090 A 
ATOM     34  O   LIG    1       -2.115 -12.267   0.526  0.00  0.00    -0.300 OA
ATOM     35  C   LIG    1       -3.231 -12.393  -0.363  0.00  0.00    +0.240 C 
ATOM     36  C   LIG    1       -2.767 -13.160  -1.608  0.00  0.00    +0.240 C 
ATOM     37  O   LIG    1       -1.706 -12.421  -2.222  0.00  0.00    -0.300 OA
ATOM     38  C   LIG    1       -0.729 -11.954  -1.397  0.00  0.00    +0.060 A 
ATOM     39  C   LIG    1        0.483 -11.551  -1.938  0.00  0.00    +0.050 A 
ENDBRANCH  29  30
ENDBRANCH  25  29
ENDBRANCH   2  22
TORSDOF 5
