REMARK  Name = ZINCqH0000007Tav.0
REMARK                            x       y       z     vdW  Elec       q    Type
REMARK                         _______ _______ _______ _____ _____    ______ ____
ROOT
ATOM      1  C   LIG    1       -2.003   2.479   3.497  0.00  0.00    +0.390 C 
ENDROOT
BRANCH   1   7
ATOM      2  C   LIG    1       -0.795   2.893   1.339  0.00  0.00    +0.170 A 
ATOM      3  C   LIG    1       -0.263   3.752   0.388  0.00  0.00    -0.080 A 
ATOM      4  C   LIG    1       -0.376   5.119   0.553  0.00  0.00    +0.060 A 
ATOM      5  C   LIG    1       -1.010   5.631   1.670  0.00  0.00    -0.030 A 
ATOM      6  C   LIG    1       -1.536   4.777   2.622  0.00  0.00    +0.040 A 
ATOM      7  C   LIG    1       -1.430   3.410   2.459  0.00  0.00    -0.120 A 
BRANCH   2   9
ATOM      8  C   LIG    1       -0.022   1.087  -0.001  0.00  0.00    +0.240 C 
ATOM      9  O   LIG    1       -0.689   1.548   1.176  0.00  0.00    -0.290 OA
ENDBRANCH   2   9
ENDBRANCH   1   7
BRANCH   1  10
ATOM     10  C   LIG    1       -0.923   2.086   4.470  0.00  0.00    +0.130 A 
ATOM     11  C   LIG    1       -1.114   2.292   5.823  0.00  0.00    -0.030 A 
ATOM     12  C   LIG    1       -0.113   1.926   6.710  0.00  0.00    +0.050 A 
ATOM     13  C   LIG    1        1.047   1.364   6.201  0.00  0.00    -0.050 A 
ATOM     14  C   LIG    1        1.167   1.188   4.835  0.00  0.00    +0.260 A 
ATOM     15  N   LIG    1        0.193   1.543   4.021  0.00  0.00    -0.460 NA
ENDBRANCH   1  10
BRANCH   1  16
ATOM     16  N   LIG    1       -3.085   3.157   4.216  0.00  0.00    -0.740 N 
ATOM     17  H   LIG    1       -3.100   4.126   4.268  0.00  0.00    +0.400 HD
ATOM     18  C   LIG    1       -4.059   2.435   4.805  0.00  0.00    +0.690 C 
ATOM     19  N   LIG    1       -5.053   3.059   5.467  0.00  0.00    -0.670 N 
ATOM     20  H   LIG    1       -5.030   4.022   5.582  0.00  0.00    +0.410 HD
ATOM     21  O   LIG    1       -4.039   1.222   4.740  0.00  0.00    -0.510 OA
BRANCH  19  22
ATOM     22  C   LIG    1       -6.116   2.320   5.985  0.00  0.00    +0.380 A 
ATOM     23  C   LIG    1       -7.190   2.978   6.572  0.00  0.00    -0.080 A 
ATOM     24  C   LIG    1       -8.242   2.233   7.077  0.00  0.00    +0.100 A 
ATOM     25  C   LIG    1       -8.176   0.850   6.987  0.00  0.00    -0.070 A 
ATOM     26  C   LIG    1       -7.075   0.262   6.396  0.00  0.00    +0.160 A 
ATOM     27  C   LIG    1       -6.997  -1.239   6.295  0.00  0.00    +0.130 C 
ATOM     28  N   LIG    1       -6.090   0.999   5.918  0.00  0.00    -0.470 NA
ENDBRANCH  19  22
ENDBRANCH   1  16
TORSDOF 5
