REMARK  Name = ZINCvU000000049B.0
REMARK                            x       y       z     vdW  Elec       q    Type
REMARK                         _______ _______ _______ _____ _____    ______ ____
ROOT
ATOM      1  N   LIG    1      -10.742   0.150   0.941  0.00  0.00    -0.660 N 
ATOM      2  H   LIG    1      -10.349   0.439   1.780  0.00  0.00    +0.400 HD
ATOM      3  C   LIG    1      -10.154   0.477  -0.227  0.00  0.00    +0.720 C 
ATOM      4  N   LIG    1       -8.966   1.114  -0.228  0.00  0.00    -0.620 N 
ATOM      5  C   LIG    1       -8.261   1.379  -1.489  0.00  0.00    +0.320 C 
ATOM      6  C   LIG    1       -6.837   0.824  -1.384  0.00  0.00    +0.030 C 
ATOM      7  C   LIG    1       -6.154   1.411  -0.146  0.00  0.00    +0.100 C 
ATOM      8  C   LIG    1       -6.928   0.999   1.108  0.00  0.00    +0.040 C 
ATOM      9  C   LIG    1       -8.352   1.556   1.032  0.00  0.00    +0.270 C 
ATOM     10  O   LIG    1      -10.695   0.198  -1.279  0.00  0.00    -0.550 OA
ENDROOT
BRANCH   1  15
ATOM     11  N   LIG    1      -12.606  -1.000   2.056  0.00  0.00    -0.440 N 
ATOM     12  C   LIG    1      -13.701  -1.720   1.695  0.00  0.00    +0.250 A 
ATOM     13  C   LIG    1      -13.734  -1.800   0.332  0.00  0.00    -0.110 A 
ATOM     14  C   LIG    1      -12.563  -1.061  -0.153  0.00  0.00    +0.020 A 
ATOM     15  C   LIG    1      -11.917  -0.606   0.944  0.00  0.00    +0.270 A 
BRANCH  11  17
ATOM     16  C   LIG    1      -13.239  -1.306   4.398  0.00  0.00    +0.060 C 
ATOM     17  C   LIG    1      -12.220  -0.693   3.435  0.00  0.00    +0.150 C 
ATOM     18  C   LIG    1      -12.184   0.824   3.629  0.00  0.00    +0.050 C 
ATOM     19  C   LIG    1      -10.835  -1.277   3.720  0.00  0.00    +0.050 C 
ENDBRANCH  11  17
BRANCH  13  20
ATOM     20  C   LIG    1      -14.719  -2.467  -0.466  0.00  0.00    +0.290 C 
ATOM     21  N   LIG    1      -15.501  -2.996  -1.098  0.00  0.00    -0.440 NA
ENDBRANCH  13  20
ENDBRANCH   1  15
BRANCH   7  22
ATOM     22  C   LIG    1       -4.742   0.893  -0.059  0.00  0.00    +0.060 A 
ATOM     23  N   LIG    1       -3.688   1.632  -0.066  0.00  0.00    -0.460 NA
ATOM     24  C   LIG    1       -2.517   1.015   0.015  0.00  0.00    +0.100 A 
ATOM     25  C   LIG    1       -2.608  -0.328   0.106  0.00  0.00    -0.060 A 
ATOM     26  S   LIG    1       -4.316  -0.757   0.073  0.00  0.00    +0.150 S 
BRANCH  24  27
ATOM     27  C   LIG    1       -1.223   1.738   0.013  0.00  0.00    +0.020 A 
ATOM     28  C   LIG    1       -0.010   1.040   0.002  0.00  0.00    -0.020 A 
ATOM     29  C   LIG    1        1.171   1.752  -0.005  0.00  0.00    +0.260 A 
ATOM     30  N   LIG    1        1.167   3.072   0.004  0.00  0.00    -0.480 NA
ATOM     31  C   LIG    1        0.045   3.768   0.020  0.00  0.00    +0.260 A 
ATOM     32  C   LIG    1       -1.180   3.136   0.028  0.00  0.00    +0.000 A 
ENDBRANCH  24  27
ENDBRANCH   7  22
TORSDOF 5
