REMARK  Name = ZINCpk00000KfLov.0
REMARK                            x       y       z     vdW  Elec       q    Type
REMARK                         _______ _______ _______ _____ _____    ______ ____
ROOT
ATOM      1  O   LIG    1        0.813   2.543  -2.255  0.00  0.00    -0.460 OA
ATOM      2  C   LIG    1        1.446   1.936  -3.098  0.00  0.00    +0.570 C 
ATOM      3  N   LIG    1        2.793   1.978  -3.089  0.00  0.00    -0.620 N 
ATOM      4  C   LIG    1        3.683   1.389  -4.110  0.00  0.00    +0.240 C 
ATOM      5  C   LIG    1        4.998   2.202  -4.006  0.00  0.00    +0.040 C 
ATOM      6  C   LIG    1        5.098   2.439  -2.476  0.00  0.00    +0.040 C 
ATOM      7  C   LIG    1        3.623   2.617  -2.057  0.00  0.00    +0.220 C 
ENDROOT
BRANCH   2   8
ATOM      8  C   LIG    1        0.740   1.154  -4.129  0.00  0.00    -0.150 A 
ATOM      9  C   LIG    1        1.270  -0.054  -4.595  0.00  0.00    +0.090 A 
ATOM     10  C   LIG    1        0.568  -0.750  -5.563  0.00  0.00    -0.040 A 
ATOM     11  C   LIG    1       -0.625  -0.238  -6.040  0.00  0.00    +0.290 A 
ATOM     12  N   LIG    1       -1.109   0.902  -5.588  0.00  0.00    -0.510 NA
ATOM     13  C   LIG    1       -0.481   1.607  -4.659  0.00  0.00    +0.340 A 
BRANCH  13  14
ATOM     14  N   LIG    1       -1.027   2.795  -4.211  0.00  0.00    -0.470 N 
ATOM     15  C   LIG    1       -2.369   2.580  -3.650  0.00  0.00    +0.170 C 
ATOM     16  C   LIG    1       -2.911   3.907  -3.113  0.00  0.00    +0.240 C 
ATOM     17  O   LIG    1       -2.913   4.876  -4.165  0.00  0.00    -0.380 OA
ATOM     18  C   LIG    1       -1.621   5.111  -4.733  0.00  0.00    +0.230 C 
ATOM     19  C   LIG    1       -1.066   3.796  -5.287  0.00  0.00    +0.170 C 
ENDBRANCH  13  14
ENDBRANCH   2   8
BRANCH   7  20
ATOM     20  C   LIG    1        3.382   1.944  -0.704  0.00  0.00    +0.310 C 
BRANCH  20  21
ATOM     21  N   LIG    1        2.037   2.274  -0.228  0.00  0.00    -0.360 N 
ATOM     22  C   LIG    1        1.081   1.390   0.127  0.00  0.00    +0.200 A 
ATOM     23  C   LIG    1       -0.012   2.092   0.502  0.00  0.00    -0.130 A 
ATOM     24  C   LIG    1        0.288   3.453   0.380  0.00  0.00    +0.220 A 
ATOM     25  N   LIG    1        1.515   3.563  -0.060  0.00  0.00    -0.270 NA
ENDBRANCH  20  21
ENDBRANCH   7  20
TORSDOF 4
