REMARK  Name = ZINCrH000004pllU.0
REMARK                            x       y       z     vdW  Elec       q    Type
REMARK                         _______ _______ _______ _____ _____    ______ ____
ROOT
ATOM      1  C   LIG    1        1.230  -2.184  -0.022  0.00  0.00    +0.070 C 
ENDROOT
BRANCH   1   2
ATOM      2  C   LIG    1        1.208  -0.677  -0.013  0.00  0.00    -0.040 A 
ATOM      3  C   LIG    1        2.396   0.030  -0.021  0.00  0.00    -0.020 A 
ATOM      4  C   LIG    1        2.380   1.413  -0.013  0.00  0.00    +0.050 A 
ATOM      5  C   LIG    1        1.177   2.091   0.002  0.00  0.00    -0.080 A 
ATOM      6  C   LIG    1       -0.017   1.383   0.010  0.00  0.00    +0.130 A 
ATOM      7  C   LIG    1        0.002  -0.004   0.002  0.00  0.00    -0.020 A 
BRANCH   6   8
ATOM      8  O   LIG    1       -1.202   2.047   0.019  0.00  0.00    -0.310 OA
BRANCH   8   9
ATOM      9  C   LIG    1       -1.145   3.475   0.026  0.00  0.00    +0.240 C 
BRANCH   9  10
ATOM     10  C   LIG    1       -2.545   4.034   0.036  0.00  0.00    -0.100 A 
ATOM     11  C   LIG    1       -3.191   4.302  -1.157  0.00  0.00    +0.020 A 
ATOM     12  C   LIG    1       -4.476   4.809  -1.148  0.00  0.00    +0.010 A 
ATOM     13  C   LIG    1       -5.113   5.059   0.054  0.00  0.00    +0.020 A 
ATOM     14  C   LIG    1       -4.465   4.796   1.246  0.00  0.00    +0.010 A 
ATOM     15  C   LIG    1       -3.181   4.283   1.238  0.00  0.00    +0.020 A 
ENDBRANCH   9  10
ENDBRANCH   8   9
ENDBRANCH   6   8
ENDBRANCH   1   2
BRANCH   1  16
ATOM     16  C   LIG    1        1.223  -2.686  -1.467  0.00  0.00    +0.280 C 
BRANCH  16  20
ATOM     17  N   LIG    1        1.261  -6.165  -2.655  0.00  0.00    -0.740 N 
ATOM     18  H   LIG    1        1.276  -6.655  -1.818  0.00  0.00    +0.410 HD
ATOM     19  C   LIG    1        1.242  -4.818  -2.647  0.00  0.00    +0.710 C 
ATOM     20  N   LIG    1        1.244  -4.151  -1.476  0.00  0.00    -0.750 N 
ATOM     21  H   LIG    1        1.259  -4.641  -0.639  0.00  0.00    +0.400 HD
ATOM     22  O   LIG    1        1.224  -4.204  -3.696  0.00  0.00    -0.590 OA
BRANCH  17  24
ATOM     23  C   LIG    1        2.694  -7.014  -4.446  0.00  0.00    +0.050 C 
ATOM     24  C   LIG    1        1.260  -6.891  -3.928  0.00  0.00    +0.360 C 
BRANCH  24  25
ATOM     25  C   LIG    1        0.680  -8.267  -3.721  0.00  0.00    +0.020 A 
ATOM     26  C   LIG    1        0.090  -8.989  -4.702  0.00  0.00    -0.090 A 
ATOM     27  S   LIG    1       -0.376 -10.452  -3.924  0.00  0.00    +0.450 S 
ATOM     28  N   LIG    1        0.167 -10.062  -2.509  0.00  0.00    -0.280 NA
ATOM     29  N   LIG    1        0.688  -8.898  -2.565  0.00  0.00    -0.240 NA
ENDBRANCH  24  25
ENDBRANCH  17  24
ENDBRANCH  16  20
ENDBRANCH   1  16
TORSDOF 8
