REMARK  Name = ZINCnE000001ItpE.0
REMARK                            x       y       z     vdW  Elec       q    Type
REMARK                         _______ _______ _______ _____ _____    ______ ____
ROOT
ATOM      1  C   LIG    1       -0.212   4.221   0.216  0.00  0.00    +0.280 C 
ATOM      2  N   LIG    1       -1.169   3.229   0.716  0.00  0.00    -0.570 N 
ATOM      3  C   LIG    1       -1.900   3.494   1.817  0.00  0.00    +0.510 C 
ATOM      4  O   LIG    1       -2.692   2.673   2.230  0.00  0.00    -0.550 OA
ENDROOT
BRANCH   2   5
ATOM      5  C   LIG    1       -1.330   1.951   0.019  0.00  0.00    +0.180 C 
BRANCH   5   6
ATOM      6  C   LIG    1       -0.015   1.215   0.009  0.00  0.00    +0.490 C 
ATOM      7  O   LIG    1        1.033   1.839   0.002  0.00  0.00    -0.680 OA
ATOM      8  O   LIG    1        0.002  -0.004   0.002  0.00  0.00    -0.690 OA
ENDBRANCH   5   6
BRANCH   5   9
ATOM      9  C   LIG    1       -1.782   2.208  -1.420  0.00  0.00    +0.070 C 
BRANCH   9  10
ATOM     10  C   LIG    1       -3.153   2.833  -1.412  0.00  0.00    -0.060 A 
ATOM     11  C   LIG    1       -4.278   2.031  -1.452  0.00  0.00    +0.010 A 
ATOM     12  C   LIG    1       -5.536   2.604  -1.440  0.00  0.00    +0.000 A 
ATOM     13  C   LIG    1       -5.668   3.979  -1.398  0.00  0.00    -0.020 A 
ATOM     14  C   LIG    1       -4.543   4.781  -1.363  0.00  0.00    -0.010 A 
ATOM     15  C   LIG    1       -3.285   4.208  -1.370  0.00  0.00    +0.000 A 
ENDBRANCH   9  10
ENDBRANCH   5   9
ENDBRANCH   2   5
BRANCH   3  16
ATOM     16  C   LIG    1       -1.734   4.809   2.533  0.00  0.00    +0.050 C 
BRANCH  16  17
ATOM     17  C   LIG    1       -2.674   4.854   3.740  0.00  0.00    +0.130 C 
BRANCH  17  18
ATOM     18  C   LIG    1       -2.508   6.169   4.457  0.00  0.00    -0.150 A 
ATOM     19  C   LIG    1       -3.203   7.278   4.199  0.00  0.00    +0.010 A 
ATOM     20  C   LIG    1       -2.877   8.368   4.988  0.00  0.00    +0.040 A 
ATOM     21  C   LIG    1       -1.916   8.143   5.887  0.00  0.00    -0.160 A 
ATOM     22 CL   LIG    1       -1.300   9.316   7.009  0.00  0.00    -0.020 Cl
ATOM     23  S   LIG    1       -1.374   6.474   5.766  0.00  0.00    +0.150 S 
ENDBRANCH  17  18
ENDBRANCH  16  17
ENDBRANCH   3  16
TORSDOF 7
