REMARK  Name = ZINCah0000002rKx.0
REMARK                            x       y       z     vdW  Elec       q    Type
REMARK                         _______ _______ _______ _____ _____    ______ ____
ROOT
ATOM      1  C   LIG    1        0.731  -0.503   1.223  0.00  0.00    +0.190 A 
ATOM      2  N   LIG    1        2.024  -0.487   1.396  0.00  0.00    -0.470 NA
ATOM      3  C   LIG    1        2.316  -1.006   2.599  0.00  0.00    +0.190 A 
ATOM      4  C   LIG    1        1.159  -1.366   3.189  0.00  0.00    +0.010 A 
ATOM      5 CL   LIG    1        0.980  -2.094   4.755  0.00  0.00    -0.000 Cl
ATOM      6  N   LIG    1        0.154  -1.048   2.317  0.00  0.00    -0.450 N 
ATOM      7  C   LIG    1       -1.280  -1.258   2.530  0.00  0.00    +0.340 C 
ENDROOT
BRANCH   1   9
ATOM      8  C   LIG    1       -0.019   1.526   0.010  0.00  0.00    +0.040 C 
ATOM      9  C   LIG    1        0.002  -0.004   0.002  0.00  0.00    +0.300 C 
BRANCH   9  10
ATOM     10  O   LIG    1        0.671  -0.465  -1.174  0.00  0.00    -0.540 OA
ATOM     11  H   LIG    1        1.588  -0.167  -1.247  0.00  0.00    +0.390 HD
ENDBRANCH   9  10
ENDBRANCH   1   9
TORSDOF 2
