REMARK  Name = ZINCvU0000000ATK.0
REMARK                            x       y       z     vdW  Elec       q    Type
REMARK                         _______ _______ _______ _____ _____    ______ ____
ROOT
ATOM      1  C   LIG    1       -1.565   4.020  -1.901  0.00  0.00    +0.280 C 
ATOM      2  N   LIG    1       -2.051   2.680  -1.563  0.00  0.00    -0.620 N 
ATOM      3  C   LIG    1       -2.766   1.976  -2.463  0.00  0.00    +0.710 C 
ATOM      4  N   LIG    1       -3.034   2.504  -3.673  0.00  0.00    -0.680 N 
ATOM      5  H   LIG    1       -2.646   3.356  -3.927  0.00  0.00    +0.410 HD
ATOM      6  O   LIG    1       -3.170   0.864  -2.182  0.00  0.00    -0.560 OA
ENDROOT
BRANCH   4   7
ATOM      7  C   LIG    1       -3.875   1.823  -4.564  0.00  0.00    +0.090 A 
ATOM      8  C   LIG    1       -4.953   1.080  -4.089  0.00  0.00    +0.110 A 
ATOM      9  C   LIG    1       -5.756   0.425  -5.006  0.00  0.00    -0.010 A 
ATOM     10  C   LIG    1       -5.463   0.528  -6.359  0.00  0.00    +0.300 A 
ATOM     11  N   LIG    1       -4.431   1.243  -6.775  0.00  0.00    -0.510 NA
ATOM     12  C   LIG    1       -3.647   1.886  -5.931  0.00  0.00    +0.280 A 
BRANCH  10  13
ATOM     13  O   LIG    1       -6.245  -0.112  -7.266  0.00  0.00    -0.240 OA
BRANCH  13  14
ATOM     14  C   LIG    1       -5.869  -0.075  -8.571  0.00  0.00    +0.100 A 
ATOM     15  C   LIG    1       -6.548   0.742  -9.466  0.00  0.00    +0.050 A 
ATOM     16  C   LIG    1       -6.166   0.787 -10.794  0.00  0.00    +0.040 A 
ATOM     17  C   LIG    1       -5.115   0.013 -11.242  0.00  0.00    +0.070 A 
ATOM     18  C   LIG    1       -4.430  -0.815 -10.351  0.00  0.00    -0.010 A 
ATOM     19  C   LIG    1       -4.813  -0.856  -9.010  0.00  0.00    +0.070 A 
BRANCH  18  20
ATOM     20  C   LIG    1       -3.339  -1.621 -10.812  0.00  0.00    +0.250 C 
ATOM     21  N   LIG    1       -2.474  -2.259 -11.178  0.00  0.00    -0.410 NA
ENDBRANCH  18  20
ENDBRANCH  13  14
ENDBRANCH  10  13
ENDBRANCH   4   7
BRANCH   2  22
ATOM     22  C   LIG    1       -1.759   2.105  -0.247  0.00  0.00    +0.370 C 
BRANCH  22  23
ATOM     23  C   LIG    1       -0.404   1.448  -0.276  0.00  0.00    -0.050 A 
ATOM     24  C   LIG    1        0.301   1.369  -1.462  0.00  0.00    +0.020 A 
ATOM     25  C   LIG    1        1.548   0.770  -1.486  0.00  0.00    +0.050 A 
ATOM     26  C   LIG    1        2.088   0.251  -0.325  0.00  0.00    +0.020 A 
ATOM     27  C   LIG    1        1.383   0.331   0.862  0.00  0.00    +0.070 A 
ATOM     28  C   LIG    1        0.137   0.928   0.886  0.00  0.00    -0.180 A 
BRANCH  28  29
ATOM     29  C   LIG    1       -0.632   1.014   2.179  0.00  0.00    +0.510 C 
ATOM     30  F   LIG    1       -1.800   0.250   2.079  0.00  0.00    -0.170 F 
ATOM     31  F   LIG    1       -0.968   2.348   2.434  0.00  0.00    -0.180 F 
ATOM     32  F   LIG    1        0.157   0.524   3.225  0.00  0.00    -0.170 F 
ENDBRANCH  28  29
ENDBRANCH  22  23
ENDBRANCH   2  22
TORSDOF 7
