REMARK  Name = ZINCpk00000eav6F.0
REMARK                            x       y       z     vdW  Elec       q    Type
REMARK                         _______ _______ _______ _____ _____    ______ ____
ROOT
ATOM      1  C   LIG    1       -2.294   7.058   1.512  0.00  0.00    +0.520 C 
ATOM      2  N   LIG    1       -2.155   5.736   1.290  0.00  0.00    -0.620 N 
ATOM      3  C   LIG    1       -2.687   4.756   2.248  0.00  0.00    +0.280 C 
ATOM      4  C   LIG    1       -1.549   3.822   2.677  0.00  0.00    +0.280 C 
ATOM      5  N   LIG    1       -0.863   3.334   1.472  0.00  0.00    -0.620 N 
ATOM      6  C   LIG    1       -0.327   4.313   0.516  0.00  0.00    +0.270 C 
ATOM      7  C   LIG    1       -0.724   2.012   1.250  0.00  0.00    +0.520 C 
ATOM      8  O   LIG    1       -1.167   1.213   2.049  0.00  0.00    -0.520 OA
ATOM      9  C   LIG    1       -1.470   5.247   0.085  0.00  0.00    +0.270 C 
ATOM     10  O   LIG    1       -2.861   7.449   2.510  0.00  0.00    -0.520 OA
ENDROOT
BRANCH   1  11
ATOM     11  C   LIG    1       -1.743   8.050   0.520  0.00  0.00    +0.120 C 
BRANCH  11  16
ATOM     12  C   LIG    1       -1.379  11.390   2.249  0.00  0.00    +0.130 A 
ATOM     13  C   LIG    1       -2.556  12.022   1.878  0.00  0.00    -0.080 A 
ATOM     14  C   LIG    1       -3.465  11.366   1.069  0.00  0.00    +0.050 A 
ATOM     15  C   LIG    1       -3.199  10.084   0.626  0.00  0.00    -0.020 A 
ATOM     16  C   LIG    1       -2.028   9.450   1.000  0.00  0.00    -0.030 A 
ATOM     17  C   LIG    1       -1.116  10.101   1.808  0.00  0.00    -0.010 A 
BRANCH  12  19
ATOM     18  C   LIG    1       -0.819  13.358   3.460  0.00  0.00    +0.250 C 
ATOM     19  O   LIG    1       -0.483  12.033   3.044  0.00  0.00    -0.320 OA
ENDBRANCH  12  19
ENDBRANCH  11  16
ENDBRANCH   1  11
BRANCH   7  20
ATOM     20  C   LIG    1       -0.019   1.526   0.010  0.00  0.00    +0.050 C 
BRANCH  20  21
ATOM     21  C   LIG    1        0.002  -0.004   0.002  0.00  0.00    +0.190 C 
ATOM     22  C   LIG    1        0.827  -0.510  -1.201  0.00  0.00    +0.020 C 
ATOM     23  C   LIG    1       -0.001  -1.738  -1.673  0.00  0.00    +0.000 C 
ATOM     24  C   LIG    1       -1.442  -1.261  -1.360  0.00  0.00    +0.190 C 
ATOM     25  O   LIG    1       -1.331  -0.507  -0.142  0.00  0.00    -0.360 OA
ENDBRANCH  20  21
ENDBRANCH   7  20
TORSDOF 5
