REMARK  Name = ZINCpk000004FD9x.0
REMARK                            x       y       z     vdW  Elec       q    Type
REMARK                         _______ _______ _______ _____ _____    ______ ____
ROOT
ATOM      1  C   LIG    1        7.523   2.522  -1.864  0.00  0.00    +0.240 C 
ATOM      2  C   LIG    1        6.939   3.915  -2.090  0.00  0.00    +0.010 C 
ATOM      3  C   LIG    1        5.443   3.871  -1.778  0.00  0.00    +0.030 C 
ATOM      4  C   LIG    1        5.245   3.573  -0.314  0.00  0.00    +0.010 C 
ATOM      5  C   LIG    1        3.745   3.233  -0.137  0.00  0.00    +0.260 C 
ATOM      6  N   LIG    1        3.629   1.768  -0.124  0.00  0.00    -0.610 N 
ATOM      7  C   LIG    1        4.970   1.175  -0.257  0.00  0.00    +0.260 C 
ATOM      8  C   LIG    1        2.477   1.077  -0.015  0.00  0.00    +0.580 C 
ATOM      9  O   LIG    1        2.501  -0.135   0.075  0.00  0.00    -0.520 OA
ATOM     10  C   LIG    1        5.952   2.292   0.126  0.00  0.00    +0.000 C 
ATOM     11  C   LIG    1        7.326   2.082  -0.429  0.00  0.00    +0.040 C 
ENDROOT
BRANCH   8  12
ATOM     12  C   LIG    1        1.185   1.793  -0.006  0.00  0.00    -0.110 A 
ATOM     13  C   LIG    1       -0.013   1.076  -0.064  0.00  0.00    +0.120 A 
ATOM     14  C   LIG    1       -1.219   1.741  -0.056  0.00  0.00    +0.070 A 
ATOM     15  C   LIG    1       -1.250   3.127   0.009  0.00  0.00    +0.060 A 
ATOM     16  O   LIG    1       -2.263   4.026   0.033  0.00  0.00    -0.230 OA
ATOM     17  C   LIG    1       -1.754   5.265   0.117  0.00  0.00    +0.640 A 
ATOM     18  N   LIG    1       -0.408   5.198   0.137  0.00  0.00    -0.650 N 
ATOM     19  H   LIG    1        0.204   5.949   0.187  0.00  0.00    +0.450 HD
ATOM     20  O   LIG    1       -2.406   6.291   0.159  0.00  0.00    -0.480 OA
ATOM     21  C   LIG    1       -0.055   3.849   0.073  0.00  0.00    +0.060 A 
ATOM     22  C   LIG    1        1.158   3.188   0.060  0.00  0.00    +0.060 A 
ENDBRANCH   8  12
BRANCH   1  25
ATOM     23  C   LIG    1       10.852   2.433  -3.753  0.00  0.00    +0.090 C 
ATOM     24  C   LIG    1        9.378   2.408  -3.441  0.00  0.00    +0.510 C 
ATOM     25  N   LIG    1        8.956   2.547  -2.168  0.00  0.00    -0.730 N 
ATOM     26  H   LIG    1        9.602   2.663  -1.453  0.00  0.00    +0.400 HD
ATOM     27  O   LIG    1        8.571   2.263  -4.334  0.00  0.00    -0.540 OA
ENDBRANCH   1  25
TORSDOF 2
