REMARK  Name = ZINCvU00000007tj.0
REMARK                            x       y       z     vdW  Elec       q    Type
REMARK                         _______ _______ _______ _____ _____    ______ ____
ROOT
ATOM      1  C   LIG    1       -0.423   3.554   0.025  0.00  0.00    +0.260 A 
ATOM      2  N   LIG    1        0.871   3.419   0.012  0.00  0.00    -0.440 NA
ATOM      3  C   LIG    1        1.193   2.099   0.002  0.00  0.00    +0.040 A 
ATOM      4  C   LIG    1        2.404   1.403  -0.013  0.00  0.00    +0.080 A 
ATOM      5  C   LIG    1        2.403   0.036  -0.021  0.00  0.00    +0.000 A 
ATOM      6  C   LIG    1        1.209  -0.671  -0.013  0.00  0.00    +0.040 A 
ATOM      7  C   LIG    1        0.002  -0.004   0.002  0.00  0.00    +0.010 A 
ATOM      8  C   LIG    1       -0.017   1.384   0.010  0.00  0.00    +0.070 A 
ATOM      9  N   LIG    1       -1.020   2.332   0.019  0.00  0.00    -0.470 N 
ENDROOT
BRANCH   1  10
ATOM     10  C   LIG    1       -1.153   4.872   0.039  0.00  0.00    +0.210 C 
BRANCH  10  12
ATOM     11  N   LIG    1       -0.520   6.239  -2.090  0.00  0.00    -0.360 NA
ATOM     12  C   LIG    1       -0.796   5.644  -1.162  0.00  0.00    +0.210 C 
ENDBRANCH  10  12
BRANCH  10  13
ATOM     13  C   LIG    1       -0.763   5.649   1.270  0.00  0.00    +0.360 C 
ATOM     14  O   LIG    1        0.336   5.506   1.751  0.00  0.00    -0.350 OA
BRANCH  13  15
ATOM     15  C   LIG    1       -1.743   6.605   1.900  0.00  0.00    +0.230 C 
BRANCH  15  16
ATOM     16  O   LIG    1       -1.144   7.216   3.044  0.00  0.00    -0.280 OA
BRANCH  16  17
ATOM     17  C   LIG    1       -1.901   8.111   3.733  0.00  0.00    +0.140 A 
ATOM     18  C   LIG    1       -3.190   8.400   3.312  0.00  0.00    -0.040 A 
ATOM     19  C   LIG    1       -3.960   9.306   4.016  0.00  0.00    +0.090 A 
ATOM     20  C   LIG    1       -3.441   9.935   5.133  0.00  0.00    -0.060 A 
ATOM     21  C   LIG    1       -2.153   9.653   5.553  0.00  0.00    +0.090 A 
ATOM     22 CL   LIG    1       -4.408  11.079   6.011  0.00  0.00    -0.050 Cl
ATOM     23  C   LIG    1       -1.382   8.743   4.855  0.00  0.00    -0.060 A 
ATOM     24 CL   LIG    1        0.235   8.390   5.380  0.00  0.00    -0.030 Cl
ENDBRANCH  16  17
ENDBRANCH  15  16
ENDBRANCH  13  15
ENDBRANCH  10  13
ENDBRANCH   1  10
BRANCH   9  25
ATOM     25  C   LIG    1       -2.462   2.070   0.022  0.00  0.00    +0.350 C 
BRANCH  25  26
ATOM     26  C   LIG    1       -2.951   1.972   1.444  0.00  0.00    -0.120 A 
ATOM     27  C   LIG    1       -2.967   0.749   2.087  0.00  0.00    +0.030 A 
ATOM     28  C   LIG    1       -3.412   0.660   3.393  0.00  0.00    +0.020 A 
ATOM     29  C   LIG    1       -3.850   1.793   4.053  0.00  0.00    +0.030 A 
ATOM     30  C   LIG    1       -3.839   3.016   3.408  0.00  0.00    +0.010 A 
ATOM     31  C   LIG    1       -3.389   3.106   2.104  0.00  0.00    +0.010 A 
ENDBRANCH  25  26
ENDBRANCH   9  25
TORSDOF 8
