REMARK  Name = ZINCqH0000034FTs.0
REMARK                            x       y       z     vdW  Elec       q    Type
REMARK                         _______ _______ _______ _____ _____    ______ ____
ROOT
ATOM      1  C   LIG    1        3.729   4.585  -1.440  0.00  0.00    +0.480 C 
ENDROOT
BRANCH   1   2
ATOM      2  N   LIG    1        4.395   4.584  -2.745  0.00  0.00    -0.530 N 
ATOM      3  C   LIG    1        3.960   5.266  -3.818  0.00  0.00    +0.500 C 
ATOM      4  C   LIG    1        4.917   4.999  -4.941  0.00  0.00    +0.390 C 
ATOM      5  C   LIG    1        5.928   4.093  -4.369  0.00  0.00    -0.210 A 
ATOM      6  C   LIG    1        7.071   3.486  -4.894  0.00  0.00    +0.060 A 
ATOM      7  C   LIG    1        7.841   2.666  -4.091  0.00  0.00    +0.040 A 
ATOM      8  C   LIG    1        7.481   2.449  -2.773  0.00  0.00    +0.090 A 
ATOM      9  C   LIG    1        6.350   3.047  -2.242  0.00  0.00    +0.080 A 
ATOM     10  F   LIG    1        6.013   2.825  -0.952  0.00  0.00    -0.120 F 
ATOM     11 CL   LIG    1        7.520   3.758  -6.549  0.00  0.00    -0.030 Cl
ATOM     12  O   LIG    1        4.869   5.434  -6.074  0.00  0.00    -0.340 OA
ATOM     13  O   LIG    1        2.974   5.971  -3.869  0.00  0.00    -0.430 OA
ATOM     14  C   LIG    1        5.564   3.880  -3.029  0.00  0.00    +0.180 A 
ENDBRANCH   1   2
BRANCH   1  16
ATOM     15  C   LIG    1        1.497   3.878  -2.058  0.00  0.00    +0.210 C 
ATOM     16  N   LIG    1        2.747   3.493  -1.391  0.00  0.00    -0.550 NA
BRANCH  16  17
ATOM     17  C   LIG    1        2.497   3.074  -0.005  0.00  0.00    +0.320 C 
BRANCH  17  18
ATOM     18  C   LIG    1        1.684   1.804  -0.004  0.00  0.00    +0.090 A 
ATOM     19  N   LIG    1        2.187   0.628  -0.015  0.00  0.00    -0.440 NA
ATOM     20  C   LIG    1        1.339  -0.418  -0.013  0.00  0.00    +0.080 A 
ATOM     21  C   LIG    1        1.615  -1.800  -0.024  0.00  0.00    +0.080 A 
ATOM     22  C   LIG    1        0.598  -2.707  -0.019  0.00  0.00    +0.030 A 
ATOM     23  C   LIG    1       -0.725  -2.289  -0.004  0.00  0.00    +0.040 A 
ATOM     24  C   LIG    1       -1.025  -0.945   0.006  0.00  0.00    +0.060 A 
ATOM     25  C   LIG    1        0.002  -0.004   0.002  0.00  0.00    -0.180 A 
ATOM     26  S   LIG    1       -0.022   1.756   0.012  0.00  0.00    +0.100 S 
ENDBRANCH  17  18
ENDBRANCH  16  17
ENDBRANCH   1  16
TORSDOF 4
