REMARK  Name = ZINCtj00001n1k6u.0
REMARK                            x       y       z     vdW  Elec       q    Type
REMARK                         _______ _______ _______ _____ _____    ______ ____
ROOT
ATOM      1  C   LIG    1       -6.765  -3.882  -1.993  0.00  0.00    +0.520 C 
ATOM      2  N   LIG    1       -6.414  -2.591  -2.150  0.00  0.00    -0.610 N 
ATOM      3  C   LIG    1       -6.315  -2.019  -3.474  0.00  0.00    +0.310 C 
ATOM      4  C   LIG    1       -4.986  -2.458  -4.097  0.00  0.00    +0.070 C 
ATOM      5  C   LIG    1       -3.853  -1.596  -3.760  0.00  0.00    -0.130 C 
ATOM      6  S   LIG    1       -3.535  -1.644  -1.956  0.00  0.00    +2.300 S 
ATOM      7  C   LIG    1       -4.919  -0.818  -1.153  0.00  0.00    -0.290 C 
ATOM      8  N   LIG    1       -2.311  -0.830  -1.693  0.00  0.00    -1.500 NA
ATOM      9  O   LIG    1       -3.287  -2.951  -1.458  0.00  0.00    -0.920 OA
ATOM     10  C   LIG    1       -6.129  -1.754  -0.978  0.00  0.00    +0.330 C 
ATOM     11  O   LIG    1       -7.099  -4.541  -2.955  0.00  0.00    -0.500 OA
ENDROOT
BRANCH   8  12
ATOM     12  S   LIG    1       -1.743  -0.664  -0.146  0.00  0.00    +2.680 S 
ATOM     13  O   LIG    1       -2.722   0.083   0.562  0.00  0.00    -0.980 OA
ATOM     14  O   LIG    1       -1.304  -1.953   0.260  0.00  0.00    -0.950 OA
BRANCH  12  15
ATOM     15  C   LIG    1       -0.304   0.350  -0.225  0.00  0.00    -0.670 A 
ATOM     16  C   LIG    1        0.941  -0.225  -0.400  0.00  0.00    +0.170 A 
ATOM     17  C   LIG    1        2.071   0.564  -0.466  0.00  0.00    -0.020 A 
ATOM     18  C   LIG    1        1.966   1.948  -0.355  0.00  0.00    +0.170 A 
ATOM     19  O   LIG    1        2.934   2.904  -0.404  0.00  0.00    -0.300 OA
ATOM     20  C   LIG    1        2.433   4.116   0.185  0.00  0.00    +0.260 C 
ATOM     21  C   LIG    1        0.910   4.013  -0.063  0.00  0.00    +0.090 C 
ATOM     22  C   LIG    1        0.710   2.514  -0.172  0.00  0.00    -0.200 A 
ATOM     23  C   LIG    1       -0.416   1.724  -0.111  0.00  0.00    +0.170 A 
ENDBRANCH  12  15
ENDBRANCH   8  12
BRANCH   1  24
ATOM     24  C   LIG    1       -6.743  -4.508  -0.622  0.00  0.00    +0.150 C 
BRANCH  24  25
ATOM     25  N   LIG    1       -6.582  -5.963  -0.750  0.00  0.00    -0.370 N 
ATOM     26  C   LIG    1       -6.672  -6.584   0.578  0.00  0.00    +0.340 C 
ATOM     27  C   LIG    1       -5.270  -6.259  -1.342  0.00  0.00    +0.320 C 
ATOM     28  H   LIG    1       -7.309  -6.331  -1.345  0.00  0.00    +0.430 HD
ENDBRANCH  24  25
BRANCH  24  30
ATOM     29  C   LIG    1       -9.232  -4.689  -0.753  0.00  0.00    +0.040 C 
ATOM     30  C   LIG    1       -8.058  -4.203   0.099  0.00  0.00    +0.080 C 
ENDBRANCH  24  30
ENDBRANCH   1  24
TORSDOF 5
