REMARK  Name = ZINCrD000003etOr.0
REMARK                            x       y       z     vdW  Elec       q    Type
REMARK                         _______ _______ _______ _____ _____    ______ ____
ROOT
ATOM      1  C   LIG    1       -2.747   0.505  -2.148  0.00  0.00    +0.560 C 
ATOM      2  N   LIG    1       -2.085   0.883  -1.036  0.00  0.00    -0.600 N 
ATOM      3  C   LIG    1       -0.617   0.933  -1.020  0.00  0.00    +0.260 C 
ATOM      4  C   LIG    1       -0.108   0.102   0.162  0.00  0.00    +0.020 C 
ATOM      5  C   LIG    1       -0.768   0.597   1.451  0.00  0.00    +0.040 C 
ATOM      6  C   LIG    1       -2.285   0.417   1.351  0.00  0.00    +0.160 C 
ATOM      7  C   LIG    1       -2.818   1.252   0.182  0.00  0.00    +0.240 C 
ATOM      8  O   LIG    1       -3.954   0.365  -2.119  0.00  0.00    -0.530 OA
ENDROOT
BRANCH   1  12
ATOM      9  C   LIG    1       -0.616  -0.195  -5.754  0.00  0.00    +0.120 A 
ATOM     10  C   LIG    1       -1.647  -1.049  -5.381  0.00  0.00    -0.100 A 
ATOM     11  C   LIG    1       -2.341  -0.825  -4.213  0.00  0.00    +0.080 A 
ATOM     12  C   LIG    1       -2.006   0.262  -3.401  0.00  0.00    -0.130 A 
ATOM     13  C   LIG    1       -0.972   1.121  -3.782  0.00  0.00    +0.050 A 
ATOM     14  C   LIG    1       -2.006  -2.221  -6.257  0.00  0.00    +0.110 C 
ATOM     15  C   LIG    1       -0.280   0.887  -4.949  0.00  0.00    -0.100 A 
ATOM     16  C   LIG    1        0.840   1.810  -5.357  0.00  0.00    +0.110 C 
BRANCH   9  18
ATOM     17  C   LIG    1       -0.440   0.202  -8.090  0.00  0.00    +0.240 C 
ATOM     18  O   LIG    1        0.066  -0.419  -6.906  0.00  0.00    -0.330 OA
ENDBRANCH   9  18
ENDBRANCH   1  12
BRANCH   6  19
ATOM     19  N   LIG    1       -2.915   0.864   2.600  0.00  0.00    -0.520 NA
ATOM     20  C   LIG    1       -2.743   2.311   2.788  0.00  0.00    +0.180 C 
BRANCH  19  21
ATOM     21  C   LIG    1       -4.336   0.494   2.635  0.00  0.00    +0.290 C 
BRANCH  21  22
ATOM     22  C   LIG    1       -4.887   0.744   4.015  0.00  0.00    +0.030 A 
ATOM     23  N   LIG    1       -5.431   1.843   4.450  0.00  0.00    -0.360 NA
ATOM     24  O   LIG    1       -5.779   1.741   5.604  0.00  0.00    +0.100 OA
ATOM     25  C   LIG    1       -5.502   0.526   6.097  0.00  0.00    +0.150 A 
ATOM     26  C   LIG    1       -4.919  -0.171   5.093  0.00  0.00    -0.180 A 
ATOM     27  C   LIG    1       -4.419  -1.593   5.118  0.00  0.00    +0.140 C 
ENDBRANCH  21  22
ENDBRANCH  19  21
ENDBRANCH   6  19
TORSDOF 5
