REMARK  Name = ZINCpe000000Uz6e.0
REMARK                            x       y       z     vdW  Elec       q    Type
REMARK                         _______ _______ _______ _____ _____    ______ ____
ROOT
ATOM      1  C   LIG    1        2.012   6.782   0.041  0.00  0.00    +0.310 C 
ATOM      2  N   LIG    1        0.865   7.694   0.043  0.00  0.00    -0.600 N 
ATOM      3  C   LIG    1       -0.388   7.200   0.038  0.00  0.00    +0.540 C 
ATOM      4  O   LIG    1       -1.338   7.954   0.039  0.00  0.00    -0.520 OA
ENDROOT
BRANCH   3   5
ATOM      5  C   LIG    1       -0.611   5.709   0.031  0.00  0.00    +0.110 C 
BRANCH   5   6
ATOM      6  S   LIG    1       -2.388   5.364   0.026  0.00  0.00    +0.120 S 
BRANCH   6   7
ATOM      7  C   LIG    1       -2.357   3.603   0.019  0.00  0.00    +0.390 A 
ATOM      8  N   LIG    1       -1.194   2.957   0.023  0.00  0.00    -0.650 NA
ATOM      9  C   LIG    1       -1.172   1.628   0.012  0.00  0.00    +0.640 A 
ATOM     10  N   LIG    1       -2.311   0.944   0.007  0.00  0.00    -0.660 NA
ATOM     11  C   LIG    1       -3.474   1.589   0.008  0.00  0.00    +0.640 A 
ATOM     12  N   LIG    1       -3.497   2.918   0.013  0.00  0.00    -0.620 NA
BRANCH  11  13
ATOM     13  N   LIG    1       -4.657   0.878   0.002  0.00  0.00    -0.800 N 
ATOM     14  H   LIG    1       -5.506   1.348   0.002  0.00  0.00    +0.420 HD
ATOM     15  H   LIG    1       -4.640  -0.092  -0.003  0.00  0.00    +0.420 HD
ENDBRANCH  11  13
BRANCH   9  16
ATOM     16  N   LIG    1        0.035   0.959   0.012  0.00  0.00    -0.810 N 
ATOM     17  H   LIG    1        0.867   1.458   0.012  0.00  0.00    +0.420 HD
ATOM     18  H   LIG    1        0.052  -0.011   0.009  0.00  0.00    +0.420 HD
ENDBRANCH   9  16
ENDBRANCH   6   7
ENDBRANCH   5   6
ENDBRANCH   3   5
BRANCH   2  19
ATOM     19  C   LIG    1        1.081   9.143   0.049  0.00  0.00    +0.340 C 
BRANCH  19  20
ATOM     20  C   LIG    1        1.153   9.634   1.472  0.00  0.00    +0.500 C 
ATOM     21  N   LIG    1        1.348  10.943   1.725  0.00  0.00    -0.670 N 
ATOM     22  H   LIG    1        1.507  11.560   0.993  0.00  0.00    +0.410 HD
ATOM     23  O   LIG    1        1.035   8.850   2.391  0.00  0.00    -0.510 OA
BRANCH  21  24
ATOM     24  C   LIG    1        1.320  11.414   3.043  0.00  0.00    +0.160 A 
ATOM     25  C   LIG    1        1.803  10.620   4.075  0.00  0.00    +0.040 A 
ATOM     26  C   LIG    1        1.775  11.088   5.375  0.00  0.00    +0.030 A 
ATOM     27  C   LIG    1        1.267  12.344   5.649  0.00  0.00    +0.010 A 
ATOM     28  C   LIG    1        0.785  13.137   4.624  0.00  0.00    +0.050 A 
ATOM     29  C   LIG    1        0.815  12.678   3.321  0.00  0.00    -0.060 A 
ATOM     30 CL   LIG    1        0.216  13.677   2.033  0.00  0.00    -0.060 Cl
ENDBRANCH  21  24
ENDBRANCH  19  20
ENDBRANCH   2  19
TORSDOF 8
