REMARK  Name = ZINCpk00000xIbPj.0
REMARK                            x       y       z     vdW  Elec       q    Type
REMARK                         _______ _______ _______ _____ _____    ______ ____
ROOT
ATOM      1  C   LIG    1       -4.903   1.086   0.031  0.00  0.00    +0.350 C 
ENDROOT
BRANCH   1   2
ATOM      2  N   LIG    1       -3.668   1.875   0.030  0.00  0.00    -0.460 N 
ATOM      3  C   LIG    1       -2.471   1.241   0.021  0.00  0.00    +0.470 A 
ATOM      4  C   LIG    1       -1.306   1.936   0.019  0.00  0.00    -0.150 A 
ATOM      5  C   LIG    1       -1.323   3.332   0.032  0.00  0.00    +0.260 A 
ATOM      6  C   LIG    1       -2.550   3.991   0.037  0.00  0.00    -0.130 A 
ATOM      7  C   LIG    1       -3.742   3.220   0.038  0.00  0.00    +0.550 A 
ATOM      8  O   LIG    1       -4.828   3.773   0.047  0.00  0.00    -0.490 OA
BRANCH   4   9
ATOM      9  N   LIG    1       -0.014   1.214   0.009  0.00  0.00    +0.050 N 
ATOM     10  O   LIG    1        1.032   1.837   0.002  0.00  0.00    -0.140 OA
ATOM     11  O   LIG    1        0.002  -0.004   0.002  0.00  0.00    -0.160 OA
ENDBRANCH   4   9
BRANCH   6  12
ATOM     12  C   LIG    1       -2.608   5.422   0.046  0.00  0.00    +0.270 C 
ATOM     13  N   LIG    1       -2.654   6.557   0.052  0.00  0.00    -0.380 NA
ENDBRANCH   6  12
ENDBRANCH   1   2
BRANCH   1  16
ATOM     14  C   LIG    1       -7.242  -0.414   0.586  0.00  0.00    +0.300 C 
ATOM     15  N   LIG    1       -6.435   0.092   1.699  0.00  0.00    -0.600 N 
ATOM     16  C   LIG    1       -5.319   0.807   1.452  0.00  0.00    +0.500 C 
ATOM     17  O   LIG    1       -4.651   1.227   2.373  0.00  0.00    -0.520 OA
BRANCH  15  18
ATOM     18  C   LIG    1       -6.840  -0.179   3.081  0.00  0.00    +0.360 C 
BRANCH  18  19
ATOM     19  C   LIG    1       -7.744   0.925   3.565  0.00  0.00    -0.090 A 
ATOM     20  C   LIG    1       -7.206   2.034   4.190  0.00  0.00    +0.030 A 
ATOM     21  C   LIG    1       -8.034   3.050   4.630  0.00  0.00    +0.040 A 
ATOM     22  C   LIG    1       -9.402   2.953   4.455  0.00  0.00    -0.010 A 
ATOM     23  C   LIG    1       -9.942   1.840   3.834  0.00  0.00    +0.100 A 
ATOM     24  F   LIG    1      -11.278   1.744   3.662  0.00  0.00    -0.140 F 
ATOM     25  C   LIG    1       -9.111   0.826   3.389  0.00  0.00    -0.010 A 
ENDBRANCH  18  19
ENDBRANCH  15  18
ENDBRANCH   1  16
TORSDOF 6
