REMARK  Name = ZINCrH000004pDDQ.0
REMARK                            x       y       z     vdW  Elec       q    Type
REMARK                         _______ _______ _______ _____ _____    ______ ____
ROOT
ATOM      1  C   LIG    1       -2.821   3.262  -3.096  0.00  0.00    +0.090 C 
ATOM      2  C   LIG    1       -1.655   2.272  -3.127  0.00  0.00    +0.230 C 
ATOM      3  C   LIG    1       -0.747   2.480  -1.931  0.00  0.00    +0.530 C 
ATOM      4  N   LIG    1       -0.779   1.322  -1.242  0.00  0.00    -0.570 N 
ATOM      5  C   LIG    1       -1.570   0.419  -1.833  0.00  0.00    +0.700 C 
ATOM      6  O   LIG    1       -1.755  -0.702  -1.401  0.00  0.00    -0.500 OA
ATOM      7  O   LIG    1       -0.122   3.481  -1.652  0.00  0.00    -0.450 OA
ATOM      8  N   LIG    1       -2.139   0.891  -2.957  0.00  0.00    -0.560 N 
ENDROOT
BRANCH   8   9
ATOM      9  C   LIG    1       -3.018   0.202  -3.802  0.00  0.00    +0.180 A 
ATOM     10  C   LIG    1       -3.528   0.827  -4.933  0.00  0.00    +0.010 A 
ATOM     11  C   LIG    1       -4.391   0.144  -5.768  0.00  0.00    +0.020 A 
ATOM     12  C   LIG    1       -4.755  -1.159  -5.473  0.00  0.00    +0.080 A 
ATOM     13  C   LIG    1       -4.252  -1.782  -4.343  0.00  0.00    +0.020 A 
ATOM     14  F   LIG    1       -5.604  -1.823  -6.288  0.00  0.00    -0.140 F 
ATOM     15  C   LIG    1       -3.385  -1.105  -3.508  0.00  0.00    +0.040 A 
ENDBRANCH   8   9
BRANCH   4  16
ATOM     16  C   LIG    1       -0.036   1.081  -0.003  0.00  0.00    +0.460 C 
BRANCH  16  17
ATOM     17  C   LIG    1       -0.928   1.359   1.180  0.00  0.00    +0.250 A 
ATOM     18  N   LIG    1       -1.764   0.507   1.699  0.00  0.00    -0.450 NA
ATOM     19  C   LIG    1       -2.403   1.079   2.751  0.00  0.00    +0.050 A 
ATOM     20  C   LIG    1       -3.376   0.629   3.647  0.00  0.00    +0.090 A 
ATOM     21  C   LIG    1       -3.842   1.472   4.631  0.00  0.00    -0.040 A 
ATOM     22  C   LIG    1       -3.354   2.768   4.739  0.00  0.00    +0.050 A 
ATOM     23  C   LIG    1       -2.394   3.228   3.862  0.00  0.00    +0.030 A 
ATOM     24 CL   LIG    1       -5.050   0.912   5.745  0.00  0.00    -0.060 Cl
ATOM     25  C   LIG    1       -1.913   2.391   2.865  0.00  0.00    +0.060 A 
ATOM     26  N   LIG    1       -0.980   2.538   1.856  0.00  0.00    -0.480 N 
ATOM     27  C   LIG    1       -0.194   3.740   1.568  0.00  0.00    +0.340 C 
ENDBRANCH  16  17
ENDBRANCH   4  16
TORSDOF 3
