REMARK  Name = ZINCpe000000W8Qi.0
REMARK                            x       y       z     vdW  Elec       q    Type
REMARK                         _______ _______ _______ _____ _____    ______ ____
ROOT
ATOM      1  C   LIG    1       -1.058   2.219   3.252  0.00  0.00    -0.130 A 
ATOM      2  C   LIG    1       -0.103   1.778   2.401  0.00  0.00    +0.170 A 
ATOM      3  N   LIG    1       -0.712   1.491   1.230  0.00  0.00    -0.280 N 
ATOM      4  N   LIG    1       -1.971   1.734   1.313  0.00  0.00    -0.270 NA
ATOM      5  C   LIG    1       -0.035   0.981   0.035  0.00  0.00    +0.370 C 
ATOM      6  C   LIG    1       -2.267   2.177   2.519  0.00  0.00    +0.010 A 
ENDROOT
BRANCH   6   7
ATOM      7  C   LIG    1       -3.606   2.563   3.009  0.00  0.00    +0.610 C 
ATOM      8  N   LIG    1       -4.654   2.583   2.161  0.00  0.00    -0.540 N 
ATOM      9  C   LIG    1       -4.532   2.145   0.757  0.00  0.00    +0.300 C 
ATOM     10  C   LIG    1       -5.280   3.144  -0.133  0.00  0.00    +0.040 C 
ATOM     11  C   LIG    1       -6.773   3.139   0.218  0.00  0.00    +0.310 C 
ATOM     12  N   LIG    1       -6.920   3.281   1.669  0.00  0.00    -0.390 N 
ATOM     13  N   LIG    1       -8.039   3.688   2.394  0.00  0.00    -0.290 NA
ATOM     14  C   LIG    1       -7.730   3.676   3.668  0.00  0.00    +0.250 A 
ATOM     15  C   LIG    1       -6.400   3.258   3.800  0.00  0.00    -0.110 A 
ATOM     16  C   LIG    1       -5.923   3.014   2.562  0.00  0.00    +0.310 A 
ATOM     17  O   LIG    1       -3.763   2.864   4.176  0.00  0.00    -0.480 OA
ENDBRANCH   6   7
BRANCH   1  18
ATOM     18  C   LIG    1       -0.872   2.662   4.681  0.00  0.00    +0.280 C 
BRANCH  18  22
ATOM     19  C   LIG    1       -0.887   0.834   7.837  0.00  0.00    +0.160 C 
ATOM     20  C   LIG    1        0.230   0.224   6.951  0.00  0.00    -0.020 C 
ATOM     21  C   LIG    1       -0.294   0.460   5.519  0.00  0.00    +0.190 C 
ATOM     22  N   LIG    1       -1.261   1.571   5.585  0.00  0.00    -0.510 NA
ATOM     23  C   LIG    1       -1.337   2.045   6.984  0.00  0.00    +0.200 C 
BRANCH  19  25
ATOM     24  C   LIG    1       -0.429   0.264  10.120  0.00  0.00    +0.200 C 
ATOM     25  O   LIG    1       -0.365   1.260   9.098  0.00  0.00    -0.380 OA
ENDBRANCH  19  25
ENDBRANCH  18  22
ENDBRANCH   1  18
TORSDOF 4
