REMARK  Name = ZINCpk00000xI6Ae.0
REMARK                            x       y       z     vdW  Elec       q    Type
REMARK                         _______ _______ _______ _____ _____    ______ ____
ROOT
ATOM      1  N   LIG    1       -0.190  -0.346  -0.209  0.00  0.00    -0.600 N 
ATOM      2  C   LIG    1       -0.101  -0.534  -1.541  0.00  0.00    +0.520 C 
ATOM      3  O   LIG    1        0.120  -1.641  -1.984  0.00  0.00    -0.520 OA
ENDROOT
BRANCH   1   4
ATOM      4  C   LIG    1        0.024  -1.471   0.705  0.00  0.00    +0.270 C 
ATOM      5  C   LIG    1       -0.991  -2.586   0.400  0.00  0.00    +0.070 C 
ATOM      6  C   LIG    1       -0.507  -3.847   1.159  0.00  0.00    -0.300 C 
ATOM      7  S   LIG    1        1.300  -3.825   0.852  0.00  0.00    +2.390 S 
ATOM      8  O   LIG    1        1.989  -4.132   2.057  0.00  0.00    -0.940 OA
ATOM      9  O   LIG    1        1.586  -4.556  -0.332  0.00  0.00    -0.920 OA
ATOM     10  C   LIG    1        1.446  -2.034   0.510  0.00  0.00    -0.330 C 
ENDBRANCH   1   4
BRANCH   1  11
ATOM     11  C   LIG    1       -0.500   0.983   0.324  0.00  0.00    +0.270 C 
BRANCH  11  13
ATOM     12  C   LIG    1        0.481   3.047   1.332  0.00  0.00    +0.030 C 
ATOM     13  C   LIG    1        0.768   1.605   0.911  0.00  0.00    -0.010 C 
ENDBRANCH  11  13
ENDBRANCH   1  11
BRANCH   2  14
ATOM     14  C   LIG    1       -0.278   0.631  -2.480  0.00  0.00    +0.250 C 
BRANCH  14  15
ATOM     15  N   LIG    1       -0.511   0.134  -3.838  0.00  0.00    -0.700 N 
ATOM     16  H   LIG    1       -0.187  -0.744  -4.095  0.00  0.00    +0.420 HD
ATOM     17  C   LIG    1       -1.176   0.894  -4.730  0.00  0.00    +0.610 C 
ATOM     18  O   LIG    1       -1.582   1.995  -4.407  0.00  0.00    -0.510 OA
BRANCH  17  19
ATOM     19  C   LIG    1       -1.409   0.396  -6.089  0.00  0.00    -0.090 A 
ATOM     20  C   LIG    1       -2.065   1.061  -7.086  0.00  0.00    +0.050 A 
ATOM     21  C   LIG    1       -2.054   0.218  -8.208  0.00  0.00    -0.070 A 
ATOM     22  C   LIG    1       -1.400  -0.910  -7.852  0.00  0.00    +0.210 A 
ATOM     23  O   LIG    1       -1.009  -0.797  -6.576  0.00  0.00    -0.160 OA
ENDBRANCH  17  19
ENDBRANCH  14  15
BRANCH  14  24
ATOM     24  C   LIG    1        0.985   1.495  -2.463  0.00  0.00    -0.020 C 
ATOM     25  C   LIG    1        0.808   2.676  -3.420  0.00  0.00    +0.050 C 
ATOM     26  C   LIG    1        2.184   0.655  -2.907  0.00  0.00    +0.020 C 
ENDBRANCH  14  24
ENDBRANCH   2  14
TORSDOF 7
