REMARK  Name = ZINCc70000002zKy.0
REMARK                            x       y       z     vdW  Elec       q    Type
REMARK                         _______ _______ _______ _____ _____    ______ ____
ROOT
ATOM      1  C   LIG    1        0.657  -2.104  -1.120  0.00  0.00    +0.170 C 
ATOM      2  O   LIG    1        0.257  -2.724  -2.344  0.00  0.00    -0.310 OA
ATOM      3  C   LIG    1       -0.660  -2.861  -1.262  0.00  0.00    +0.040 C 
ATOM      4  C   LIG    1       -1.957  -2.049  -1.308  0.00  0.00    +0.050 C 
ATOM      5  C   LIG    1       -3.069  -2.941  -1.873  0.00  0.00    +0.230 C 
ATOM      6  O   LIG    1       -3.138  -4.149  -1.114  0.00  0.00    -0.380 OA
ATOM      7  C   LIG    1       -1.974  -4.972  -1.201  0.00  0.00    +0.230 C 
ATOM      8  C   LIG    1       -0.781  -4.230  -0.586  0.00  0.00    +0.060 C 
ENDROOT
BRANCH   1   9
ATOM      9  C   LIG    1        0.598  -0.600  -1.043  0.00  0.00    +0.480 C 
ATOM     10  O   LIG    1        1.088   0.070  -1.921  0.00  0.00    -0.480 OA
BRANCH   9  12
ATOM     11  C   LIG    1       -0.018   1.448   0.010  0.00  0.00    +0.280 C 
ATOM     12  O   LIG    1        0.002  -0.004   0.002  0.00  0.00    -0.350 OA
ENDBRANCH   9  12
ENDBRANCH   1   9
TORSDOF 2
