REMARK  Name = ZINCkj00000AYmc8.1
REMARK                            x       y       z     vdW  Elec       q    Type
REMARK                         _______ _______ _______ _____ _____    ______ ____
ROOT
ATOM      1  N   LIG    1       -0.842   6.827   2.356  0.00  0.00    -0.720 N 
ATOM      2  H   LIG    1       -0.444   7.357   1.648  0.00  0.00    +0.420 HD
ENDROOT
BRANCH   1   3
ATOM      3  C   LIG    1       -1.601   7.443   3.343  0.00  0.00    +0.360 A 
ATOM      4  C   LIG    1       -2.173   6.683   4.361  0.00  0.00    +0.200 A 
ATOM      5  N   LIG    1       -2.893   7.271   5.297  0.00  0.00    -0.390 NA
ATOM      6  C   LIG    1       -3.071   8.582   5.269  0.00  0.00    +0.240 A 
ATOM      7  C   LIG    1       -2.506   9.339   4.261  0.00  0.00    +0.050 A 
ATOM      8  N   LIG    1       -1.779   8.757   3.323  0.00  0.00    -0.450 NA
BRANCH   7   9
ATOM      9  C   LIG    1       -2.714  10.832   4.235  0.00  0.00    +0.530 C 
ATOM     10  F   LIG    1       -3.454  11.179   3.100  0.00  0.00    -0.160 F 
ATOM     11  F   LIG    1       -1.472  11.475   4.197  0.00  0.00    -0.160 F 
ATOM     12  F   LIG    1       -3.409  11.226   5.383  0.00  0.00    -0.160 F 
ENDBRANCH   7   9
ENDBRANCH   1   3
BRANCH   1  13
ATOM     13  C   LIG    1       -0.642   5.376   2.384  0.00  0.00    +0.280 C 
BRANCH  13  14
ATOM     14  C   LIG    1        0.224   4.957   1.194  0.00  0.00    +0.260 C 
BRANCH  14  19
ATOM     15  C   LIG    1        1.286   1.562  -0.002  0.00  0.00    +0.190 C 
ATOM     16  C   LIG    1        2.065   1.114   1.238  0.00  0.00    +0.020 C 
ATOM     17  C   LIG    1        1.343   1.618   2.492  0.00  0.00    +0.060 C 
ATOM     18  C   LIG    1        1.201   3.140   2.414  0.00  0.00    +0.240 C 
ATOM     19  N   LIG    1        0.425   3.502   1.222  0.00  0.00    -0.380 N 
ATOM     20  H   LIG    1       -0.472   3.040   1.252  0.00  0.00    +0.430 HD
ATOM     21  C   LIG    1        1.146   3.085   0.013  0.00  0.00    +0.290 C 
BRANCH  15  22
ATOM     22  O   LIG    1       -0.011   0.963   0.007  0.00  0.00    -0.570 OA
ATOM     23  H   LIG    1        0.002  -0.004   0.002  0.00  0.00    +0.410 HD
ENDBRANCH  15  22
ENDBRANCH  14  19
ENDBRANCH  13  14
ENDBRANCH   1  13
TORSDOF 6
