REMARK  Name = ZINCkj00000AYmc8.0
REMARK                            x       y       z     vdW  Elec       q    Type
REMARK                         _______ _______ _______ _____ _____    ______ ____
ROOT
ATOM      1  N   LIG    1        0.060  -2.701   2.334  0.00  0.00    -0.720 N 
ATOM      2  H   LIG    1        0.062  -2.222   3.178  0.00  0.00    +0.420 HD
ENDROOT
BRANCH   1   3
ATOM      3  C   LIG    1        0.040  -1.997   1.136  0.00  0.00    +0.350 A 
ATOM      4  C   LIG    1        0.038  -2.682  -0.077  0.00  0.00    +0.200 A 
ATOM      5  N   LIG    1        0.018  -2.010  -1.212  0.00  0.00    -0.390 NA
ATOM      6  C   LIG    1       -0.006  -0.688  -1.199  0.00  0.00    +0.250 A 
ATOM      7  C   LIG    1        0.002  -0.004   0.002  0.00  0.00    +0.050 A 
ATOM      8  N   LIG    1        0.022  -0.670   1.144  0.00  0.00    -0.450 NA
BRANCH   7   9
ATOM      9  C   LIG    1       -0.018   1.503   0.010  0.00  0.00    +0.530 C 
ATOM     10  F   LIG    1       -0.673   1.954   1.161  0.00  0.00    -0.160 F 
ATOM     11  F   LIG    1       -0.695   1.966  -1.123  0.00  0.00    -0.160 F 
ATOM     12  F   LIG    1        1.294   1.987   0.000  0.00  0.00    -0.160 F 
ENDBRANCH   7   9
ENDBRANCH   1   3
BRANCH   1  13
ATOM     13  C   LIG    1        0.080  -4.166   2.323  0.00  0.00    +0.280 C 
BRANCH  13  14
ATOM     14  C   LIG    1        0.100  -4.687   3.761  0.00  0.00    +0.260 C 
BRANCH  14  19
ATOM     15  C   LIG    1       -0.048  -8.184   5.114  0.00  0.00    +0.170 C 
ATOM     16  C   LIG    1        1.226  -8.736   4.466  0.00  0.00    +0.010 C 
ATOM     17  C   LIG    1        1.365  -8.149   3.058  0.00  0.00    +0.070 C 
ATOM     18  C   LIG    1        1.375  -6.622   3.146  0.00  0.00    +0.260 C 
ATOM     19  N   LIG    1        0.120  -6.155   3.750  0.00  0.00    -0.370 N 
ATOM     20  H   LIG    1       -0.660  -6.497   3.208  0.00  0.00    +0.430 HD
ATOM     21  C   LIG    1        0.015  -6.655   5.126  0.00  0.00    +0.280 C 
BRANCH  15  22
ATOM     22  O   LIG    1       -0.150  -8.669   6.454  0.00  0.00    -0.550 OA
ATOM     23  H   LIG    1       -0.190  -9.633   6.521  0.00  0.00    +0.410 HD
ENDBRANCH  15  22
ENDBRANCH  14  19
ENDBRANCH  13  14
ENDBRANCH   1  13
TORSDOF 6
