REMARK  Name = ZINCpe00000gMD6J.0
REMARK                            x       y       z     vdW  Elec       q    Type
REMARK                         _______ _______ _______ _____ _____    ______ ____
ROOT
ATOM      1  C   LIG    1        7.959  -0.522  -1.524  0.00  0.00    +0.230 C 
ATOM      2  C   LIG    1        8.060  -2.049  -1.557  0.00  0.00    +0.040 C 
ATOM      3  C   LIG    1        6.656  -2.653  -1.631  0.00  0.00    +0.040 C 
ATOM      4  C   LIG    1        5.864  -2.248  -0.378  0.00  0.00    +0.260 C 
ATOM      5  N   LIG    1        5.886  -0.783  -0.265  0.00  0.00    -0.620 N 
ATOM      6  C   LIG    1        4.738  -0.087  -0.147  0.00  0.00    +0.710 C 
ATOM      7  N   LIG    1        3.562  -0.738  -0.049  0.00  0.00    -0.660 N 
ATOM      8  H   LIG    1        3.545  -1.707  -0.023  0.00  0.00    +0.420 HD
ATOM      9  O   LIG    1        4.763   1.129  -0.130  0.00  0.00    -0.570 OA
ATOM     10  C   LIG    1        7.183  -0.093  -0.275  0.00  0.00    +0.280 C 
ENDROOT
BRANCH   7  11
ATOM     11  C   LIG    1        2.365  -0.014   0.015  0.00  0.00    +0.140 A 
ATOM     12  C   LIG    1        2.369   1.328   0.375  0.00  0.00    +0.090 A 
ATOM     13  C   LIG    1        1.159   2.003   0.425  0.00  0.00    +0.000 A 
ATOM     14  C   LIG    1       -0.006   1.328   0.117  0.00  0.00    +0.270 A 
ATOM     15  N   LIG    1        0.017   0.053  -0.222  0.00  0.00    -0.480 NA
ATOM     16  C   LIG    1        1.148  -0.630  -0.282  0.00  0.00    +0.320 A 
BRANCH  16  17
ATOM     17  N   LIG    1        1.124  -1.980  -0.646  0.00  0.00    -0.320 N 
ATOM     18  C   LIG    1        0.075  -2.830  -0.500  0.00  0.00    +0.270 A 
ATOM     19  C   LIG    1        0.458  -4.038  -0.976  0.00  0.00    -0.110 A 
ATOM     20  C   LIG    1        1.781  -3.929  -1.417  0.00  0.00    +0.270 A 
ATOM     21  N   LIG    1        2.181  -2.699  -1.221  0.00  0.00    -0.310 NA
ENDBRANCH  16  17
ENDBRANCH   7  11
BRANCH   1  22
ATOM     22  N   LIG    1        9.305   0.056  -1.485  0.00  0.00    -1.110 NA
ATOM     23  H   LIG    1       10.014  -0.398  -1.002  0.00  0.00    +0.420 HD
BRANCH  22  25
ATOM     24  C   LIG    1        8.611   2.709  -1.386  0.00  0.00    -0.290 C 
ATOM     25  S   LIG    1        9.616   1.482  -2.266  0.00  0.00    +2.610 S 
ATOM     26  O   LIG    1        9.116   1.279  -3.581  0.00  0.00    -0.950 OA
ATOM     27  O   LIG    1       10.999   1.714  -2.036  0.00  0.00    -0.960 OA
ENDBRANCH  22  25
ENDBRANCH   1  22
TORSDOF 4
