REMARK  Name = ZINCpe00000zssnn.0
REMARK                            x       y       z     vdW  Elec       q    Type
REMARK                         _______ _______ _______ _____ _____    ______ ____
ROOT
ATOM      1  O   LIG    1        4.113   6.256   2.701  0.00  0.00    -0.500 OA
ATOM      2  C   LIG    1        3.226   5.745   3.356  0.00  0.00    +0.570 C 
ATOM      3  N   LIG    1        1.996   5.595   2.825  0.00  0.00    -0.610 N 
ATOM      4  C   LIG    1        1.732   5.895   1.408  0.00  0.00    +0.310 C 
ATOM      5  C   LIG    1        1.260   4.608   0.728  0.00  0.00    +0.270 C 
ATOM      6  N   LIG    1        0.244   3.942   1.530  0.00  0.00    -0.590 N 
ATOM      7  C   LIG    1        0.070   4.129   2.840  0.00  0.00    +0.510 C 
ATOM      8  O   LIG    1       -0.763   3.461   3.414  0.00  0.00    -0.530 OA
ATOM      9  C   LIG    1        0.864   5.126   3.638  0.00  0.00    +0.320 C 
ENDROOT
BRANCH   2  10
ATOM     10  C   LIG    1        3.496   5.288   4.735  0.00  0.00    -0.150 A 
ATOM     11  C   LIG    1        2.864   4.157   5.221  0.00  0.00    +0.150 A 
ATOM     12  C   LIG    1        3.124   3.727   6.532  0.00  0.00    +0.060 A 
ATOM     13  N   LIG    1        2.529   2.637   7.029  0.00  0.00    -0.410 NA
ATOM     14  C   LIG    1        2.788   2.256   8.258  0.00  0.00    +0.260 A 
ATOM     15  C   LIG    1        3.682   2.976   9.054  0.00  0.00    +0.280 A 
ATOM     16  N   LIG    1        4.280   4.050   8.589  0.00  0.00    -0.430 NA
ATOM     17  C   LIG    1        4.032   4.459   7.340  0.00  0.00    +0.120 A 
ATOM     18  C   LIG    1        4.659   5.604   6.819  0.00  0.00    +0.040 A 
ATOM     19  C   LIG    1        4.399   6.004   5.545  0.00  0.00    +0.170 A 
ATOM     20  F   LIG    1        5.012   7.103   5.052  0.00  0.00    -0.110 F 
ENDBRANCH   2  10
BRANCH   6  21
ATOM     21  C   LIG    1       -0.654   3.005   0.851  0.00  0.00    +0.230 C 
ATOM     22  C   LIG    1        0.150   1.925   0.085  0.00  0.00    -0.000 C 
ATOM     23  C   LIG    1       -0.612   1.760  -1.244  0.00  0.00    +0.200 C 
ATOM     24  O   LIG    1       -1.756   2.628  -1.192  0.00  0.00    -0.370 OA
ATOM     25  C   LIG    1       -1.425   3.709  -0.294  0.00  0.00    +0.210 C 
ENDBRANCH   6  21
TORSDOF 2
