REMARK  Name = ZINCqH0000031K1c.0
REMARK                            x       y       z     vdW  Elec       q    Type
REMARK                         _______ _______ _______ _____ _____    ______ ____
ROOT
ATOM      1  C   LIG    1        2.336   5.233  -0.094  0.00  0.00    +0.520 C 
ATOM      2  N   LIG    1        2.355   3.889   0.001  0.00  0.00    -0.670 N 
ATOM      3  H   LIG    1        3.201   3.420   0.071  0.00  0.00    +0.410 HD
ATOM      4  O   LIG    1        1.278   5.827  -0.082  0.00  0.00    -0.500 OA
ENDROOT
BRANCH   2   5
ATOM      5  C   LIG    1        1.155   3.170  -0.004  0.00  0.00    +0.160 A 
ATOM      6  C   LIG    1        0.023   3.710  -0.599  0.00  0.00    +0.020 A 
ATOM      7  C   LIG    1       -1.161   2.997  -0.600  0.00  0.00    +0.040 A 
ATOM      8  C   LIG    1       -1.218   1.746  -0.015  0.00  0.00    -0.010 A 
ATOM      9  C   LIG    1       -0.093   1.208   0.583  0.00  0.00    +0.060 A 
ATOM     10  C   LIG    1        1.094   1.915   0.588  0.00  0.00    -0.130 A 
BRANCH  10  11
ATOM     11  C   LIG    1        2.320   1.325   1.235  0.00  0.00    +0.250 C 
BRANCH  11  12
ATOM     12  O   LIG    1        2.005   0.037   1.768  0.00  0.00    -0.310 OA
BRANCH  12  13
ATOM     13  C   LIG    1        3.009  -0.636   2.389  0.00  0.00    +0.130 A 
ATOM     14  C   LIG    1        4.273  -0.071   2.479  0.00  0.00    -0.090 A 
ATOM     15  C   LIG    1        5.290  -0.755   3.116  0.00  0.00    +0.050 A 
ATOM     16  C   LIG    1        5.053  -2.006   3.654  0.00  0.00    -0.040 A 
ATOM     17  C   LIG    1        3.796  -2.574   3.561  0.00  0.00    +0.050 A 
ATOM     18  C   LIG    1        2.773  -1.892   2.929  0.00  0.00    -0.020 A 
ENDBRANCH  12  13
ENDBRANCH  11  12
ENDBRANCH  10  11
ENDBRANCH   2   5
BRANCH   1  19
ATOM     19  C   LIG    1        3.628   5.999  -0.216  0.00  0.00    +0.070 C 
BRANCH  19  20
ATOM     20  C   LIG    1        3.328   7.496  -0.307  0.00  0.00    +0.290 C 
BRANCH  20  22
ATOM     21  C   LIG    1        4.564   9.585  -0.519  0.00  0.00    +0.520 C 
ATOM     22  N   LIG    1        4.584   8.240  -0.425  0.00  0.00    -0.730 N 
ATOM     23  H   LIG    1        5.430   7.766  -0.434  0.00  0.00    +0.400 HD
ATOM     24  O   LIG    1        3.507  10.178  -0.507  0.00  0.00    -0.530 OA
BRANCH  21  26
ATOM     25  C   LIG    1        5.556  11.847  -0.732  0.00  0.00    +0.050 C 
ATOM     26  C   LIG    1        5.857  10.350  -0.641  0.00  0.00    -0.090 C 
ATOM     27  C   LIG    1        6.599   9.901  -1.901  0.00  0.00    +0.050 C 
ATOM     28  C   LIG    1        6.728  10.079   0.588  0.00  0.00    +0.050 C 
ENDBRANCH  21  26
ENDBRANCH  20  22
ENDBRANCH  19  20
ENDBRANCH   1  19
TORSDOF 8
