REMARK  Name = ZINCrH000004nfVJ.0
REMARK                            x       y       z     vdW  Elec       q    Type
REMARK                         _______ _______ _______ _____ _____    ______ ____
ROOT
ATOM      1  C   LIG    1       -1.205   1.591   0.017  0.00  0.00    +0.610 C 
ATOM      2  N   LIG    1       -0.011   0.966   0.007  0.00  0.00    -0.660 N 
ATOM      3  H   LIG    1        0.029  -0.003   0.007  0.00  0.00    +0.420 HD
ATOM      4  O   LIG    1       -1.257   2.804  -0.067  0.00  0.00    -0.490 OA
ENDROOT
BRANCH   2   5
ATOM      5  C   LIG    1        1.172   1.715  -0.008  0.00  0.00    +0.150 A 
ATOM      6  C   LIG    1        2.292   1.257   0.673  0.00  0.00    +0.010 A 
ATOM      7  C   LIG    1        3.462   1.993   0.661  0.00  0.00    +0.060 A 
ATOM      8  C   LIG    1        3.519   3.190  -0.032  0.00  0.00    +0.070 A 
ATOM      9  O   LIG    1        4.664   3.924  -0.053  0.00  0.00    -0.300 OA
ATOM     10  C   LIG    1        4.929   4.667  -1.246  0.00  0.00    +0.190 C 
ATOM     11  C   LIG    1        3.683   5.401  -1.672  0.00  0.00    +0.490 C 
ATOM     12  N   LIG    1        2.469   4.867  -1.413  0.00  0.00    -0.660 N 
ATOM     13  H   LIG    1        1.661   5.318  -1.704  0.00  0.00    +0.420 HD
ATOM     14  O   LIG    1        3.770   6.466  -2.246  0.00  0.00    -0.500 OA
ATOM     15  C   LIG    1        6.048   5.676  -0.979  0.00  0.00    +0.100 C 
ATOM     16  C   LIG    1        2.396   3.652  -0.717  0.00  0.00    +0.110 A 
ATOM     17  C   LIG    1        1.226   2.913  -0.709  0.00  0.00    +0.030 A 
ENDBRANCH   2   5
BRANCH   1  23
ATOM     18  C   LIG    1       -6.556  -1.197   0.459  0.00  0.00    +0.110 A 
ATOM     19  C   LIG    1       -5.742  -2.325   0.502  0.00  0.00    -0.010 A 
ATOM     20  C   LIG    1       -4.371  -2.206   0.431  0.00  0.00    +0.070 A 
ATOM     21  C   LIG    1       -3.786  -0.951   0.316  0.00  0.00    +0.050 A 
ATOM     22  O   LIG    1       -2.507  -0.535   0.223  0.00  0.00    -0.180 OA
ATOM     23  C   LIG    1       -2.443   0.809   0.130  0.00  0.00    -0.040 A 
ATOM     24  C   LIG    1       -3.698   1.330   0.150  0.00  0.00    -0.060 A 
ATOM     25  C   LIG    1       -4.076   2.786   0.063  0.00  0.00    +0.140 C 
ATOM     26  C   LIG    1       -4.607   0.191   0.272  0.00  0.00    -0.110 A 
ATOM     27  C   LIG    1       -5.996   0.060   0.344  0.00  0.00    +0.040 A 
BRANCH  18  29
ATOM     28  C   LIG    1       -8.420  -2.662   0.646  0.00  0.00    +0.240 C 
ATOM     29  O   LIG    1       -7.907  -1.333   0.529  0.00  0.00    -0.310 OA
ENDBRANCH  18  29
ENDBRANCH   1  23
TORSDOF 3
