REMARK  Name = ZINCpe000000YXKi.0
REMARK                            x       y       z     vdW  Elec       q    Type
REMARK                         _______ _______ _______ _____ _____    ______ ____
ROOT
ATOM      1  O   LIG    1       -1.714   2.256   1.150  0.00  0.00    -0.520 OA
ATOM      2  C   LIG    1       -0.718   1.572   1.248  0.00  0.00    +0.510 C 
ATOM      3  N   LIG    1       -0.242   1.246   2.466  0.00  0.00    -0.730 N 
ATOM      4  H   LIG    1        0.555   0.699   2.544  0.00  0.00    +0.400 HD
ENDROOT
BRANCH   3   5
ATOM      5  C   LIG    1       -0.927   1.718   3.671  0.00  0.00    +0.270 C 
BRANCH   5   6
ATOM      6  C   LIG    1       -0.187   1.212   4.911  0.00  0.00    +0.190 C 
BRANCH   6   7
ATOM      7  N   LIG    1       -0.875   1.685   6.119  0.00  0.00    -0.550 NA
ATOM      8  C   LIG    1       -0.828   3.146   6.211  0.00  0.00    +0.220 C 
ATOM      9  C   LIG    1       -1.880   3.640   7.209  0.00  0.00    -0.320 C 
ATOM     10  S   LIG    1       -1.479   2.976   8.854  0.00  0.00    +2.410 S 
ATOM     11  C   LIG    1       -1.319   1.204   8.483  0.00  0.00    -0.320 C 
ATOM     12  O   LIG    1       -0.209   3.475   9.252  0.00  0.00    -0.940 OA
ATOM     13  O   LIG    1       -2.600   3.164   9.707  0.00  0.00    -0.940 OA
ATOM     14  C   LIG    1       -0.341   1.032   7.317  0.00  0.00    +0.230 C 
ENDBRANCH   6   7
ENDBRANCH   5   6
ENDBRANCH   3   5
BRANCH   2  15
ATOM     15  C   LIG    1       -0.013   1.086   0.008  0.00  0.00    +0.120 C 
BRANCH  15  16
ATOM     16  C   LIG    1       -0.742   1.585  -1.213  0.00  0.00    -0.080 A 
ATOM     17  C   LIG    1       -1.750   0.823  -1.774  0.00  0.00    +0.060 A 
ATOM     18  C   LIG    1       -2.423   1.280  -2.890  0.00  0.00    -0.010 A 
ATOM     19  C   LIG    1       -2.079   2.501  -3.455  0.00  0.00    +0.140 A 
ATOM     20  C   LIG    1       -1.062   3.261  -2.893  0.00  0.00    -0.010 A 
ATOM     21  C   LIG    1       -0.397   2.801  -1.773  0.00  0.00    +0.060 A 
BRANCH  19  22
ATOM     22  N   LIG    1       -2.756   2.965  -4.592  0.00  0.00    -0.400 N 
ATOM     23  C   LIG    1       -2.516   4.145  -5.235  0.00  0.00    +0.140 A 
ATOM     24  C   LIG    1       -3.363   4.234  -6.281  0.00  0.00    -0.050 A 
ATOM     25  C   LIG    1       -4.161   3.073  -6.279  0.00  0.00    -0.050 A 
ATOM     26  C   LIG    1       -3.769   2.314  -5.236  0.00  0.00    +0.140 A 
ENDBRANCH  19  22
ENDBRANCH  15  16
ENDBRANCH   2  15
TORSDOF 6
