REMARK  Name = ZINC650000002Eyy.0
REMARK                            x       y       z     vdW  Elec       q    Type
REMARK                         _______ _______ _______ _____ _____    ______ ____
ROOT
ATOM      1  C   LIG    1       -0.013   1.086   0.008  0.00  0.00    +0.150 C 
ATOM      2  C   LIG    1       -0.218   1.707  -1.384  0.00  0.00    +0.130 C 
ATOM      3  C   LIG    1        1.312   1.675  -1.537  0.00  0.00    +0.180 C 
ATOM      4  C   LIG    1        1.388   1.721  -0.002  0.00  0.00    +0.120 C 
ENDROOT
BRANCH   1   5
ATOM      5  N   LIG    1       -0.902   1.639   1.038  0.00  0.00    -0.630 N 
ATOM      6  H   LIG    1       -0.509   1.465   1.951  0.00  0.00    +0.450 HD
ATOM      7  H   LIG    1       -1.807   1.198   0.973  0.00  0.00    +0.450 HD
ATOM      8  H   LIG    1       -1.002   2.633   0.898  0.00  0.00    +0.440 HD
ENDBRANCH   1   5
BRANCH   3   9
ATOM      9  N   LIG    1        1.821   0.424  -2.115  0.00  0.00    -0.630 N 
ATOM     10  H   LIG    1        2.790   0.305  -1.858  0.00  0.00    +0.450 HD
ATOM     11  H   LIG    1        1.742   0.461  -3.120  0.00  0.00    +0.450 HD
ATOM     12  H   LIG    1        1.282  -0.353  -1.763  0.00  0.00    +0.430 HD
ENDBRANCH   3   9
TORSDOF 2
