REMARK  Name = ZINCtV00000wDaQy.0
REMARK                            x       y       z     vdW  Elec       q    Type
REMARK                         _______ _______ _______ _____ _____    ______ ____
ROOT
ATOM      1  C   LIG    1       -6.723  -0.724   0.204  0.00  0.00    +0.250 C 
ATOM      2  C   LIG    1       -7.296  -0.678   1.636  0.00  0.00    +0.020 C 
ATOM      3  C   LIG    1       -8.696  -1.328   1.505  0.00  0.00    +0.030 C 
ATOM      4  C   LIG    1       -9.191  -0.801   0.136  0.00  0.00    +0.030 C 
ATOM      5  C   LIG    1       -7.928  -0.802  -0.750  0.00  0.00    +0.030 C 
ENDROOT
BRANCH   5   6
ATOM      6  C   LIG    1       -7.939   0.393  -1.667  0.00  0.00    -0.030 A 
ATOM      7  C   LIG    1       -8.990   1.290  -1.621  0.00  0.00    +0.020 A 
ATOM      8  C   LIG    1       -8.997   2.389  -2.459  0.00  0.00    +0.070 A 
ATOM      9  C   LIG    1       -7.959   2.587  -3.349  0.00  0.00    -0.180 A 
ATOM     10  C   LIG    1       -6.910   1.688  -3.398  0.00  0.00    +0.070 A 
ATOM     11  C   LIG    1       -6.900   0.591  -2.557  0.00  0.00    +0.010 A 
BRANCH   9  12
ATOM     12  C   LIG    1       -7.970   3.782  -4.267  0.00  0.00    +0.510 C 
ATOM     13  F   LIG    1       -6.655   4.169  -4.545  0.00  0.00    -0.180 F 
ATOM     14  F   LIG    1       -8.646   4.839  -3.648  0.00  0.00    -0.180 F 
ATOM     15  F   LIG    1       -8.620   3.448  -5.460  0.00  0.00    -0.180 F 
ENDBRANCH   9  12
ENDBRANCH   5   6
BRANCH   1  17
ATOM     16  C   LIG    1       -6.559   1.807   0.127  0.00  0.00    +0.320 C 
ATOM     17  N   LIG    1       -5.947   0.489  -0.065  0.00  0.00    -0.550 N 
BRANCH  17  18
ATOM     18  C   LIG    1       -4.647   0.392  -0.497  0.00  0.00    +0.430 A 
ATOM     19  N   LIG    1       -3.834   1.393  -0.777  0.00  0.00    -0.520 NA
ATOM     20  C   LIG    1       -2.673   0.820  -1.158  0.00  0.00    +0.240 A 
ATOM     21  N   LIG    1       -2.840  -0.476  -1.097  0.00  0.00    -0.390 NA
ATOM     22  O   LIG    1       -3.961  -0.739  -0.715  0.00  0.00    +0.040 OA
BRANCH  20  23
ATOM     23  C   LIG    1       -1.437   1.528  -1.576  0.00  0.00    -0.020 A 
ATOM     24  C   LIG    1       -0.307   0.802  -1.946  0.00  0.00    +0.070 A 
ATOM     25  C   LIG    1        0.838   1.465  -2.339  0.00  0.00    +0.030 A 
ATOM     26  C   LIG    1        0.866   2.849  -2.361  0.00  0.00    -0.020 A 
ATOM     27  C   LIG    1       -0.254   3.575  -1.990  0.00  0.00    +0.030 A 
ATOM     28 CL   LIG    1        2.309   3.678  -2.857  0.00  0.00    -0.060 Cl
ATOM     29  C   LIG    1       -1.403   2.921  -1.595  0.00  0.00    +0.090 A 
ENDBRANCH  20  23
ENDBRANCH  17  18
ENDBRANCH   1  17
TORSDOF 5
