REMARK  Name = ZINCpe00000gMrxP.0
REMARK                            x       y       z     vdW  Elec       q    Type
REMARK                         _______ _______ _______ _____ _____    ______ ____
ROOT
ATOM      1  C   LIG    1        0.238  -0.540  -5.630  0.00  0.00    +0.610 C 
ATOM      2  N   LIG    1        1.303  -0.695  -6.442  0.00  0.00    -0.600 N 
ATOM      3  C   LIG    1        2.660  -0.179  -6.186  0.00  0.00    +0.270 C 
ATOM      4  C   LIG    1        3.310  -0.056  -7.585  0.00  0.00    +0.160 C 
ATOM      5  C   LIG    1        2.728  -1.296  -8.312  0.00  0.00    +0.100 C 
ATOM      6  C   LIG    1        1.301  -1.399  -7.732  0.00  0.00    +0.340 C 
ATOM      7  O   LIG    1       -0.840  -1.005  -5.946  0.00  0.00    -0.530 OA
ENDROOT
BRANCH   6   8
ATOM      8  C   LIG    1        0.932  -2.846  -7.525  0.00  0.00    +0.210 A 
ATOM      9  N   LIG    1        0.947  -3.773  -8.443  0.00  0.00    -0.480 NA
ATOM     10  C   LIG    1        0.562  -4.938  -7.901  0.00  0.00    +0.000 A 
ATOM     11  C   LIG    1        0.290  -4.723  -6.600  0.00  0.00    -0.030 A 
ATOM     12  C   LIG    1       -0.182  -5.746  -5.600  0.00  0.00    +0.130 C 
ATOM     13  C   LIG    1        0.447  -6.256  -8.623  0.00  0.00    +0.140 C 
ATOM     14  N   LIG    1        0.524  -3.396  -6.361  0.00  0.00    -0.550 N 
ATOM     15  H   LIG    1        0.418  -2.936  -5.514  0.00  0.00    +0.410 HD
ENDBRANCH   6   8
BRANCH   1  18
ATOM     16  N   LIG    1       -0.067   1.120  -2.437  0.00  0.00    -0.360 N 
ATOM     17  C   LIG    1       -0.614   0.419  -3.450  0.00  0.00    +0.320 A 
ATOM     18  C   LIG    1        0.381   0.193  -4.358  0.00  0.00    -0.100 A 
ATOM     19  N   LIG    1        1.513   0.752  -3.896  0.00  0.00    -0.200 NA
ATOM     20  N   LIG    1        1.283   1.315  -2.761  0.00  0.00    -0.060 NA
BRANCH  16  21
ATOM     21  C   LIG    1       -0.753   1.593  -1.232  0.00  0.00    +0.350 C 
BRANCH  21  22
ATOM     22  C   LIG    1       -0.013   1.086   0.008  0.00  0.00    +0.180 C 
BRANCH  22  24
ATOM     23  C   LIG    1       -0.068   1.127   2.404  0.00  0.00    +0.220 C 
ATOM     24  O   LIG    1       -0.682   1.547   1.184  0.00  0.00    -0.390 OA
ENDBRANCH  22  24
ENDBRANCH  21  22
ENDBRANCH  16  21
ENDBRANCH   1  18
BRANCH   4  25
ATOM     25  O   LIG    1        2.903   1.153  -8.229  0.00  0.00    -0.370 OA
ATOM     26  C   LIG    1        3.845   2.221  -8.109  0.00  0.00    +0.210 C 
ENDBRANCH   4  25
TORSDOF 6
