REMARK  Name = ZINCtV00000L6jE1.1
REMARK                            x       y       z     vdW  Elec       q    Type
REMARK                         _______ _______ _______ _____ _____    ______ ____
ROOT
ATOM      1  C   LIG    1       -5.256   9.561   4.432  0.00  0.00    -0.050 A 
ATOM      2  C   LIG    1       -5.108  10.576   5.368  0.00  0.00    +0.010 A 
ATOM      3  C   LIG    1       -3.905  11.246   5.472  0.00  0.00    +0.100 A 
ATOM      4  C   LIG    1       -2.841  10.910   4.644  0.00  0.00    -0.140 A 
ATOM      5  S   LIG    1       -1.321  11.785   4.798  0.00  0.00    +0.040 S 
ATOM      6  C   LIG    1       -0.491  11.433   3.286  0.00  0.00    -0.130 A 
ATOM      7  C   LIG    1        0.567  12.240   2.886  0.00  0.00    +0.060 A 
ATOM      8  C   LIG    1        1.229  11.982   1.701  0.00  0.00    +0.020 A 
ATOM      9  C   LIG    1        0.838  10.918   0.910  0.00  0.00    +0.030 A 
ATOM     10  C   LIG    1       -0.213  10.110   1.301  0.00  0.00    +0.050 A 
ATOM     11  C   LIG    1       -0.885  10.360   2.493  0.00  0.00    +0.140 A 
ATOM     12  N   LIG    1       -1.938   9.523   2.858  0.00  0.00    -0.490 N 
ATOM     13  C   LIG    1       -1.948   8.271   2.358  0.00  0.00    +0.520 C 
ATOM     14  O   LIG    1       -1.100   7.929   1.560  0.00  0.00    -0.480 OA
ATOM     15  C   LIG    1       -2.985   9.895   3.701  0.00  0.00    +0.170 A 
ATOM     16  C   LIG    1       -4.195   9.221   3.603  0.00  0.00    +0.000 A 
ENDROOT
BRANCH   1  18
ATOM     17  C   LIG    1       -7.816   9.501   5.562  0.00  0.00    +0.140 C 
ATOM     18  S   LIG    1       -6.789   8.704   4.296  0.00  0.00    -0.100 S 
ENDBRANCH   1  18
BRANCH  13  19
ATOM     19  C   LIG    1       -3.013   7.296   2.790  0.00  0.00    +0.230 C 
BRANCH  19  20
ATOM     20  N   LIG    1       -2.475   5.929   2.739  0.00  0.00    -0.670 NA
ATOM     21  H   LIG    1       -2.120   5.715   1.819  0.00  0.00    +0.360 HD
BRANCH  20  22
ATOM     22  C   LIG    1       -3.488   4.949   3.154  0.00  0.00    +0.190 C 
ATOM     23  C   LIG    1       -3.481   4.824   4.679  0.00  0.00    +0.050 C 
BRANCH  22  24
ATOM     24  C   LIG    1       -3.173   3.610   2.539  0.00  0.00    -0.090 A 
ATOM     25  C   LIG    1       -4.194   2.817   2.051  0.00  0.00    +0.030 A 
ATOM     26  C   LIG    1       -3.906   1.588   1.487  0.00  0.00    +0.020 A 
ATOM     27  C   LIG    1       -2.595   1.153   1.411  0.00  0.00    -0.030 A 
ATOM     28  C   LIG    1       -1.573   1.945   1.904  0.00  0.00    +0.020 A 
ATOM     29 CL   LIG    1       -2.232  -0.390   0.702  0.00  0.00    -0.070 Cl
ATOM     30  C   LIG    1       -1.862   3.176   2.463  0.00  0.00    +0.050 A 
ENDBRANCH  22  24
ENDBRANCH  20  22
ENDBRANCH  19  20
ENDBRANCH  13  19
TORSDOF 5
