REMARK  Name = ZINCrH000004tGsV.0
REMARK                            x       y       z     vdW  Elec       q    Type
REMARK                         _______ _______ _______ _____ _____    ______ ____
ROOT
ATOM      1  C   LIG    1       -3.779   2.677  -1.681  0.00  0.00    +0.510 C 
ATOM      2  N   LIG    1       -2.801   3.555  -1.380  0.00  0.00    -0.590 N 
ATOM      3  O   LIG    1       -4.283   2.007  -0.804  0.00  0.00    -0.500 OA
ENDROOT
BRANCH   2   4
ATOM      4  C   LIG    1       -2.114   4.280  -2.451  0.00  0.00    +0.220 C 
ATOM      5  C   LIG    1       -2.879   4.505  -3.756  0.00  0.00    +0.010 C 
ATOM      6  C   LIG    1       -1.732   3.492  -3.706  0.00  0.00    +0.020 C 
ENDBRANCH   2   4
BRANCH   1   7
ATOM      7  C   LIG    1       -4.245   2.527  -3.106  0.00  0.00    +0.070 C 
BRANCH   7   8
ATOM      8  C   LIG    1       -4.991   1.200  -3.262  0.00  0.00    +0.020 C 
BRANCH   8   9
ATOM      9  C   LIG    1       -5.464   1.048  -4.709  0.00  0.00    +0.330 C 
BRANCH   9  19
ATOM     10  O   LIG    1       -8.304   0.443  -4.379  0.00  0.00    -0.480 OA
ATOM     11  C   LIG    1       -7.501  -0.417  -4.686  0.00  0.00    +0.640 A 
ATOM     12  O   LIG    1       -7.795  -1.708  -4.908  0.00  0.00    -0.240 OA
ATOM     13  C   LIG    1       -6.659  -2.375  -5.229  0.00  0.00    +0.030 A 
ATOM     14  C   LIG    1       -6.398  -3.698  -5.546  0.00  0.00    +0.060 A 
ATOM     15  C   LIG    1       -5.106  -4.095  -5.837  0.00  0.00    +0.030 A 
ATOM     16  C   LIG    1       -4.071  -3.176  -5.812  0.00  0.00    +0.040 A 
ATOM     17  C   LIG    1       -4.323  -1.855  -5.496  0.00  0.00    +0.030 A 
ATOM     18  C   LIG    1       -5.616  -1.449  -5.209  0.00  0.00    +0.070 A 
ATOM     19  N   LIG    1       -6.179  -0.222  -4.858  0.00  0.00    -0.540 N 
ENDBRANCH   9  19
ENDBRANCH   8   9
ENDBRANCH   7   8
ENDBRANCH   1   7
BRANCH   2  20
ATOM     20  C   LIG    1       -2.427   3.784   0.018  0.00  0.00    +0.350 C 
BRANCH  20  21
ATOM     21  C   LIG    1       -1.336   2.821   0.410  0.00  0.00    -0.150 A 
ATOM     22  C   LIG    1       -0.034   3.265   0.535  0.00  0.00    +0.050 A 
ATOM     23  C   LIG    1        0.967   2.382   0.895  0.00  0.00    -0.010 A 
ATOM     24  C   LIG    1        0.666   1.053   1.129  0.00  0.00    +0.050 A 
ATOM     25  C   LIG    1       -0.636   0.606   1.004  0.00  0.00    -0.030 A 
ATOM     26  C   LIG    1       -1.638   1.489   0.639  0.00  0.00    +0.120 A 
ATOM     27  F   LIG    1       -2.910   1.052   0.512  0.00  0.00    -0.110 F 
ENDBRANCH  20  21
ENDBRANCH   2  20
TORSDOF 7
