REMARK  Name = ZINCrD00000hQ7kV.0
REMARK                            x       y       z     vdW  Elec       q    Type
REMARK                         _______ _______ _______ _____ _____    ______ ____
ROOT
ATOM      1  C   LIG    1        5.563  -0.139   5.486  0.00  0.00    -0.030 C 
ATOM      2  C   LIG    1        5.576   1.365   5.771  0.00  0.00    +0.110 C 
ATOM      3  C   LIG    1        5.223   0.378   6.886  0.00  0.00    -0.020 C 
ENDROOT
BRANCH   1   5
ATOM      4  O   LIG    1        3.473  -1.194   5.188  0.00  0.00    -0.510 OA
ATOM      5  C   LIG    1        4.431  -0.679   4.651  0.00  0.00    +0.540 C 
ATOM      6  N   LIG    1        4.484  -0.592   3.307  0.00  0.00    -0.730 N 
ATOM      7  H   LIG    1        5.251  -0.180   2.878  0.00  0.00    +0.400 HD
BRANCH   6   8
ATOM      8  C   LIG    1        3.384  -1.117   2.495  0.00  0.00    +0.320 C 
BRANCH   8   9
ATOM      9  C   LIG    1        3.701  -0.910   1.012  0.00  0.00    -0.150 C 
ATOM     10  C   LIG    1        5.049  -1.511   0.581  0.00  0.00    +0.070 C 
ATOM     11  C   LIG    1        4.285  -2.814   0.288  0.00  0.00    +0.040 C 
ATOM     12  C   LIG    1        3.034  -1.943   0.088  0.00  0.00    +0.070 C 
BRANCH   9  13
ATOM     13  C   LIG    1        3.502   0.537   0.558  0.00  0.00    +0.460 C 
ATOM     14  F   LIG    1        4.447   1.356   1.185  0.00  0.00    -0.180 F 
ATOM     15  F   LIG    1        2.215   0.962   0.905  0.00  0.00    -0.180 F 
ATOM     16  F   LIG    1        3.661   0.617  -0.829  0.00  0.00    -0.180 F 
ENDBRANCH   9  13
ENDBRANCH   8   9
ENDBRANCH   6   8
ENDBRANCH   1   5
BRANCH   3  17
ATOM     17  C   LIG    1        3.783   0.307   7.323  0.00  0.00    +0.560 C 
ATOM     18  N   LIG    1        3.310  -0.812   7.907  0.00  0.00    -0.710 N 
ATOM     19  H   LIG    1        3.897  -1.571   8.045  0.00  0.00    +0.400 HD
ATOM     20  O   LIG    1        3.050   1.258   7.150  0.00  0.00    -0.540 OA
BRANCH  18  21
ATOM     21  C   LIG    1        1.910  -0.880   8.332  0.00  0.00    +0.320 C 
BRANCH  21  22
ATOM     22  C   LIG    1        1.599  -2.290   8.839  0.00  0.00    -0.150 C 
ATOM     23  C   LIG    1        0.324  -2.369   9.695  0.00  0.00    +0.070 C 
ATOM     24  C   LIG    1        1.220  -2.071  10.912  0.00  0.00    +0.040 C 
ATOM     25  C   LIG    1        2.382  -2.675  10.106  0.00  0.00    +0.060 C 
BRANCH  22  26
ATOM     26  C   LIG    1        1.663  -3.346   7.735  0.00  0.00    +0.470 C 
ATOM     27  F   LIG    1        0.817  -2.974   6.684  0.00  0.00    -0.180 F 
ATOM     28  F   LIG    1        1.254  -4.582   8.248  0.00  0.00    -0.180 F 
ATOM     29  F   LIG    1        2.976  -3.449   7.262  0.00  0.00    -0.180 F 
ENDBRANCH  22  26
ENDBRANCH  21  22
ENDBRANCH  18  21
ENDBRANCH   3  17
TORSDOF 8
