REMARK  Name = ZINCrH000004pBAh.0
REMARK                            x       y       z     vdW  Elec       q    Type
REMARK                         _______ _______ _______ _____ _____    ______ ____
ROOT
ATOM      1  N   LIG    1       -3.024   0.785  -1.485  0.00  0.00    -0.610 N 
ATOM      2  C   LIG    1       -2.693   0.980  -0.069  0.00  0.00    +0.300 C 
ATOM      3  C   LIG    1       -1.524   1.991  -0.054  0.00  0.00    +0.010 C 
ATOM      4  C   LIG    1       -1.744   2.746  -1.386  0.00  0.00    +0.070 C 
ATOM      5  C   LIG    1       -2.508   1.765  -2.247  0.00  0.00    +0.520 C 
ATOM      6  O   LIG    1       -2.636   1.850  -3.450  0.00  0.00    -0.510 OA
ENDROOT
BRANCH   3   7
ATOM      7  C   LIG    1       -0.196   1.279  -0.051  0.00  0.00    +0.520 C 
ATOM      8  N   LIG    1        0.949   1.990  -0.044  0.00  0.00    -0.650 N 
ATOM      9  H   LIG    1        0.920   2.958  -0.103  0.00  0.00    +0.420 HD
ATOM     10  O   LIG    1       -0.157   0.067  -0.059  0.00  0.00    -0.510 OA
BRANCH   8  11
ATOM     11  C   LIG    1        2.179   1.333   0.047  0.00  0.00    +0.160 A 
ATOM     12  C   LIG    1        2.355   0.105  -0.552  0.00  0.00    +0.040 A 
ATOM     13  C   LIG    1        3.576  -0.558  -0.473  0.00  0.00    +0.040 A 
ATOM     14  C   LIG    1        4.625  -0.017   0.206  0.00  0.00    +0.020 A 
ATOM     15  C   LIG    1        4.483   1.231   0.835  0.00  0.00    -0.090 A 
ATOM     16  C   LIG    1        5.548   1.817   1.546  0.00  0.00    +0.080 A 
ATOM     17  C   LIG    1        5.339   3.033   2.133  0.00  0.00    -0.030 A 
ATOM     18  C   LIG    1        4.098   3.656   2.018  0.00  0.00    +0.290 A 
ATOM     19  N   LIG    1        3.109   3.106   1.356  0.00  0.00    -0.480 NA
ATOM     20  C   LIG    1        3.248   1.920   0.759  0.00  0.00    +0.110 A 
ENDBRANCH   8  11
ENDBRANCH   3   7
BRANCH   1  22
ATOM     21  C   LIG    1       -2.938  -1.201  -2.910  0.00  0.00    +0.040 C 
ATOM     22  C   LIG    1       -3.814  -0.335  -2.003  0.00  0.00    +0.300 C 
BRANCH  22  23
ATOM     23  C   LIG    1       -4.983   0.196  -2.791  0.00  0.00    -0.090 A 
ATOM     24  C   LIG    1       -5.676   1.303  -2.338  0.00  0.00    +0.020 A 
ATOM     25  C   LIG    1       -6.746   1.793  -3.063  0.00  0.00    +0.000 A 
ATOM     26  C   LIG    1       -7.128   1.171  -4.237  0.00  0.00    +0.000 A 
ATOM     27  C   LIG    1       -6.437   0.062  -4.688  0.00  0.00    +0.000 A 
ATOM     28  C   LIG    1       -5.365  -0.426  -3.965  0.00  0.00    +0.020 A 
ENDBRANCH  22  23
ENDBRANCH   1  22
TORSDOF 4
