REMARK  Name = ZINCqH0000006RJW.0
REMARK                            x       y       z     vdW  Elec       q    Type
REMARK                         _______ _______ _______ _____ _____    ______ ____
ROOT
ATOM      1  N   LIG    1       -1.528   6.260  -0.596  0.00  0.00    -0.660 N 
ATOM      2  H   LIG    1       -0.637   6.441  -0.932  0.00  0.00    +0.420 HD
ATOM      3  C   LIG    1       -1.780   5.113   0.065  0.00  0.00    +0.540 C 
ATOM      4  O   LIG    1       -2.868   4.929   0.568  0.00  0.00    -0.490 OA
ENDROOT
BRANCH   1   7
ATOM      5  C   LIG    1       -3.284   9.469  -1.016  0.00  0.00    +0.190 A 
ATOM      6  C   LIG    1       -2.267   8.548  -0.815  0.00  0.00    -0.070 A 
ATOM      7  C   LIG    1       -2.554   7.190  -0.798  0.00  0.00    +0.220 A 
ATOM      8  C   LIG    1       -3.859   6.755  -0.988  0.00  0.00    -0.050 A 
ATOM      9  C   LIG    1       -4.875   7.677  -1.183  0.00  0.00    +0.190 A 
ATOM     10  C   LIG    1       -4.587   9.034  -1.200  0.00  0.00    -0.170 A 
BRANCH   5  12
ATOM     11  C   LIG    1       -4.098  11.691  -1.245  0.00  0.00    +0.250 C 
ATOM     12  O   LIG    1       -3.002  10.799  -1.033  0.00  0.00    -0.310 OA
ENDBRANCH   5  12
BRANCH   9  13
ATOM     13  O   LIG    1       -6.153   7.252  -1.364  0.00  0.00    -0.310 OA
ATOM     14  C   LIG    1       -7.149   8.256  -1.566  0.00  0.00    +0.250 C 
ENDBRANCH   9  13
ENDBRANCH   1   7
BRANCH   3  15
ATOM     15  C   LIG    1       -0.708   4.059   0.180  0.00  0.00    +0.030 C 
ATOM     16  C   LIG    1        0.194   4.378   1.373  0.00  0.00    +0.090 C 
BRANCH  15  17
ATOM     17  S   LIG    1       -1.479   2.439   0.421  0.00  0.00    +0.070 S 
BRANCH  17  18
ATOM     18  C   LIG    1       -0.049   1.410   0.370  0.00  0.00    +0.250 A 
ATOM     19  N   LIG    1        1.178   1.834   0.192  0.00  0.00    -0.490 NA
ATOM     20  C   LIG    1        2.031   0.777   0.201  0.00  0.00    +0.060 A 
ATOM     21  C   LIG    1        3.416   0.661   0.059  0.00  0.00    +0.060 A 
ATOM     22  C   LIG    1        4.008  -0.582   0.115  0.00  0.00    +0.010 A 
ATOM     23  C   LIG    1        3.239  -1.719   0.312  0.00  0.00    +0.030 A 
ATOM     24  C   LIG    1        1.870  -1.621   0.455  0.00  0.00    +0.010 A 
ATOM     25  C   LIG    1        1.258  -0.378   0.401  0.00  0.00    +0.050 A 
ATOM     26  N   LIG    1       -0.056   0.051   0.505  0.00  0.00    -0.480 N 
ATOM     27  C   LIG    1       -1.232  -0.796   0.719  0.00  0.00    +0.330 C 
ENDBRANCH  17  18
ENDBRANCH  15  17
ENDBRANCH   3  15
TORSDOF 6
