REMARK  Name = ZINCrH000004lkph.0
REMARK                            x       y       z     vdW  Elec       q    Type
REMARK                         _______ _______ _______ _____ _____    ______ ____
ROOT
ATOM      1  N   LIG    1        7.219  -0.100  -0.311  0.00  0.00    -0.540 NA
ATOM      2  C   LIG    1        7.119   1.124  -1.119  0.00  0.00    +0.210 C 
ATOM      3  C   LIG    1        6.037   2.033  -0.531  0.00  0.00    +0.190 C 
ATOM      4  N   LIG    1        4.756   1.313  -0.509  0.00  0.00    -0.520 NA
ATOM      5  C   LIG    1        4.856   0.090   0.298  0.00  0.00    +0.190 C 
ATOM      6  C   LIG    1        5.938  -0.819  -0.289  0.00  0.00    +0.190 C 
ENDROOT
BRANCH   4   7
ATOM      7  C   LIG    1        3.674   2.180  -0.021  0.00  0.00    +0.220 C 
ATOM      8  C   LIG    1        3.889   2.475   1.465  0.00  0.00    +0.000 C 
BRANCH   7   9
ATOM      9  C   LIG    1        2.350   1.485  -0.209  0.00  0.00    -0.070 A 
ATOM     10  C   LIG    1        1.705   0.922   0.875  0.00  0.00    +0.020 A 
ATOM     11  C   LIG    1        0.490   0.284   0.703  0.00  0.00    +0.010 A 
ATOM     12  C   LIG    1       -0.079   0.209  -0.554  0.00  0.00    +0.020 A 
ATOM     13  C   LIG    1        0.566   0.771  -1.640  0.00  0.00    +0.020 A 
ATOM     14  C   LIG    1        1.781   1.409  -1.468  0.00  0.00    -0.010 A 
ATOM     15 CL   LIG    1        2.592   2.116  -2.831  0.00  0.00    -0.060 Cl
ENDBRANCH   7   9
ENDBRANCH   4   7
BRANCH   1  16
ATOM     16  C   LIG    1        8.301  -0.966  -0.799  0.00  0.00    +0.510 C 
BRANCH  16  19
ATOM     17  C   LIG    1        7.923  -4.041   1.134  0.00  0.00    +0.340 A 
ATOM     18  N   LIG    1        8.193  -2.801   0.867  0.00  0.00    -0.320 NA
ATOM     19  N   LIG    1        8.022  -2.354  -0.423  0.00  0.00    -0.330 N 
ATOM     20  C   LIG    1        7.592  -3.257  -1.325  0.00  0.00    +0.240 A 
ATOM     21  S   LIG    1        7.293  -3.010  -2.993  0.00  0.00    -0.440 S 
ATOM     22  S   LIG    1        7.403  -4.760  -0.401  0.00  0.00    +0.070 S 
BRANCH  17  23
ATOM     23  N   LIG    1        8.027  -4.675   2.364  0.00  0.00    -0.660 N 
ATOM     24  H   LIG    1        8.325  -4.179   3.142  0.00  0.00    +0.420 HD
BRANCH  23  25
ATOM     25  C   LIG    1        7.685  -6.095   2.487  0.00  0.00    +0.300 C 
BRANCH  25  26
ATOM     26  C   LIG    1        7.884  -6.543   3.936  0.00  0.00    +0.190 C 
BRANCH  26  28
ATOM     27  C   LIG    1        7.059  -6.205   6.161  0.00  0.00    +0.210 C 
ATOM     28  O   LIG    1        6.956  -5.856   4.779  0.00  0.00    -0.390 OA
ENDBRANCH  26  28
ENDBRANCH  25  26
ENDBRANCH  23  25
ENDBRANCH  17  23
ENDBRANCH  16  19
ENDBRANCH   1  16
TORSDOF 8
