REMARK  Name = ZINCrD00000F5LE7.0
REMARK                            x       y       z     vdW  Elec       q    Type
REMARK                         _______ _______ _______ _____ _____    ______ ____
ROOT
ATOM      1  C   LIG    1        4.625  -0.325  -3.552  0.00  0.00    +0.070 C 
ENDROOT
BRANCH   1   2
ATOM      2  C   LIG    1        4.135  -0.363  -2.127  0.00  0.00    +0.530 C 
ATOM      3  N   LIG    1        3.695   0.764  -1.535  0.00  0.00    -0.610 N 
ATOM      4  O   LIG    1        4.138  -1.410  -1.514  0.00  0.00    -0.540 OA
BRANCH   3   5
ATOM      5  C   LIG    1        3.218   0.726  -0.150  0.00  0.00    +0.410 C 
BRANCH   5   6
ATOM      6  C   LIG    1        1.739   0.440  -0.135  0.00  0.00    -0.050 A 
ATOM      7  C   LIG    1        1.174  -0.779  -0.086  0.00  0.00    -0.030 A 
ATOM      8  C   LIG    1       -0.226  -0.582  -0.090  0.00  0.00    -0.070 A 
ATOM      9  C   LIG    1       -0.433   0.746  -0.143  0.00  0.00    -0.010 A 
ATOM     10  C   LIG    1       -1.776   1.428  -0.173  0.00  0.00    +0.180 C 
ATOM     11  O   LIG    1        0.761   1.360  -0.170  0.00  0.00    -0.180 OA
ENDBRANCH   5   6
ENDBRANCH   3   5
BRANCH   3  12
ATOM     12  C   LIG    1        3.692   2.028  -2.276  0.00  0.00    +0.300 C 
BRANCH  12  13
ATOM     13  C   LIG    1        5.027   2.745  -2.067  0.00  0.00    +0.150 C 
BRANCH  13  14
ATOM     14  O   LIG    1        6.079   1.970  -2.646  0.00  0.00    -0.390 OA
ATOM     15  C   LIG    1        7.376   2.554  -2.505  0.00  0.00    +0.200 C 
ENDBRANCH  13  14
ENDBRANCH  12  13
ENDBRANCH   3  12
ENDBRANCH   1   2
BRANCH   1  16
ATOM     16  C   LIG    1        5.064  -1.726  -3.979  0.00  0.00    +0.100 C 
BRANCH  16  20
ATOM     17  C   LIG    1        6.454  -1.617  -8.019  0.00  0.00    +0.140 A 
ATOM     18  C   LIG    1        7.341  -1.403  -6.972  0.00  0.00    -0.020 A 
ATOM     19  C   LIG    1        6.889  -1.439  -5.668  0.00  0.00    +0.040 A 
ATOM     20  C   LIG    1        5.554  -1.687  -5.403  0.00  0.00    -0.090 A 
ATOM     21  C   LIG    1        4.669  -1.905  -6.443  0.00  0.00    +0.020 A 
ATOM     22  C   LIG    1        5.114  -1.865  -7.750  0.00  0.00    +0.010 A 
BRANCH  17  24
ATOM     23  C   LIG    1        6.102  -1.123 -10.319  0.00  0.00    +0.540 C 
ATOM     24  N   LIG    1        6.908  -1.581  -9.341  0.00  0.00    -0.670 N 
ATOM     25  H   LIG    1        7.804  -1.887  -9.554  0.00  0.00    +0.410 HD
ATOM     26  O   LIG    1        5.016  -0.650 -10.040  0.00  0.00    -0.520 OA
BRANCH  23  28
ATOM     27  C   LIG    1        5.740  -0.740 -12.688  0.00  0.00    +0.160 C 
ATOM     28  C   LIG    1        6.535  -1.193 -11.723  0.00  0.00    -0.090 C 
ENDBRANCH  23  28
ENDBRANCH  17  24
ENDBRANCH  16  20
ENDBRANCH   1  16
TORSDOF 10
