REMARK  Name = ZINCvU0000000A47.0
REMARK                            x       y       z     vdW  Elec       q    Type
REMARK                         _______ _______ _______ _____ _____    ______ ____
ROOT
ATOM      1  C   LIG    1       -3.090  -1.832  -1.169  0.00  0.00    +0.140 A 
ATOM      2  C   LIG    1       -3.659  -2.248   0.029  0.00  0.00    +0.030 A 
ATOM      3  C   LIG    1       -3.085  -1.888   1.234  0.00  0.00    +0.020 A 
ATOM      4  C   LIG    1       -1.937  -1.116   1.255  0.00  0.00    +0.120 A 
ATOM      5  C   LIG    1       -1.361  -0.689   0.052  0.00  0.00    -0.050 A 
ATOM      6  C   LIG    1       -1.943  -1.054  -1.160  0.00  0.00    +0.030 A 
ENDROOT
BRANCH   5   7
ATOM      7  C   LIG    1       -0.136   0.142   0.069  0.00  0.00    -0.070 A 
ATOM      8  C   LIG    1        1.117  -0.455   0.053  0.00  0.00    +0.140 A 
ATOM      9  C   LIG    1        2.275   0.325   0.068  0.00  0.00    -0.010 A 
ATOM     10  C   LIG    1        2.207   1.683   0.099  0.00  0.00    +0.050 A 
ATOM     11  C   LIG    1        0.957   2.328   0.117  0.00  0.00    -0.060 A 
ATOM     12  C   LIG    1        0.863   3.729   0.149  0.00  0.00    +0.030 A 
ATOM     13  C   LIG    1       -0.363   4.323   0.165  0.00  0.00    +0.010 A 
ATOM     14  C   LIG    1       -1.528   3.560   0.151  0.00  0.00    +0.010 A 
ATOM     15  C   LIG    1       -1.474   2.199   0.113  0.00  0.00    +0.020 A 
ATOM     16  C   LIG    1       -0.230   1.554   0.102  0.00  0.00    -0.020 A 
BRANCH   8  17
ATOM     17  O   LIG    1        1.218  -1.809   0.021  0.00  0.00    -0.490 OA
ATOM     18  H   LIG    1        1.245  -2.181  -0.871  0.00  0.00    +0.390 HD
ENDBRANCH   8  17
ENDBRANCH   5   7
BRANCH   1  19
ATOM     19  N   LIG    1       -3.676  -2.200  -2.385  0.00  0.00    -1.060 N 
ATOM     20  H   LIG    1       -3.805  -1.537  -3.082  0.00  0.00    +0.430 HD
BRANCH  19  21
ATOM     21  S   LIG    1       -4.149  -3.767  -2.636  0.00  0.00    +2.690 S 
ATOM     22  O   LIG    1       -4.593  -3.841  -3.984  0.00  0.00    -0.950 OA
ATOM     23  O   LIG    1       -4.966  -4.121  -1.529  0.00  0.00    -0.950 OA
BRANCH  21  27
ATOM     24  C   LIG    1       -0.440  -6.347  -2.367  0.00  0.00    -0.010 A 
ATOM     25  C   LIG    1       -1.244  -6.174  -1.256  0.00  0.00    -0.010 A 
ATOM     26  C   LIG    1       -2.376  -5.386  -1.338  0.00  0.00    +0.130 A 
ATOM     27  C   LIG    1       -2.705  -4.771  -2.531  0.00  0.00    -0.680 A 
ATOM     28  C   LIG    1       -1.905  -4.948  -3.644  0.00  0.00    +0.120 A 
ATOM     29  C   LIG    1       -0.769  -5.732  -3.560  0.00  0.00    -0.010 A 
BRANCH  24  31
ATOM     30  C   LIG    1        0.683  -8.364  -3.272  0.00  0.00    +0.030 C 
ATOM     31  C   LIG    1        0.794  -7.207  -2.277  0.00  0.00    +0.010 C 
ATOM     32  C   LIG    1        2.028  -6.365  -2.611  0.00  0.00    +0.030 C 
ENDBRANCH  24  31
ENDBRANCH  21  27
ENDBRANCH  19  21
ENDBRANCH   1  19
BRANCH   4  33
ATOM     33  O   LIG    1       -1.371  -0.768   2.441  0.00  0.00    -0.490 OA
ATOM     34  H   LIG    1       -1.703   0.063   2.807  0.00  0.00    +0.390 HD
ENDBRANCH   4  33
TORSDOF 7
