REMARK  Name = ZINCrD0000072lbQ.0
REMARK                            x       y       z     vdW  Elec       q    Type
REMARK                         _______ _______ _______ _____ _____    ______ ____
ROOT
ATOM      1  C   LIG    1        3.804  -0.907  -0.046  0.00  0.00    +0.190 C 
ATOM      2  C   LIG    1        4.283  -1.132   1.389  0.00  0.00    +0.080 C 
ENDROOT
BRANCH   1   5
ATOM      3  N   LIG    1        4.800  -3.006  -0.896  0.00  0.00    -0.670 N 
ATOM      4  H   LIG    1        5.665  -2.680  -0.600  0.00  0.00    +0.410 HD
ATOM      5  C   LIG    1        3.705  -2.233  -0.756  0.00  0.00    +0.520 C 
ATOM      6  O   LIG    1        2.640  -2.604  -1.202  0.00  0.00    -0.500 OA
BRANCH   3  10
ATOM      7  C   LIG    1        4.474  -6.793  -2.600  0.00  0.00    -0.090 A 
ATOM      8  C   LIG    1        3.675  -5.761  -3.055  0.00  0.00    +0.030 A 
ATOM      9  C   LIG    1        3.780  -4.504  -2.492  0.00  0.00    +0.020 A 
ATOM     10  C   LIG    1        4.691  -4.278  -1.468  0.00  0.00    +0.130 A 
ATOM     11  C   LIG    1        5.496  -5.315  -1.017  0.00  0.00    -0.010 A 
ATOM     12  C   LIG    1        5.381  -6.571  -1.580  0.00  0.00    +0.030 A 
BRANCH   7  14
ATOM     13  C   LIG    1        5.323  -8.276  -4.397  0.00  0.00    +0.030 C 
ATOM     14  C   LIG    1        4.356  -8.163  -3.216  0.00  0.00    +0.050 C 
ENDBRANCH   7  14
ENDBRANCH   3  10
ENDBRANCH   1   5
BRANCH   1  15
ATOM     15  O   LIG    1        2.499  -0.271  -0.027  0.00  0.00    -0.320 OA
BRANCH  15  16
ATOM     16  C   LIG    1        2.476   1.077  -0.025  0.00  0.00    +0.520 C 
ATOM     17  O   LIG    1        3.517   1.702  -0.040  0.00  0.00    -0.490 OA
BRANCH  16  18
ATOM     18  C   LIG    1        1.186   1.792  -0.006  0.00  0.00    -0.170 A 
ATOM     19  C   LIG    1       -0.013   1.074   0.011  0.00  0.00    +0.190 A 
ATOM     20  C   LIG    1       -1.215   1.746   0.023  0.00  0.00    -0.060 A 
ATOM     21  C   LIG    1       -1.237   3.136   0.030  0.00  0.00    +0.230 A 
ATOM     22  C   LIG    1       -0.046   3.854   0.013  0.00  0.00    -0.090 A 
ATOM     23  C   LIG    1        1.160   3.190  -0.005  0.00  0.00    +0.230 A 
BRANCH  22  24
ATOM     24  N   LIG    1       -0.075   5.333   0.014  0.00  0.00    +0.030 N 
ATOM     25  O   LIG    1       -1.142   5.922   0.030  0.00  0.00    -0.130 OA
ATOM     26  O   LIG    1        0.967   5.963  -0.001  0.00  0.00    -0.170 OA
ENDBRANCH  22  24
BRANCH  21  27
ATOM     27  O   LIG    1       -2.423   3.794   0.047  0.00  0.00    -0.270 OA
ATOM     28  C   LIG    1       -3.608   2.995   0.064  0.00  0.00    +0.270 C 
ENDBRANCH  21  27
ENDBRANCH  16  18
ENDBRANCH  15  16
ENDBRANCH   1  15
TORSDOF 8
