REMARK  Name = ZINCrD000000CbAi.0
REMARK                            x       y       z     vdW  Elec       q    Type
REMARK                         _______ _______ _______ _____ _____    ______ ____
ROOT
ATOM      1  O   LIG    1        0.171  -2.656  -0.014  0.00  0.00    -0.550 OA
ATOM      2  C   LIG    1       -0.948  -2.181  -0.000  0.00  0.00    +0.740 C 
ATOM      3  N   LIG    1       -2.025  -2.992   0.006  0.00  0.00    -0.660 N 
ATOM      4  C   LIG    1       -3.484  -2.814   0.028  0.00  0.00    +0.260 C 
ATOM      5  C   LIG    1       -3.589  -4.180   0.715  0.00  0.00    -0.010 C 
ATOM      6  C   LIG    1       -2.256  -4.444   0.001  0.00  0.00    +0.300 C 
ATOM      7  N   LIG    1       -1.112  -0.844   0.009  0.00  0.00    -0.660 N 
ATOM      8  H   LIG    1       -2.005  -0.464   0.019  0.00  0.00    +0.400 HD
ENDROOT
BRANCH   7   9
ATOM      9  C   LIG    1        0.002  -0.004   0.002  0.00  0.00    +0.320 A 
ATOM     10  C   LIG    1        1.305  -0.397  -0.013  0.00  0.00    -0.110 A 
ATOM     11  C   LIG    1        2.099   0.753  -0.014  0.00  0.00    +0.250 A 
ATOM     12  N   LIG    1        1.310   1.797  -0.001  0.00  0.00    -0.290 NA
ATOM     13  N   LIG    1       -0.016   1.348   0.009  0.00  0.00    -0.390 N 
BRANCH  13  14
ATOM     14  C   LIG    1       -1.212   2.194   0.020  0.00  0.00    +0.380 C 
BRANCH  14  15
ATOM     15  C   LIG    1       -1.615   2.476   1.444  0.00  0.00    -0.130 A 
ATOM     16  C   LIG    1       -2.496   1.631   2.093  0.00  0.00    +0.050 A 
ATOM     17  C   LIG    1       -2.862   1.886   3.401  0.00  0.00    -0.010 A 
ATOM     18  C   LIG    1       -2.356   2.995   4.058  0.00  0.00    +0.110 A 
ATOM     19  C   LIG    1       -1.478   3.844   3.405  0.00  0.00    -0.010 A 
ATOM     20  F   LIG    1       -2.718   3.248   5.335  0.00  0.00    -0.140 F 
ATOM     21  C   LIG    1       -1.109   3.584   2.099  0.00  0.00    +0.080 A 
ENDBRANCH  14  15
ENDBRANCH  13  14
ENDBRANCH   7   9
BRANCH   5  22
ATOM     22  C   LIG    1       -4.748  -5.047   0.222  0.00  0.00    +0.050 C 
BRANCH  22  23
ATOM     23  C   LIG    1       -5.984  -4.786   1.085  0.00  0.00    -0.020 C 
ATOM     24  C   LIG    1       -5.718  -5.260   2.517  0.00  0.00    -0.010 C 
ATOM     25  C   LIG    1       -6.986  -5.067   3.354  0.00  0.00    +0.200 C 
ATOM     26  O   LIG    1       -8.065  -5.786   2.753  0.00  0.00    -0.380 OA
ATOM     27  C   LIG    1       -8.390  -5.353   1.431  0.00  0.00    +0.200 C 
ATOM     28  C   LIG    1       -7.179  -5.558   0.517  0.00  0.00    -0.010 C 
ENDBRANCH  22  23
ENDBRANCH   5  22
TORSDOF 5
