REMARK  Name = ZINCpk00000e95cb.0
REMARK                            x       y       z     vdW  Elec       q    Type
REMARK                         _______ _______ _______ _____ _____    ______ ____
ROOT
ATOM      1  N   LIG    1       -2.012   1.308  -3.707  0.00  0.00    -0.510 NA
ATOM      2  C   LIG    1       -0.713   1.979  -3.558  0.00  0.00    +0.200 C 
ATOM      3  C   LIG    1        0.028   1.389  -2.356  0.00  0.00    +0.200 C 
ATOM      4  N   LIG    1       -0.791   1.559  -1.147  0.00  0.00    -0.540 NA
ATOM      5  C   LIG    1       -2.090   0.888  -1.296  0.00  0.00    +0.190 C 
ATOM      6  C   LIG    1       -2.831   1.478  -2.498  0.00  0.00    +0.190 C 
ENDROOT
BRANCH   1  11
ATOM      7  N   LIG    1       -5.141   1.496  -5.450  0.00  0.00    -0.600 N 
ATOM      8  C   LIG    1       -5.385   2.923  -5.617  0.00  0.00    +0.250 C 
ATOM      9  C   LIG    1       -4.067   3.672  -5.816  0.00  0.00    +0.030 C 
ATOM     10  C   LIG    1       -3.098   3.265  -4.699  0.00  0.00    +0.000 C 
ATOM     11  C   LIG    1       -2.723   1.794  -4.897  0.00  0.00    +0.190 C 
ATOM     12  C   LIG    1       -3.963   0.974  -5.108  0.00  0.00    +0.520 C 
ATOM     13  O   LIG    1       -3.889  -0.227  -4.958  0.00  0.00    -0.520 OA
BRANCH   7  15
ATOM     14  C   LIG    1       -5.909  -0.390  -6.805  0.00  0.00    +0.020 C 
ATOM     15  C   LIG    1       -6.260   0.577  -5.673  0.00  0.00    +0.220 C 
ATOM     16  C   LIG    1       -6.533  -0.214  -4.392  0.00  0.00    +0.030 C 
ENDBRANCH   7  15
ENDBRANCH   1  11
BRANCH   4  17
ATOM     17  C   LIG    1       -0.081   1.072   0.043  0.00  0.00    +0.360 C 
BRANCH  17  18
ATOM     18  C   LIG    1       -0.836   1.481   1.281  0.00  0.00    +0.190 A 
ATOM     19  N   LIG    1       -1.781   0.798   1.881  0.00  0.00    -0.470 NA
ATOM     20  C   LIG    1       -2.156   1.547   2.933  0.00  0.00    +0.200 A 
ATOM     21  N   LIG    1       -1.439   2.630   2.916  0.00  0.00    -0.380 NA
ATOM     22  O   LIG    1       -0.674   2.612   1.974  0.00  0.00    +0.090 OA
BRANCH  20  23
ATOM     23  C   LIG    1       -3.218   1.196   3.944  0.00  0.00    +0.060 C 
ATOM     24  C   LIG    1       -3.631   2.281   4.940  0.00  0.00    +0.050 C 
ATOM     25  C   LIG    1       -2.791   1.091   5.409  0.00  0.00    +0.050 C 
ENDBRANCH  20  23
ENDBRANCH  17  18
ENDBRANCH   4  17
TORSDOF 5
