REMARK  Name = ZINCrH000004sK9J.0
REMARK                            x       y       z     vdW  Elec       q    Type
REMARK                         _______ _______ _______ _____ _____    ______ ____
ROOT
ATOM      1  C   LIG    1       -0.047   1.107  -2.471  0.00  0.00    +0.510 C 
ATOM      2  N   LIG    1       -0.524   1.433  -3.689  0.00  0.00    -0.620 N 
ATOM      3  C   LIG    1       -1.728   2.259  -3.808  0.00  0.00    +0.290 C 
ATOM      4  O   LIG    1        0.949   0.422  -2.373  0.00  0.00    -0.530 OA
ENDROOT
BRANCH   1   5
ATOM      5  C   LIG    1       -0.753   1.593  -1.232  0.00  0.00    +0.050 C 
BRANCH   5   6
ATOM      6  C   LIG    1       -0.013   1.086   0.008  0.00  0.00    +0.140 C 
BRANCH   6  13
ATOM      7  C   LIG    1       -2.336  -0.427   1.543  0.00  0.00    +0.150 C 
ATOM      8  C   LIG    1       -1.743   0.905   1.926  0.00  0.00    +0.090 A 
ATOM      9  N   LIG    1       -2.099   1.637   2.951  0.00  0.00    -0.290 NA
ATOM     10  N   LIG    1       -1.310   2.794   2.957  0.00  0.00    -0.380 N 
ATOM     11  C   LIG    1       -0.468   2.728   1.905  0.00  0.00    +0.090 A 
ATOM     12  C   LIG    1        0.565   3.759   1.528  0.00  0.00    +0.140 C 
ATOM     13  C   LIG    1       -0.718   1.572   1.248  0.00  0.00    -0.230 A 
BRANCH  10  14
ATOM     14  C   LIG    1       -1.384   3.882   3.935  0.00  0.00    +0.350 C 
BRANCH  14  15
ATOM     15  C   LIG    1       -0.430   3.590   5.095  0.00  0.00    +0.190 C 
BRANCH  15  16
ATOM     16  C   LIG    1       -0.503   4.683   6.078  0.00  0.00    +0.200 C 
ATOM     17  N   LIG    1       -0.560   5.527   6.837  0.00  0.00    -0.420 NA
ENDBRANCH  15  16
ENDBRANCH  14  15
ENDBRANCH  10  14
ENDBRANCH   6  13
ENDBRANCH   5   6
ENDBRANCH   1   5
BRANCH   2  18
ATOM     18  C   LIG    1        0.162   0.960  -4.895  0.00  0.00    +0.400 C 
BRANCH  18  19
ATOM     19  C   LIG    1       -0.407  -0.373  -5.306  0.00  0.00    -0.040 A 
ATOM     20  C   LIG    1       -1.449  -0.561  -6.137  0.00  0.00    -0.040 A 
ATOM     21  C   LIG    1       -1.639  -1.958  -6.246  0.00  0.00    -0.060 A 
ATOM     22  C   LIG    1       -0.708  -2.540  -5.468  0.00  0.00    +0.030 A 
ATOM     23  O   LIG    1        0.035  -1.575  -4.902  0.00  0.00    -0.160 OA
BRANCH  22  24
ATOM     24  C   LIG    1       -0.530  -4.022  -5.267  0.00  0.00    +0.040 C 
ATOM     25  C   LIG    1        0.714  -4.487  -4.506  0.00  0.00    +0.030 C 
ATOM     26  C   LIG    1       -0.663  -4.563  -3.841  0.00  0.00    -0.030 C 
ATOM     27  C   LIG    1       -0.968  -3.556  -2.730  0.00  0.00    +0.060 C 
ENDBRANCH  22  24
ENDBRANCH  18  19
ENDBRANCH   2  18
TORSDOF 9
