REMARK  Name = ZINCpe00000yD2ND.2
REMARK                            x       y       z     vdW  Elec       q    Type
REMARK                         _______ _______ _______ _____ _____    ______ ____
ROOT
ATOM      1  C   LIG    1        2.033   1.398  -1.046  0.00  0.00    +0.530 C 
ATOM      2  N   LIG    1        1.673   0.239  -1.633  0.00  0.00    -0.640 N 
ATOM      3  C   LIG    1        0.767  -0.875  -1.307  0.00  0.00    +0.310 C 
ATOM      4  C   LIG    1        0.652  -1.135  -2.806  0.00  0.00    -0.090 C 
ATOM      5  C   LIG    1       -0.489  -0.422  -3.538  0.00  0.00    +0.200 C 
ATOM      6  N   LIG    1       -1.457  -1.507  -3.856  0.00  0.00    -0.510 NA
ATOM      7  C   LIG    1       -0.604  -2.669  -4.220  0.00  0.00    +0.180 C 
ATOM      8  C   LIG    1       -2.329  -1.124  -4.974  0.00  0.00    +0.180 C 
ATOM      9  C   LIG    1        0.588  -2.604  -3.235  0.00  0.00    +0.080 C 
ATOM     10  C   LIG    1        2.020  -0.469  -2.877  0.00  0.00    +0.280 C 
ATOM     11  O   LIG    1        2.906   2.081  -1.538  0.00  0.00    -0.530 OA
ENDROOT
BRANCH   9  12
ATOM     12  C   LIG    1        1.864  -3.006  -3.927  0.00  0.00    +0.230 A 
ATOM     13  C   LIG    1        2.048  -2.735  -5.273  0.00  0.00    -0.150 A 
ATOM     14  C   LIG    1        3.237  -3.122  -5.872  0.00  0.00    +0.370 A 
ATOM     15  N   LIG    1        4.156  -3.735  -5.144  0.00  0.00    -0.570 NA
ATOM     16  C   LIG    1        3.949  -3.979  -3.858  0.00  0.00    +0.570 A 
ATOM     17  N   LIG    1        2.826  -3.617  -3.255  0.00  0.00    -0.570 NA
BRANCH  16  18
ATOM     18  N   LIG    1        4.932  -4.622  -3.126  0.00  0.00    -0.820 N 
ATOM     19  H   LIG    1        4.793  -4.806  -2.183  0.00  0.00    +0.410 HD
ATOM     20  H   LIG    1        5.760  -4.888  -3.555  0.00  0.00    +0.420 HD
ENDBRANCH  16  18
ENDBRANCH   9  12
BRANCH   1  21
ATOM     21  C   LIG    1        1.349   1.845   0.220  0.00  0.00    +0.110 C 
ATOM     22  C   LIG    1        2.240   2.853   0.975  0.00  0.00    +0.020 C 
ATOM     23  C   LIG    1        1.713   4.238   0.523  0.00  0.00    +0.030 C 
ATOM     24  C   LIG    1        0.183   4.011   0.443  0.00  0.00    +0.020 C 
ATOM     25  C   LIG    1        0.041   2.581  -0.118  0.00  0.00    +0.060 C 
BRANCH  21  27
ATOM     26  C   LIG    1        2.244   0.036   1.514  0.00  0.00    +0.200 C 
ATOM     27  O   LIG    1        1.075   0.716   1.053  0.00  0.00    -0.360 OA
ENDBRANCH  21  27
ENDBRANCH   1  21
TORSDOF 4
