REMARK  Name = ZINCtV000002Lkl5.0
REMARK                            x       y       z     vdW  Elec       q    Type
REMARK                         _______ _______ _______ _____ _____    ______ ____
ROOT
ATOM      1  C   LIG    1        0.023  -0.013  -0.148  0.00  0.00    +0.240 A 
ATOM      2  N   LIG    1        1.067  -0.776   0.083  0.00  0.00    -0.260 NA
ATOM      3  N   LIG    1        0.699  -2.002   0.193  0.00  0.00    -0.280 NA
ATOM      4  C   LIG    1       -0.602  -2.100   0.038  0.00  0.00    +0.170 A 
ATOM      5  N   LIG    1       -1.080  -0.837  -0.179  0.00  0.00    -0.410 N 
ENDROOT
BRANCH   1  10
ATOM      6  F   LIG    1        0.053   5.541  -0.856  0.00  0.00    -0.130 F 
ATOM      7  C   LIG    1        0.046   4.201  -0.684  0.00  0.00    +0.120 A 
ATOM      8  C   LIG    1        1.131   3.575  -0.093  0.00  0.00    +0.000 A 
ATOM      9  C   LIG    1        1.129   2.207   0.084  0.00  0.00    +0.110 A 
ATOM     10  C   LIG    1        0.031   1.453  -0.335  0.00  0.00    -0.040 A 
ATOM     11  C   LIG    1       -1.057   2.089  -0.935  0.00  0.00    +0.070 A 
ATOM     12  C   LIG    1       -1.047   3.458  -1.102  0.00  0.00    -0.010 A 
ENDBRANCH   1  10
BRANCH   5  13
ATOM     13  C   LIG    1       -2.414  -0.460  -0.391  0.00  0.00    +0.090 A 
ATOM     14  C   LIG    1       -3.084   0.292   0.564  0.00  0.00    +0.030 A 
ATOM     15  C   LIG    1       -4.396   0.667   0.350  0.00  0.00    +0.040 A 
ATOM     16  C   LIG    1       -5.046   0.283  -0.809  0.00  0.00    +0.040 A 
ATOM     17  C   LIG    1       -4.383  -0.471  -1.760  0.00  0.00    +0.040 A 
ATOM     18  C   LIG    1       -3.069  -0.844  -1.554  0.00  0.00    +0.030 A 
ENDBRANCH   5  13
BRANCH   4  19
ATOM     19  S   LIG    1       -1.554  -3.582   0.106  0.00  0.00    +0.040 S 
BRANCH  19  20
ATOM     20  C   LIG    1       -0.241  -4.785   0.428  0.00  0.00    +0.100 C 
BRANCH  20  21
ATOM     21  C   LIG    1       -0.847  -6.186   0.529  0.00  0.00    +0.230 C 
BRANCH  21  22
ATOM     22  O   LIG    1        0.190  -7.136   0.783  0.00  0.00    -0.300 OA
BRANCH  22  23
ATOM     23  C   LIG    1       -0.182  -8.438   0.902  0.00  0.00    +0.150 A 
ATOM     24  C   LIG    1       -1.518  -8.793   0.782  0.00  0.00    -0.060 A 
ATOM     25  C   LIG    1       -1.893 -10.117   0.899  0.00  0.00    +0.090 A 
ATOM     26  C   LIG    1       -0.939 -11.088   1.145  0.00  0.00    -0.130 A 
ATOM     27  C   LIG    1        0.393 -10.736   1.270  0.00  0.00    +0.090 A 
ATOM     28 BR   LIG    1       -1.456 -12.900   1.310  0.00  0.00    -0.050 Br
ATOM     29  C   LIG    1        0.773  -9.414   1.149  0.00  0.00    +0.000 A 
ENDBRANCH  22  23
ENDBRANCH  21  22
ENDBRANCH  20  21
ENDBRANCH  19  20
ENDBRANCH   4  19
TORSDOF 7
