REMARK  Name = ZINCrH000004umQ4.0
REMARK                            x       y       z     vdW  Elec       q    Type
REMARK                         _______ _______ _______ _____ _____    ______ ____
ROOT
ATOM      1  O   LIG    1        1.130   2.868   0.007  0.00  0.00    -0.510 OA
ATOM      2  C   LIG    1        1.147   1.655   0.000  0.00  0.00    +0.500 C 
ATOM      3  N   LIG    1       -0.011   0.966   0.007  0.00  0.00    -0.730 N 
ATOM      4  H   LIG    1        0.002  -0.004   0.002  0.00  0.00    +0.400 HD
ENDROOT
BRANCH   2   5
ATOM      5  C   LIG    1        2.462   0.920  -0.017  0.00  0.00    +0.210 C 
ATOM      6  C   LIG    1        2.657   0.176  -1.359  0.00  0.00    +0.110 C 
ATOM      7  C   LIG    1        3.431   1.204  -2.171  0.00  0.00    -0.170 A 
ATOM      8  C   LIG    1        3.684   1.316  -3.520  0.00  0.00    +0.080 A 
ATOM      9  C   LIG    1        4.427   2.382  -3.998  0.00  0.00    -0.060 A 
ATOM     10  C   LIG    1        4.912   3.332  -3.117  0.00  0.00    +0.070 A 
ATOM     11  C   LIG    1        4.661   3.220  -1.764  0.00  0.00    +0.020 A 
ATOM     12 CL   LIG    1        4.749   2.527  -5.698  0.00  0.00    -0.060 Cl
ATOM     13  C   LIG    1        3.918   2.149  -1.275  0.00  0.00    +0.120 A 
ATOM     14  O   LIG    1        3.563   1.844   0.004  0.00  0.00    -0.270 OA
ENDBRANCH   2   5
BRANCH   3  15
ATOM     15  C   LIG    1       -1.290   1.681   0.017  0.00  0.00    +0.280 C 
BRANCH  15  16
ATOM     16  C   LIG    1       -2.439   0.671   0.017  0.00  0.00    +0.130 C 
BRANCH  16  17
ATOM     17  C   LIG    1       -3.754   1.407   0.028  0.00  0.00    -0.010 A 
ATOM     18  C   LIG    1       -4.752   1.258  -0.862  0.00  0.00    +0.160 A 
ATOM     19  O   LIG    1       -5.745   2.092  -0.494  0.00  0.00    -0.190 OA
ATOM     20  C   LIG    1       -5.340   2.747   0.608  0.00  0.00    +0.240 A 
ATOM     21  N   LIG    1       -4.136   2.331   0.922  0.00  0.00    -0.460 NA
BRANCH  20  22
ATOM     22  C   LIG    1       -6.121   3.764   1.343  0.00  0.00    -0.030 A 
ATOM     23  C   LIG    1       -5.586   4.369   2.482  0.00  0.00    +0.110 A 
ATOM     24  C   LIG    1       -6.317   5.322   3.161  0.00  0.00    +0.000 A 
ATOM     25  C   LIG    1       -7.583   5.671   2.720  0.00  0.00    +0.120 A 
ATOM     26  C   LIG    1       -8.121   5.070   1.593  0.00  0.00    +0.000 A 
ATOM     27  F   LIG    1       -8.297   6.602   3.392  0.00  0.00    -0.130 F 
ATOM     28  C   LIG    1       -7.397   4.120   0.903  0.00  0.00    +0.080 A 
ENDBRANCH  20  22
ENDBRANCH  16  17
ENDBRANCH  15  16
ENDBRANCH   3  15
TORSDOF 5
