REMARK  Name = ZINCvU0000000BPB.0
REMARK                            x       y       z     vdW  Elec       q    Type
REMARK                         _______ _______ _______ _____ _____    ______ ____
ROOT
ATOM      1  N   LIG    1       -8.912   3.299  -0.463  0.00  0.00    -0.510 N 
ATOM      2  C   LIG    1       -9.972   4.126  -0.540  0.00  0.00    +0.570 A 
ATOM      3  C   LIG    1       -9.751   5.538  -0.514  0.00  0.00    -0.230 A 
ATOM      4  C   LIG    1       -8.434   5.988  -0.408  0.00  0.00    +0.080 A 
ATOM      5  S   LIG    1       -8.415   7.748  -0.396  0.00  0.00    +0.230 S 
ATOM      6  C   LIG    1      -10.163   7.817  -0.532  0.00  0.00    -0.160 A 
ATOM      7  N   LIG    1       -7.427   5.098  -0.330  0.00  0.00    -0.510 NA
ATOM      8  C   LIG    1      -10.680   6.588  -0.580  0.00  0.00    +0.100 A 
ATOM      9  O   LIG    1      -11.102   3.678  -0.631  0.00  0.00    -0.510 OA
ATOM     10  C   LIG    1       -7.649   3.805  -0.361  0.00  0.00    +0.360 A 
ENDROOT
BRANCH   6  11
ATOM     11  C   LIG    1      -10.954   9.064  -0.588  0.00  0.00    -0.020 A 
ATOM     12  C   LIG    1      -12.344   9.009  -0.703  0.00  0.00    +0.030 A 
ATOM     13  C   LIG    1      -13.077  10.177  -0.748  0.00  0.00    +0.020 A 
ATOM     14  C   LIG    1      -12.435  11.402  -0.691  0.00  0.00    +0.010 A 
ATOM     15  C   LIG    1      -11.057  11.464  -0.582  0.00  0.00    +0.020 A 
ATOM     16  C   LIG    1      -10.313  10.303  -0.530  0.00  0.00    +0.010 A 
ENDBRANCH   6  11
BRANCH   1  17
ATOM     17  C   LIG    1       -9.116   1.849  -0.488  0.00  0.00    +0.340 C 
BRANCH  17  19
ATOM     18  C   LIG    1      -10.361   0.647   1.234  0.00  0.00    +0.070 C 
ATOM     19  C   LIG    1       -9.297   1.343   0.920  0.00  0.00    -0.070 C 
ENDBRANCH  17  19
ENDBRANCH   1  17
BRANCH  10  20
ATOM     20  S   LIG    1       -6.283   2.696  -0.261  0.00  0.00    +0.110 S 
BRANCH  20  21
ATOM     21  C   LIG    1       -4.922   3.883  -0.147  0.00  0.00    +0.120 C 
BRANCH  21  22
ATOM     22  C   LIG    1       -3.614   3.140  -0.050  0.00  0.00    +0.530 C 
ATOM     23  N   LIG    1       -2.456   3.823   0.045  0.00  0.00    -0.660 N 
ATOM     24  H   LIG    1       -2.469   4.790   0.128  0.00  0.00    +0.420 HD
ATOM     25  O   LIG    1       -3.604   1.927  -0.057  0.00  0.00    -0.500 OA
BRANCH  23  26
ATOM     26  C   LIG    1       -1.236   3.138   0.025  0.00  0.00    +0.140 A 
ATOM     27  C   LIG    1       -0.161   3.610   0.765  0.00  0.00    -0.020 A 
ATOM     28  C   LIG    1        1.044   2.935   0.739  0.00  0.00    +0.030 A 
ATOM     29  C   LIG    1        1.176   1.784  -0.016  0.00  0.00    -0.010 A 
ATOM     30  C   LIG    1        0.105   1.308  -0.750  0.00  0.00    -0.070 A 
ATOM     31  C   LIG    1        0.254   0.053  -1.572  0.00  0.00    +0.090 C 
ATOM     32  C   LIG    1       -1.100   1.982  -0.733  0.00  0.00    +0.010 A 
ENDBRANCH  23  26
ENDBRANCH  21  22
ENDBRANCH  20  21
ENDBRANCH  10  20
TORSDOF 7
