REMARK  Name = ZINCrD000000Araa.2
REMARK                            x       y       z     vdW  Elec       q    Type
REMARK                         _______ _______ _______ _____ _____    ______ ____
ROOT
ATOM      1  O   LIG    1       -0.097   3.960   0.024  0.00  0.00    -0.510 OA
ATOM      2  C   LIG    1        1.030   3.512   0.011  0.00  0.00    +0.520 C 
ATOM      3  N   LIG    1        2.088   4.347   0.005  0.00  0.00    -0.730 N 
ATOM      4  H   LIG    1        2.989   3.989  -0.005  0.00  0.00    +0.400 HD
ENDROOT
BRANCH   3   5
ATOM      5  C   LIG    1        1.876   5.797   0.015  0.00  0.00    +0.270 C 
BRANCH   5   6
ATOM      6  C   LIG    1        3.230   6.510   0.006  0.00  0.00    +0.170 C 
BRANCH   6   7
ATOM      7  N   LIG    1        3.018   7.963   0.016  0.00  0.00    -0.520 NA
ATOM      8  C   LIG    1        4.282   8.680   0.246  0.00  0.00    +0.220 C 
ATOM      9  C   LIG    1        5.317   8.173  -0.759  0.00  0.00    +0.040 C 
ATOM     10  C   LIG    1        4.742   8.210  -2.152  0.00  0.00    -0.080 A 
ATOM     11  C   LIG    1        5.612   8.132  -3.228  0.00  0.00    +0.000 A 
ATOM     12  C   LIG    1        5.127   8.160  -4.521  0.00  0.00    +0.000 A 
ATOM     13  C   LIG    1        3.766   8.266  -4.742  0.00  0.00    +0.000 A 
ATOM     14  C   LIG    1        2.900   8.345  -3.671  0.00  0.00    +0.010 A 
ATOM     15  C   LIG    1        3.385   8.319  -2.372  0.00  0.00    -0.110 A 
ATOM     16  C   LIG    1        2.401   8.413  -1.236  0.00  0.00    +0.260 C 
ENDBRANCH   6   7
ENDBRANCH   5   6
ENDBRANCH   3   5
BRANCH   2  17
ATOM     17  C   LIG    1        1.248   2.021   0.001  0.00  0.00    +0.220 C 
BRANCH  17  18
ATOM     18  O   LIG    1       -0.016   1.355   0.009  0.00  0.00    -0.290 OA
BRANCH  18  19
ATOM     19  C   LIG    1        0.002  -0.004   0.002  0.00  0.00    +0.130 A 
ATOM     20  C   LIG    1       -1.177  -0.694   0.010  0.00  0.00    -0.010 A 
ATOM     21  C   LIG    1       -1.159  -2.099   0.002  0.00  0.00    -0.010 A 
ATOM     22  C   LIG    1       -2.351  -2.842   0.009  0.00  0.00    +0.020 A 
ATOM     23  C   LIG    1       -2.296  -4.203   0.000  0.00  0.00    +0.020 A 
ATOM     24  C   LIG    1       -1.074  -4.871  -0.014  0.00  0.00    -0.010 A 
ATOM     25  C   LIG    1        0.101  -4.184  -0.021  0.00  0.00    +0.030 A 
ATOM     26  C   LIG    1        0.085  -2.779  -0.014  0.00  0.00    -0.080 A 
ATOM     27  C   LIG    1        1.279  -2.036  -0.021  0.00  0.00    +0.070 A 
ATOM     28  C   LIG    1        1.228  -0.677  -0.019  0.00  0.00    -0.060 A 
ENDBRANCH  18  19
ENDBRANCH  17  18
ENDBRANCH   2  17
TORSDOF 6
