REMARK  Name = ZINCtV00001bB3Nd.0
REMARK                            x       y       z     vdW  Elec       q    Type
REMARK                         _______ _______ _______ _____ _____    ______ ____
ROOT
ATOM      1  C   LIG    1        3.823   2.783  -1.050  0.00  0.00    +0.060 C 
ATOM      2  C   LIG    1        3.667   1.891   0.183  0.00  0.00    +0.150 C 
ATOM      3  C   LIG    1        4.872   0.948   0.276  0.00  0.00    +0.150 C 
ATOM      4  S   LIG    1        4.146  -0.720   0.208  0.00  0.00    -0.100 S 
ATOM      5  C   LIG    1        2.465  -0.191   0.081  0.00  0.00    +0.420 C 
ATOM      6  N   LIG    1        1.424  -0.986  -0.006  0.00  0.00    -0.500 NA
ATOM      7  C   LIG    1        3.636   2.775   1.432  0.00  0.00    +0.070 C 
ATOM      8  N   LIG    1        2.419   1.170   0.087  0.00  0.00    -0.530 N 
ATOM      9  C   LIG    1        1.244   1.824   0.000  0.00  0.00    +0.570 C 
ATOM     10  O   LIG    1        1.229   3.038  -0.094  0.00  0.00    -0.500 OA
ENDROOT
BRANCH   6  11
ATOM     11  C   LIG    1        1.597  -2.345  -0.002  0.00  0.00    +0.100 A 
ATOM     12  C   LIG    1        2.596  -2.926  -0.784  0.00  0.00    +0.020 A 
ATOM     13  C   LIG    1        2.765  -4.295  -0.776  0.00  0.00    +0.050 A 
ATOM     14  C   LIG    1        1.947  -5.092   0.006  0.00  0.00    +0.060 A 
ATOM     15  C   LIG    1        0.955  -4.522   0.784  0.00  0.00    -0.170 A 
ATOM     16  C   LIG    1        0.779  -3.154   0.789  0.00  0.00    +0.080 A 
BRANCH  15  17
ATOM     17  C   LIG    1        0.069  -5.397   1.632  0.00  0.00    +0.510 C 
ATOM     18  F   LIG    1       -1.264  -5.231   1.241  0.00  0.00    -0.170 F 
ATOM     19  F   LIG    1        0.209  -5.037   2.977  0.00  0.00    -0.170 F 
ATOM     20  F   LIG    1        0.440  -6.736   1.467  0.00  0.00    -0.170 F 
ENDBRANCH  15  17
ENDBRANCH   6  11
BRANCH   9  21
ATOM     21  C   LIG    1       -0.013   1.077   0.019  0.00  0.00    -0.050 C 
ATOM     22  C   LIG    1       -1.190   1.736   0.029  0.00  0.00    +0.110 C 
BRANCH  22  23
ATOM     23  C   LIG    1       -2.454   0.984   0.042  0.00  0.00    -0.070 A 
ATOM     24  C   LIG    1       -2.440  -0.415   0.038  0.00  0.00    +0.060 A 
ATOM     25  C   LIG    1       -3.629  -1.113   0.056  0.00  0.00    +0.030 A 
ATOM     26  C   LIG    1       -4.835  -0.432   0.066  0.00  0.00    -0.020 A 
ATOM     27  C   LIG    1       -4.857   0.953   0.064  0.00  0.00    +0.030 A 
ATOM     28 CL   LIG    1       -6.327  -1.320   0.081  0.00  0.00    -0.060 Cl
ATOM     29  C   LIG    1       -3.677   1.664   0.052  0.00  0.00    +0.060 A 
ENDBRANCH  22  23
ENDBRANCH   9  21
TORSDOF 4
