REMARK  Name = ZINCqH0000006Gr2.0
REMARK                            x       y       z     vdW  Elec       q    Type
REMARK                         _______ _______ _______ _____ _____    ______ ____
ROOT
ATOM      1  C   LIG    1        7.172   2.592  -0.051  0.00  0.00    +0.560 C 
ATOM      2  N   LIG    1        5.848   2.361   0.039  0.00  0.00    -0.600 N 
ATOM      3  C   LIG    1        4.955   2.677  -1.084  0.00  0.00    +0.270 C 
ATOM      4  C   LIG    1        3.823   3.575  -0.576  0.00  0.00    +0.020 C 
ATOM      5  C   LIG    1        3.129   2.895   0.607  0.00  0.00    +0.070 C 
ATOM      6  C   LIG    1        4.134   2.695   1.743  0.00  0.00    +0.020 C 
ATOM      7  C   LIG    1        5.269   1.786   1.261  0.00  0.00    +0.270 C 
ATOM      8  O   LIG    1        7.886   2.425   0.919  0.00  0.00    -0.530 OA
ENDROOT
BRANCH   5   9
ATOM      9  C   LIG    1        1.993   3.761   1.088  0.00  0.00    -0.200 A 
ATOM     10  C   LIG    1        0.677   3.425   1.138  0.00  0.00    +0.230 A 
ATOM     11  N   LIG    1       -0.034   4.446   1.620  0.00  0.00    -0.540 NA
ATOM     12  C   LIG    1        0.754   5.470   1.903  0.00  0.00    +0.240 A 
ATOM     13  N   LIG    1        0.530   6.723   2.413  0.00  0.00    -0.500 N 
ATOM     14  H   LIG    1       -0.373   6.994   2.642  0.00  0.00    +0.420 HD
ATOM     15  C   LIG    1        1.547   7.580   2.597  0.00  0.00    +0.330 A 
ATOM     16  C   LIG    1        2.832   7.242   2.296  0.00  0.00    -0.080 A 
ATOM     17  C   LIG    1        3.126   5.986   1.779  0.00  0.00    +0.170 A 
ATOM     18  C   LIG    1        2.084   5.083   1.577  0.00  0.00    -0.150 A 
ENDBRANCH   5   9
BRANCH   1  21
ATOM     19  C   LIG    1        9.351   4.392  -2.528  0.00  0.00    +0.090 A 
ATOM     20  C   LIG    1        8.804   3.973  -1.329  0.00  0.00    +0.020 A 
ATOM     21  C   LIG    1        7.757   3.049  -1.329  0.00  0.00    -0.100 A 
ATOM     22  C   LIG    1        7.262   2.562  -2.539  0.00  0.00    +0.050 A 
ATOM     23  C   LIG    1        7.810   2.989  -3.731  0.00  0.00    +0.030 A 
ATOM     24  C   LIG    1        8.851   3.902  -3.730  0.00  0.00    +0.090 A 
ATOM     25  F   LIG    1        9.384   4.317  -4.900  0.00  0.00    -0.130 F 
BRANCH  19  27
ATOM     26  C   LIG    1       10.837   5.749  -1.261  0.00  0.00    +0.250 C 
ATOM     27  O   LIG    1       10.374   5.288  -2.532  0.00  0.00    -0.310 OA
ENDBRANCH  19  27
ENDBRANCH   1  21
TORSDOF 3
