REMARK  Name = ZINCvU00000006dh.0
REMARK                            x       y       z     vdW  Elec       q    Type
REMARK                         _______ _______ _______ _____ _____    ______ ____
ROOT
ATOM      1  C   LIG    1        2.165   4.306   0.783  0.00  0.00    +0.100 C 
ATOM      2  C   LIG    1        0.960   3.451   0.488  0.00  0.00    -0.060 A 
ATOM      3  C   LIG    1        1.032   2.074   0.632  0.00  0.00    +0.140 A 
ATOM      4  C   LIG    1       -0.081   1.287   0.359  0.00  0.00    +0.060 A 
ATOM      5  C   LIG    1       -1.260   1.872  -0.061  0.00  0.00    +0.030 A 
ATOM      6  C   LIG    1       -1.344   3.243  -0.202  0.00  0.00    +0.030 A 
ATOM      7  C   LIG    1       -0.232   4.042   0.069  0.00  0.00    -0.110 A 
ENDROOT
BRANCH   7   8
ATOM      8  C   LIG    1       -0.318   5.510  -0.087  0.00  0.00    +0.570 C 
ATOM      9  N   LIG    1       -0.769   6.040  -1.241  0.00  0.00    -0.610 N 
ATOM     10  C   LIG    1       -0.789   7.496  -1.446  0.00  0.00    +0.310 C 
ATOM     11  C   LIG    1        0.189   7.838  -2.580  0.00  0.00    +0.120 C 
ATOM     12  C   LIG    1       -0.026   6.872  -3.726  0.00  0.00    -0.170 A 
ATOM     13  C   LIG    1       -0.660   5.688  -3.632  0.00  0.00    -0.130 A 
ATOM     14  C   LIG    1       -0.716   4.984  -4.830  0.00  0.00    +0.020 A 
ATOM     15  C   LIG    1       -0.147   5.578  -5.874  0.00  0.00    -0.040 A 
ATOM     16  S   LIG    1        0.519   7.127  -5.379  0.00  0.00    +0.110 S 
ATOM     17  C   LIG    1       -1.259   5.178  -2.326  0.00  0.00    +0.370 C 
ATOM     18  O   LIG    1        0.018   6.238   0.826  0.00  0.00    -0.530 OA
ENDBRANCH   7   8
BRANCH   3  19
ATOM     19  N   LIG    1        2.225   1.477   1.051  0.00  0.00    -0.660 N 
ATOM     20  H   LIG    1        3.077   1.871   0.807  0.00  0.00    +0.410 HD
ATOM     21  C   LIG    1        2.192   0.353   1.795  0.00  0.00    +0.550 C 
ATOM     22  O   LIG    1        1.127  -0.180   2.043  0.00  0.00    -0.480 OA
BRANCH  21  23
ATOM     23  C   LIG    1        3.448  -0.230   2.309  0.00  0.00    -0.080 A 
ATOM     24  C   LIG    1        4.672   0.376   2.022  0.00  0.00    +0.090 A 
ATOM     25  C   LIG    1        5.840  -0.171   2.510  0.00  0.00    +0.110 A 
ATOM     26  C   LIG    1        5.803  -1.325   3.273  0.00  0.00    -0.010 A 
ATOM     27  C   LIG    1        4.595  -1.935   3.558  0.00  0.00    +0.120 A 
ATOM     28  C   LIG    1        3.416  -1.395   3.081  0.00  0.00    +0.010 A 
ATOM     29 CL   LIG    1        1.900  -2.162   3.439  0.00  0.00    +0.010 Cl
BRANCH  26  30
ATOM     30  N   LIG    1        7.062  -1.909   3.787  0.00  0.00    +0.020 N 
ATOM     31  O   LIG    1        8.128  -1.374   3.538  0.00  0.00    -0.140 OA
ATOM     32  O   LIG    1        7.032  -2.925   4.459  0.00  0.00    -0.140 OA
ENDBRANCH  26  30
ENDBRANCH  21  23
ENDBRANCH   3  19
TORSDOF 4
