REMARK  Name = ZINCnE000004wSmm.1
REMARK                            x       y       z     vdW  Elec       q    Type
REMARK                         _______ _______ _______ _____ _____    ______ ____
ROOT
ATOM      1  O   LIG    1       -1.473   3.475  -0.088  0.00  0.00    -0.530 OA
ATOM      2  C   LIG    1       -1.337   2.266  -0.097  0.00  0.00    +0.600 C 
ATOM      3  N   LIG    1       -2.419   1.466  -0.043  0.00  0.00    -0.620 N 
ATOM      4  C   LIG    1       -2.407  -0.005  -0.149  0.00  0.00    +0.280 C 
ATOM      5  C   LIG    1       -3.825  -0.379  -0.647  0.00  0.00    +0.010 C 
ATOM      6  C   LIG    1       -4.702   0.656   0.105  0.00  0.00    +0.030 C 
ATOM      7  C   LIG    1       -3.808   1.913   0.136  0.00  0.00    +0.220 C 
ENDROOT
BRANCH   2   8
ATOM      8  C   LIG    1        0.013   1.677  -0.166  0.00  0.00    -0.170 A 
ATOM      9  C   LIG    1        1.122   2.517  -0.226  0.00  0.00    +0.310 A 
ATOM     10  C   LIG    1        2.405   1.930  -0.297  0.00  0.00    -0.140 A 
ATOM     11  C   LIG    1        3.573   2.700  -0.360  0.00  0.00    +0.070 A 
ATOM     12  C   LIG    1        4.785   2.078  -0.428  0.00  0.00    -0.060 A 
ATOM     13  C   LIG    1        4.877   0.689  -0.434  0.00  0.00    +0.010 A 
ATOM     14  C   LIG    1        3.760  -0.090  -0.374  0.00  0.00    -0.020 A 
ATOM     15  C   LIG    1        2.497   0.514  -0.304  0.00  0.00    -0.030 A 
ATOM     16  C   LIG    1        1.312  -0.245  -0.239  0.00  0.00    +0.100 A 
ATOM     17  O   LIG    1        0.975   3.863  -0.217  0.00  0.00    -0.620 OA
ATOM     18  N   LIG    1        0.149   0.347  -0.175  0.00  0.00    -0.390 NA
ENDBRANCH   2   8
BRANCH   7  19
ATOM     19  C   LIG    1       -3.955   2.627   1.481  0.00  0.00    +0.050 C 
BRANCH  19  20
ATOM     20  C   LIG    1       -5.364   3.214   1.595  0.00  0.00    +0.460 C 
ATOM     21  F   LIG    1       -5.619   4.033   0.490  0.00  0.00    -0.180 F 
ATOM     22  F   LIG    1       -5.460   3.971   2.768  0.00  0.00    -0.190 F 
ATOM     23  F   LIG    1       -6.300   2.176   1.633  0.00  0.00    -0.190 F 
ENDBRANCH  19  20
ENDBRANCH   7  19
TORSDOF 3
