REMARK  Name = ZINCpe000000VNFS.0
REMARK                            x       y       z     vdW  Elec       q    Type
REMARK                         _______ _______ _______ _____ _____    ______ ____
ROOT
ATOM      1  N   LIG    1        3.656   6.169   0.252  0.00  0.00    -0.990 NA
ATOM      2  C   LIG    1        4.036   6.913   1.465  0.00  0.00    +0.390 C 
ATOM      3  S   LIG    1        2.416   7.536   2.078  0.00  0.00    -0.240 S 
ATOM      4  C   LIG    1        1.483   6.061   1.488  0.00  0.00    +0.170 C 
ATOM      5  C   LIG    1        2.287   5.678   0.225  0.00  0.00    +0.250 C 
ENDROOT
BRANCH   5   6
ATOM      6  C   LIG    1        2.313   4.176   0.104  0.00  0.00    +0.500 C 
ATOM      7  N   LIG    1        1.158   3.488   0.009  0.00  0.00    -0.670 N 
ATOM      8  H   LIG    1        0.315   3.962  -0.058  0.00  0.00    +0.410 HD
ATOM      9  O   LIG    1        3.373   3.587   0.091  0.00  0.00    -0.480 OA
BRANCH   7  10
ATOM     10  C   LIG    1        1.176   2.087   0.008  0.00  0.00    +0.110 A 
ATOM     11  C   LIG    1        2.134   1.404   0.745  0.00  0.00    +0.060 A 
ATOM     12  C   LIG    1        2.151   0.023   0.744  0.00  0.00    +0.010 A 
ATOM     13  C   LIG    1        1.210  -0.682   0.006  0.00  0.00    +0.120 A 
ATOM     14  C   LIG    1        0.253   0.000  -0.731  0.00  0.00    -0.060 A 
ATOM     15  C   LIG    1        0.235   1.381  -0.730  0.00  0.00    +0.030 A 
BRANCH  13  16
ATOM     16  O   LIG    1        1.227  -2.041   0.005  0.00  0.00    -0.320 OA
ATOM     17  C   LIG    1        0.230  -2.702  -0.776  0.00  0.00    +0.250 C 
ENDBRANCH  13  16
ENDBRANCH   7  10
ENDBRANCH   5   6
BRANCH   1  18
ATOM     18  S   LIG    1        4.716   5.913  -0.995  0.00  0.00    +2.790 S 
ATOM     19  O   LIG    1        4.249   4.764  -1.689  0.00  0.00    -0.940 OA
ATOM     20  O   LIG    1        6.020   6.009  -0.439  0.00  0.00    -0.960 OA
BRANCH  18  21
ATOM     21  N   LIG    1        4.559   7.187  -2.042  0.00  0.00    -1.000 NA
ATOM     22  C   LIG    1        3.590   7.118  -3.139  0.00  0.00    +0.300 C 
BRANCH  21  23
ATOM     23  C   LIG    1        5.388   8.382  -1.871  0.00  0.00    +0.310 C 
BRANCH  23  24
ATOM     24  C   LIG    1        6.627   8.275  -2.762  0.00  0.00    +0.160 C 
BRANCH  24  26
ATOM     25  C   LIG    1        7.316   8.189  -5.056  0.00  0.00    +0.200 C 
ATOM     26  O   LIG    1        6.228   8.285  -4.135  0.00  0.00    -0.390 OA
ENDBRANCH  24  26
ENDBRANCH  23  24
ENDBRANCH  21  23
ENDBRANCH  18  21
ENDBRANCH   1  18
TORSDOF 8
