REMARK  Name = ZINCvU0000000GIz.0
REMARK                            x       y       z     vdW  Elec       q    Type
REMARK                         _______ _______ _______ _____ _____    ______ ____
ROOT
ATOM      1  C   LIG    1       -0.508   6.611  -0.057  0.00  0.00    +0.290 C 
ATOM      2  N   LIG    1        0.534   5.841   0.027  0.00  0.00    -0.250 NA
ENDROOT
BRANCH   2   3
ATOM      3  N   LIG    1        0.379   4.449   0.021  0.00  0.00    -0.390 N 
ATOM      4  C   LIG    1       -0.868   3.907   0.036  0.00  0.00    +0.540 A 
ATOM      5  N   LIG    1       -1.057   2.620   0.026  0.00  0.00    -0.480 NA
ATOM      6  C   LIG    1       -0.021   1.752   0.009  0.00  0.00    +0.060 A 
ATOM      7  C   LIG    1        1.279   2.236  -0.007  0.00  0.00    -0.210 A 
ATOM      8  C   LIG    1        2.277   1.175  -0.029  0.00  0.00    -0.030 A 
ATOM      9  C   LIG    1        1.757  -0.055  -0.029  0.00  0.00    -0.200 A 
ATOM     10  C   LIG    1        2.578  -1.332  -0.049  0.00  0.00    +0.120 C 
ATOM     11  C   LIG    1        4.007  -0.994  -0.482  0.00  0.00    +0.030 C 
ATOM     12  C   LIG    1        4.517   0.179   0.361  0.00  0.00    +0.020 C 
ATOM     13  C   LIG    1        3.775   1.452  -0.049  0.00  0.00    +0.110 C 
ATOM     14  S   LIG    1        0.002  -0.004  -0.003  0.00  0.00    +0.210 S 
ATOM     15  C   LIG    1        1.467   3.653  -0.000  0.00  0.00    +0.580 A 
ATOM     16  O   LIG    1        2.588   4.133  -0.013  0.00  0.00    -0.490 OA
ENDBRANCH   2   3
BRANCH   1  22
ATOM     17  N   LIG    1       -0.106  12.197  -0.464  0.00  0.00    -0.500 N 
ATOM     18  C   LIG    1       -1.438  12.568  -0.525  0.00  0.00    +0.140 A 
ATOM     19  C   LIG    1       -2.224  11.408  -0.459  0.00  0.00    -0.100 A 
ATOM     20  C   LIG    1       -1.286  10.274  -0.351  0.00  0.00    -0.110 A 
ATOM     21  C   LIG    1       -1.458   8.898  -0.252  0.00  0.00    +0.130 A 
ATOM     22  C   LIG    1       -0.340   8.071  -0.162  0.00  0.00    -0.110 A 
ATOM     23  C   LIG    1        0.945   8.630  -0.166  0.00  0.00    +0.110 A 
ATOM     24  C   LIG    1        1.112   9.980  -0.270  0.00  0.00    -0.020 A 
ATOM     25  C   LIG    1       -3.612  11.503  -0.500  0.00  0.00    +0.070 A 
ATOM     26  C   LIG    1       -4.211  12.740  -0.606  0.00  0.00    -0.020 A 
ATOM     27  C   LIG    1       -3.436  13.887  -0.673  0.00  0.00    +0.050 A 
ATOM     28  C   LIG    1       -2.061  13.807  -0.633  0.00  0.00    -0.020 A 
ATOM     29  C   LIG    1        0.006  10.824  -0.359  0.00  0.00    +0.170 A 
BRANCH  17  31
ATOM     30  C   LIG    1        1.382  13.559   0.919  0.00  0.00    +0.030 C 
ATOM     31  C   LIG    1        1.024  13.128  -0.505  0.00  0.00    +0.290 C 
ENDBRANCH  17  31
ENDBRANCH   1  22
TORSDOF 3
