REMARK  Name = ZINCvU0000000Ioc.0
REMARK                            x       y       z     vdW  Elec       q    Type
REMARK                         _______ _______ _______ _____ _____    ______ ____
ROOT
ATOM      1  C   LIG    1        0.164  -4.107   7.093  0.00  0.00    +0.130 A 
ATOM      2  N   LIG    1        0.301  -5.374   6.771  0.00  0.00    -0.290 NA
ATOM      3  N   LIG    1        0.232  -6.107   7.824  0.00  0.00    -0.250 NA
ATOM      4  C   LIG    1        0.038  -5.355   8.882  0.00  0.00    +0.220 A 
ATOM      5  N   LIG    1       -0.011  -4.051   8.446  0.00  0.00    -0.440 N 
ENDROOT
BRANCH   4   6
ATOM      6  C   LIG    1       -0.101  -5.821  10.278  0.00  0.00    -0.010 A 
ATOM      7  C   LIG    1        0.632  -5.210  11.297  0.00  0.00    +0.040 A 
ATOM      8  C   LIG    1        0.494  -5.647  12.598  0.00  0.00    +0.030 A 
ATOM      9  C   LIG    1       -0.360  -6.695  12.893  0.00  0.00    +0.050 A 
ATOM     10  C   LIG    1       -1.086  -7.309  11.888  0.00  0.00    +0.030 A 
ATOM     11  C   LIG    1       -0.961  -6.878  10.582  0.00  0.00    -0.000 A 
ATOM     12 CL   LIG    1       -1.872  -7.650   9.321  0.00  0.00    -0.040 Cl
ENDBRANCH   4   6
BRANCH   5  13
ATOM     13  C   LIG    1       -0.210  -2.851   9.264  0.00  0.00    +0.230 C 
ATOM     14  C   LIG    1       -1.458  -2.083   8.781  0.00  0.00    +0.030 C 
ATOM     15  C   LIG    1       -1.070  -0.592   8.937  0.00  0.00    +0.030 C 
ATOM     16  C   LIG    1        0.422  -0.582   8.521  0.00  0.00    +0.030 C 
ATOM     17  C   LIG    1        0.985  -1.896   9.098  0.00  0.00    +0.020 C 
ENDBRANCH   5  13
BRANCH   1  18
ATOM     18  S   LIG    1        0.194  -2.737   5.985  0.00  0.00    +0.130 S 
BRANCH  18  19
ATOM     19  C   LIG    1        0.461  -3.606   4.419  0.00  0.00    +0.170 C 
BRANCH  19  27
ATOM     20  C   LIG    1        1.043  -0.159  -2.481  0.00  0.00    +0.160 C 
ATOM     21  C   LIG    1        0.923  -0.748  -1.099  0.00  0.00    -0.200 A 
ATOM     22  C   LIG    1        0.732  -0.041  -0.001  0.00  0.00    -0.030 A 
ATOM     23  C   LIG    1        0.641  -0.823   1.216  0.00  0.00    -0.220 A 
ATOM     24  C   LIG    1        0.781  -2.181   0.979  0.00  0.00    +0.050 A 
ATOM     25  N   LIG    1        0.717  -3.052   2.044  0.00  0.00    -0.580 N 
ATOM     26  H   LIG    1        0.813  -4.005   1.887  0.00  0.00    +0.430 HD
ATOM     27  C   LIG    1        0.522  -2.605   3.294  0.00  0.00    +0.460 A 
ATOM     28  N   LIG    1        0.385  -1.339   3.574  0.00  0.00    -0.570 NA
ATOM     29  C   LIG    1        0.430  -0.400   2.615  0.00  0.00    +0.550 A 
ATOM     30  O   LIG    1        0.300   0.781   2.894  0.00  0.00    -0.480 OA
ATOM     31  C   LIG    1        0.613   1.461  -0.012  0.00  0.00    +0.130 C 
ATOM     32  S   LIG    1        1.021  -2.462  -0.739  0.00  0.00    +0.180 S 
ENDBRANCH  19  27
ENDBRANCH  18  19
ENDBRANCH   1  18
TORSDOF 5
