REMARK  Name = ZINCpk00000y6tSK.1
REMARK                            x       y       z     vdW  Elec       q    Type
REMARK                         _______ _______ _______ _____ _____    ______ ____
ROOT
ATOM      1  C   LIG    1       -2.451   1.085   0.026  0.00  0.00    +0.250 C 
ATOM      2  C   LIG    1       -3.610   1.987   0.530  0.00  0.00    +0.050 C 
ATOM      3  C   LIG    1       -4.833   1.338  -0.165  0.00  0.00    +0.260 C 
ATOM      4  N   LIG    1       -4.339   0.925  -1.491  0.00  0.00    -0.610 N 
ATOM      5  C   LIG    1       -5.098   0.745  -2.590  0.00  0.00    +0.570 C 
ATOM      6  O   LIG    1       -4.571   0.504  -3.659  0.00  0.00    -0.520 OA
ATOM      7  C   LIG    1       -2.882   0.743  -1.416  0.00  0.00    +0.260 C 
ENDROOT
BRANCH   5   8
ATOM      8  C   LIG    1       -6.569   0.840  -2.496  0.00  0.00    -0.120 A 
ATOM      9  C   LIG    1       -7.208   0.598  -1.278  0.00  0.00    +0.050 A 
ATOM     10  C   LIG    1       -8.578   0.691  -1.189  0.00  0.00    +0.020 A 
ATOM     11  C   LIG    1       -9.331   1.017  -2.320  0.00  0.00    +0.010 A 
ATOM     12  C   LIG    1       -8.692   1.254  -3.540  0.00  0.00    +0.070 A 
ATOM     13  C   LIG    1       -7.322   1.165  -3.627  0.00  0.00    +0.080 A 
BRANCH  11  14
ATOM     14  C   LIG    1      -10.803   1.112  -2.226  0.00  0.00    +0.210 A 
ATOM     15  N   LIG    1      -11.632   1.413  -3.201  0.00  0.00    -0.270 NA
ATOM     16  N   LIG    1      -12.839   1.400  -2.760  0.00  0.00    -0.290 NA
ATOM     17  C   LIG    1      -12.847   1.101  -1.488  0.00  0.00    +0.400 A 
ATOM     18  N   LIG    1      -11.562   0.909  -1.105  0.00  0.00    -0.580 N 
ATOM     19  H   LIG    1      -11.245   0.675  -0.219  0.00  0.00    +0.430 HD
ENDBRANCH  11  14
ENDBRANCH   5   8
BRANCH   1  21
ATOM     20  C   LIG    1       -0.015   1.150   0.021  0.00  0.00    +0.550 C 
ATOM     21  N   LIG    1       -1.184   1.821   0.028  0.00  0.00    -0.720 N 
ATOM     22  H   LIG    1       -1.186   2.791   0.033  0.00  0.00    +0.410 HD
ATOM     23  O   LIG    1       -0.013  -0.063   0.014  0.00  0.00    -0.530 OA
BRANCH  20  27
ATOM     24  C   LIG    1        3.778   1.642   0.772  0.00  0.00    +0.060 C 
ATOM     25  C   LIG    1        2.580   1.087  -0.000  0.00  0.00    +0.000 C 
ATOM     26  C   LIG    1        2.137   1.843  -1.255  0.00  0.00    +0.060 C 
ATOM     27  C   LIG    1        1.288   1.906   0.016  0.00  0.00    -0.080 C 
ENDBRANCH  20  27
ENDBRANCH   1  21
TORSDOF 4
