REMARK  Name = ZINCrD000000AtgA.0
REMARK                            x       y       z     vdW  Elec       q    Type
REMARK                         _______ _______ _______ _____ _____    ______ ____
ROOT
ATOM      1  O   LIG    1       -6.882   6.094  -0.632  0.00  0.00    -0.520 OA
ATOM      2  C   LIG    1       -6.186   5.730  -1.556  0.00  0.00    +0.540 C 
ATOM      3  N   LIG    1       -5.092   4.978  -1.321  0.00  0.00    -0.720 N 
ATOM      4  H   LIG    1       -4.535   4.687  -2.060  0.00  0.00    +0.410 HD
ENDROOT
BRANCH   3   5
ATOM      5  C   LIG    1       -4.745   4.600   0.051  0.00  0.00    +0.330 C 
BRANCH   5   6
ATOM      6  C   LIG    1       -3.489   3.767   0.040  0.00  0.00    -0.140 A 
ATOM      7  C   LIG    1       -2.253   4.380   0.141  0.00  0.00    +0.060 A 
ATOM      8  C   LIG    1       -1.101   3.619   0.132  0.00  0.00    -0.030 A 
ATOM      9  C   LIG    1       -1.184   2.237   0.020  0.00  0.00    +0.180 A 
ATOM     10  C   LIG    1       -2.426   1.625  -0.088  0.00  0.00    +0.000 A 
ATOM     11  C   LIG    1       -3.575   2.391  -0.071  0.00  0.00    +0.060 A 
BRANCH   9  12
ATOM     12  N   LIG    1       -0.018   1.463   0.010  0.00  0.00    -0.560 N 
ATOM     13  C   LIG    1        1.342   2.015  -0.011  0.00  0.00    +0.260 C 
ATOM     14  C   LIG    1        2.254   0.846  -0.444  0.00  0.00    +0.060 C 
ATOM     15  C   LIG    1        1.428  -0.382   0.004  0.00  0.00    +0.070 C 
ATOM     16  C   LIG    1        0.001   0.119   0.024  0.00  0.00    +0.520 C 
ATOM     17  O   LIG    1       -0.984  -0.589   0.050  0.00  0.00    -0.510 OA
ENDBRANCH   9  12
ENDBRANCH   5   6
ENDBRANCH   3   5
BRANCH   2  18
ATOM     18  C   LIG    1       -6.543   6.119  -2.967  0.00  0.00    +0.080 C 
BRANCH  18  19
ATOM     19  S   LIG    1       -8.051   7.120  -2.954  0.00  0.00    +0.160 S 
BRANCH  19  20
ATOM     20  C   LIG    1       -8.232   7.424  -4.680  0.00  0.00    +0.200 A 
ATOM     21  N   LIG    1       -9.197   8.124  -5.222  0.00  0.00    -0.450 NA
ATOM     22  C   LIG    1       -9.015   8.147  -6.570  0.00  0.00    +0.030 A 
ATOM     23  C   LIG    1       -9.718   8.727  -7.627  0.00  0.00    +0.080 A 
ATOM     24  C   LIG    1       -9.266   8.565  -8.919  0.00  0.00    +0.020 A 
ATOM     25  C   LIG    1       -8.118   7.830  -9.173  0.00  0.00    +0.050 A 
ATOM     26  C   LIG    1       -7.414   7.251  -8.137  0.00  0.00    +0.050 A 
ATOM     27  C   LIG    1       -7.854   7.404  -6.832  0.00  0.00    +0.010 A 
ATOM     28  O   LIG    1       -7.395   6.977  -5.633  0.00  0.00    -0.210 OA
ENDBRANCH  19  20
ENDBRANCH  18  19
ENDBRANCH   2  18
TORSDOF 6
