REMARK  Name = ZINCtV00000L6jYx.0
REMARK                            x       y       z     vdW  Elec       q    Type
REMARK                         _______ _______ _______ _____ _____    ______ ____
ROOT
ATOM      1  P   LIG    1        2.956   0.209   0.590  0.00  0.00    +2.580 P 
ATOM      2  O   LIG    1        3.651  -0.439  -0.545  0.00  0.00    -1.040 OA
ENDROOT
BRANCH   1   3
ATOM      3  C   LIG    1        1.363   0.869   0.027  0.00  0.00    -0.760 A 
ATOM      4  C   LIG    1        0.336   1.062   0.931  0.00  0.00    +0.070 A 
ATOM      5  C   LIG    1       -0.880   1.560   0.501  0.00  0.00    -0.010 A 
ATOM      6  C   LIG    1       -1.065   1.874  -0.832  0.00  0.00    +0.050 A 
ATOM      7  C   LIG    1       -0.038   1.682  -1.737  0.00  0.00    +0.000 A 
ATOM      8  C   LIG    1        1.176   1.179  -1.307  0.00  0.00    +0.100 A 
ENDBRANCH   1   3
BRANCH   1   9
ATOM      9  N   LIG    1        2.702  -0.893   1.777  0.00  0.00    -1.110 N 
ATOM     10  H   LIG    1        3.034  -0.727   2.673  0.00  0.00    +0.420 HD
BRANCH   9  14
ATOM     11  C   LIG    1        0.628  -4.412   0.945  0.00  0.00    +0.100 A 
ATOM     12  C   LIG    1        1.021  -4.130   2.245  0.00  0.00    +0.020 A 
ATOM     13  C   LIG    1        1.709  -2.965   2.521  0.00  0.00    +0.010 A 
ATOM     14  C   LIG    1        2.005  -2.075   1.498  0.00  0.00    +0.150 A 
ATOM     15  C   LIG    1        1.605  -2.354   0.198  0.00  0.00    +0.000 A 
ATOM     16  C   LIG    1        0.924  -3.523  -0.078  0.00  0.00    -0.030 A 
BRANCH  11  17
ATOM     17  O   LIG    1       -0.049  -5.560   0.673  0.00  0.00    -0.320 OA
BRANCH  17  19
ATOM     18  C   LIG    1       -1.170  -7.117  -0.796  0.00  0.00    +0.070 C 
ATOM     19  C   LIG    1       -0.423  -5.786  -0.687  0.00  0.00    +0.170 C 
ENDBRANCH  17  19
ENDBRANCH  11  17
ENDBRANCH   9  14
ENDBRANCH   1   9
BRANCH   1  20
ATOM     20  O   LIG    1        3.864   1.411   1.159  0.00  0.00    -0.750 OA
BRANCH  20  21
ATOM     21  C   LIG    1        4.195   2.568   0.389  0.00  0.00    +0.220 C 
ATOM     22  C   LIG    1        5.666   2.501  -0.026  0.00  0.00    +0.020 C 
ATOM     23  C   LIG    1        6.021   3.739  -0.850  0.00  0.00    -0.020 C 
ATOM     24  C   LIG    1        5.785   4.996  -0.010  0.00  0.00    +0.020 C 
ATOM     25  C   LIG    1        4.314   5.064   0.404  0.00  0.00    +0.020 C 
ATOM     26  C   LIG    1        7.492   3.672  -1.265  0.00  0.00    +0.030 C 
ATOM     27  C   LIG    1        3.959   3.825   1.229  0.00  0.00    +0.000 C 
BRANCH  27  28
ATOM     28  C   LIG    1        2.488   3.892   1.643  0.00  0.00    -0.030 C 
ATOM     29  C   LIG    1        1.617   4.092   0.402  0.00  0.00    +0.010 C 
ATOM     30  C   LIG    1        2.282   5.065   2.604  0.00  0.00    +0.020 C 
ENDBRANCH  27  28
ENDBRANCH  20  21
ENDBRANCH   1  20
TORSDOF 8
