REMARK  Name = ZINCqH0000051vlW.0
REMARK                            x       y       z     vdW  Elec       q    Type
REMARK                         _______ _______ _______ _____ _____    ______ ____
ROOT
ATOM      1  O   LIG    1        1.059  -0.597   0.054  0.00  0.00    -0.430 OA
ATOM      2  C   LIG    1        0.002  -0.004   0.002  0.00  0.00    +0.500 C 
ATOM      3  N   LIG    1       -1.154  -0.693  -0.063  0.00  0.00    -0.640 N 
ATOM      4  H   LIG    1       -2.000  -0.220  -0.104  0.00  0.00    +0.420 HD
ENDROOT
BRANCH   2   5
ATOM      5  C   LIG    1       -0.018   1.503   0.010  0.00  0.00    +0.190 C 
ATOM      6  O   LIG    1        1.327   2.010   0.000  0.00  0.00    -0.340 OA
ATOM      7  C   LIG    1        1.325   3.225   0.780  0.00  0.00    +0.230 C 
ATOM      8  C   LIG    1        0.395   2.887   1.973  0.00  0.00    +0.020 C 
ATOM      9  C   LIG    1       -0.690   2.011   1.301  0.00  0.00    -0.020 C 
BRANCH   9  10
ATOM     10  C   LIG    1       -1.066   0.836   2.207  0.00  0.00    +0.300 C 
BRANCH  10  11
ATOM     11  N   LIG    1       -1.807   1.333   3.368  0.00  0.00    -0.460 N 
ATOM     12  C   LIG    1       -3.164   1.487   3.461  0.00  0.00    +0.110 A 
ATOM     13  C   LIG    1       -3.419   1.968   4.693  0.00  0.00    +0.150 A 
ATOM     14  N   LIG    1       -2.249   2.104   5.335  0.00  0.00    -0.490 NA
ATOM     15  C   LIG    1       -1.280   1.720   4.550  0.00  0.00    +0.390 A 
ENDBRANCH  10  11
ENDBRANCH   9  10
ENDBRANCH   2   5
BRANCH   3  16
ATOM     16  C   LIG    1       -1.135  -2.082  -0.070  0.00  0.00    +0.260 A 
ATOM     17  N   LIG    1       -0.062  -2.809  -0.018  0.00  0.00    -0.470 NA
ATOM     18  C   LIG    1       -0.222  -4.115  -0.034  0.00  0.00    +0.270 A 
ATOM     19  C   LIG    1       -1.508  -4.516  -0.104  0.00  0.00    -0.200 A 
ATOM     20  S   LIG    1       -2.523  -3.077  -0.142  0.00  0.00    +0.160 S 
BRANCH  19  21
ATOM     21  C   LIG    1       -1.982  -5.916  -0.138  0.00  0.00    +0.000 A 
ATOM     22  C   LIG    1       -1.064  -6.967  -0.101  0.00  0.00    +0.050 A 
ATOM     23  C   LIG    1       -1.512  -8.271  -0.128  0.00  0.00    +0.040 A 
ATOM     24  C   LIG    1       -2.869  -8.539  -0.201  0.00  0.00    -0.030 A 
ATOM     25  C   LIG    1       -3.784  -7.500  -0.242  0.00  0.00    +0.040 A 
ATOM     26 CL   LIG    1       -3.426 -10.182  -0.240  0.00  0.00    -0.060 Cl
ATOM     27  C   LIG    1       -3.348  -6.191  -0.211  0.00  0.00    +0.030 A 
ENDBRANCH  19  21
ENDBRANCH   3  16
TORSDOF 5
