REMARK  Name = ZINCqH0000000XIx.0
REMARK                            x       y       z     vdW  Elec       q    Type
REMARK                         _______ _______ _______ _____ _____    ______ ____
ROOT
ATOM      1  N   LIG    1        1.342   1.530   2.443  0.00  0.00    -0.740 N 
ATOM      2  H   LIG    1        0.505   2.013   2.365  0.00  0.00    +0.410 HD
ENDROOT
BRANCH   1   7
ATOM      3  C   LIG    1        1.693   1.327   6.096  0.00  0.00    -0.040 A 
ATOM      4  C   LIG    1        2.887   0.638   6.205  0.00  0.00    -0.040 A 
ATOM      5  C   LIG    1        3.569   0.245   5.069  0.00  0.00    +0.050 A 
ATOM      6  C   LIG    1        3.057   0.535   3.819  0.00  0.00    -0.070 A 
ATOM      7  C   LIG    1        1.861   1.231   3.705  0.00  0.00    +0.210 A 
ATOM      8  C   LIG    1        1.178   1.625   4.849  0.00  0.00    -0.050 A 
BRANCH   3   9
ATOM      9  C   LIG    1        0.953   1.754   7.337  0.00  0.00    +0.220 C 
BRANCH   9  10
ATOM     10  O   LIG    1        0.046   0.722   7.729  0.00  0.00    -0.370 OA
BRANCH  10  12
ATOM     11  C   LIG    1       -1.539   2.290   8.661  0.00  0.00    +0.010 C 
ATOM     12  C   LIG    1       -0.709   1.027   8.903  0.00  0.00    +0.110 C 
ATOM     13  C   LIG    1        0.244   1.261  10.077  0.00  0.00    +0.020 C 
ATOM     14  C   LIG    1       -1.642  -0.141   9.228  0.00  0.00    +0.050 C 
ENDBRANCH  10  12
ENDBRANCH   9  10
ENDBRANCH   3   9
ENDBRANCH   1   7
BRANCH   1  15
ATOM     15  C   LIG    1        2.064   1.114   1.238  0.00  0.00    +0.240 C 
BRANCH  15  16
ATOM     16  C   LIG    1        1.286   1.562  -0.002  0.00  0.00    +0.220 C 
BRANCH  16  17
ATOM     17  O   LIG    1       -0.011   0.963   0.007  0.00  0.00    -0.540 OA
ATOM     18  H   LIG    1        0.002  -0.004   0.002  0.00  0.00    +0.380 HD
ENDBRANCH  16  17
BRANCH  16  19
ATOM     19  C   LIG    1        2.040   1.127  -1.261  0.00  0.00    +0.190 C 
BRANCH  19  20
ATOM     20  O   LIG    1        1.376   1.645  -2.415  0.00  0.00    -0.300 OA
BRANCH  20  21
ATOM     21  C   LIG    1        1.920   1.349  -3.623  0.00  0.00    +0.170 A 
ATOM     22  C   LIG    1        3.068   0.577  -3.699  0.00  0.00    -0.070 A 
ATOM     23  C   LIG    1        3.621   0.276  -4.929  0.00  0.00    +0.090 A 
ATOM     24  C   LIG    1        3.034   0.742  -6.093  0.00  0.00    -0.020 A 
ATOM     25  C   LIG    1        1.891   1.512  -6.037  0.00  0.00    +0.110 A 
ATOM     26  C   LIG    1        1.319   1.819  -4.800  0.00  0.00    -0.060 A 
BRANCH  26  27
ATOM     27  C   LIG    1        0.129   2.613  -4.734  0.00  0.00    +0.260 C 
ATOM     28  N   LIG    1       -0.815   3.242  -4.681  0.00  0.00    -0.410 NA
ENDBRANCH  26  27
ENDBRANCH  20  21
ENDBRANCH  19  20
ENDBRANCH  16  19
ENDBRANCH  15  16
ENDBRANCH   1  15
TORSDOF 11
