REMARK  Name = ZINCkj00000Q3ztv.0
REMARK                            x       y       z     vdW  Elec       q    Type
REMARK                         _______ _______ _______ _____ _____    ______ ____
ROOT
ATOM      1  C   LIG    1       -2.674   7.596  -3.323  0.00  0.00    +0.140 C 
ATOM      2  C   LIG    1       -1.819   8.237  -4.438  0.00  0.00    +0.050 C 
ATOM      3  C   LIG    1       -1.672   7.115  -5.496  0.00  0.00    +0.050 C 
ATOM      4  C   LIG    1       -1.518   5.843  -4.626  0.00  0.00    +0.050 C 
ATOM      5  C   LIG    1       -2.481   6.074  -3.443  0.00  0.00    +0.170 C 
ENDROOT
BRANCH   1   9
ATOM      6  C   LIG    1       -2.068   9.887  -0.491  0.00  0.00    +0.180 C 
ATOM      7  C   LIG    1       -3.152   8.930   0.056  0.00  0.00    +0.010 C 
ATOM      8  C   LIG    1       -3.224   7.778  -0.964  0.00  0.00    +0.160 C 
ATOM      9  N   LIG    1       -2.214   8.059  -2.007  0.00  0.00    -0.540 NA
ATOM     10  C   LIG    1       -2.022   9.532  -1.998  0.00  0.00    +0.220 C 
BRANCH   6  11
ATOM     11  O   LIG    1       -2.454  11.249  -0.300  0.00  0.00    -0.560 OA
ATOM     12  H   LIG    1       -2.571  11.499   0.627  0.00  0.00    +0.390 HD
ENDBRANCH   6  11
ENDBRANCH   1   9
BRANCH   5  13
ATOM     13  N   LIG    1       -1.895   5.542  -2.206  0.00  0.00    -0.500 N 
ATOM     14  H   LIG    1       -1.004   5.985  -2.038  0.00  0.00    +0.430 HD
ATOM     15  H   LIG    1       -2.514   5.729  -1.432  0.00  0.00    +0.420 HD
BRANCH  13  16
ATOM     16  C   LIG    1       -1.703   4.092  -2.339  0.00  0.00    +0.240 C 
BRANCH  16  17
ATOM     17  C   LIG    1       -1.092   3.537  -1.050  0.00  0.00    +0.030 C 
BRANCH  17  18
ATOM     18  C   LIG    1       -0.892   2.027  -1.189  0.00  0.00    +0.050 C 
BRANCH  18  19
ATOM     19  C   LIG    1       -0.282   1.473   0.100  0.00  0.00    -0.030 C 
ATOM     20  C   LIG    1       -0.185  -0.068   0.034  0.00  0.00    +0.010 C 
ATOM     21  C   LIG    1        1.328  -0.354   0.149  0.00  0.00    +0.200 C 
ATOM     22  O   LIG    1        1.873   0.802   0.821  0.00  0.00    -0.370 OA
ATOM     23  C   LIG    1        1.185   1.935   0.246  0.00  0.00    +0.200 C 
ENDBRANCH  18  19
ENDBRANCH  17  18
ENDBRANCH  16  17
ENDBRANCH  13  16
ENDBRANCH   5  13
TORSDOF 7
