REMARK  Name = ZINCrH000004r4Yz.0
REMARK                            x       y       z     vdW  Elec       q    Type
REMARK                         _______ _______ _______ _____ _____    ______ ____
ROOT
ATOM      1  C   LIG    1        1.217  -0.669  -0.023  0.00  0.00    -0.090 A 
ATOM      2  C   LIG    1        2.402   0.042  -0.040  0.00  0.00    +0.020 A 
ATOM      3  C   LIG    1        2.383   1.425  -0.034  0.00  0.00    +0.030 A 
ATOM      4  C   LIG    1        1.178   2.100  -0.013  0.00  0.00    +0.030 A 
ATOM      5  C   LIG    1       -0.015   1.388   0.004  0.00  0.00    +0.140 A 
ATOM      6  C   LIG    1        0.009  -0.000  -0.002  0.00  0.00    +0.010 A 
ENDROOT
BRANCH   5   7
ATOM      7  N   LIG    1       -1.236   2.069   0.019  0.00  0.00    -0.670 N 
ATOM      8  H   LIG    1       -2.000   1.706  -0.457  0.00  0.00    +0.410 HD
ATOM      9  C   LIG    1       -1.353   3.229   0.696  0.00  0.00    +0.560 C 
ATOM     10  O   LIG    1       -0.377   3.727   1.221  0.00  0.00    -0.500 OA
BRANCH   9  11
ATOM     11  C   LIG    1       -2.671   3.897   0.798  0.00  0.00    -0.090 A 
ATOM     12  C   LIG    1       -3.805   3.344   0.196  0.00  0.00    +0.000 A 
ATOM     13  C   LIG    1       -5.016   3.998   0.321  0.00  0.00    +0.270 A 
ATOM     14  N   LIG    1       -5.107   5.132   0.988  0.00  0.00    -0.470 NA
ATOM     15  C   LIG    1       -4.062   5.689   1.566  0.00  0.00    +0.270 A 
ATOM     16  C   LIG    1       -2.814   5.100   1.495  0.00  0.00    +0.040 A 
ENDBRANCH   9  11
ENDBRANCH   5   7
BRANCH   1  17
ATOM     17  C   LIG    1        1.243  -2.176  -0.029  0.00  0.00    +0.320 C 
BRANCH  17  19
ATOM     18  C   LIG    1        1.249  -3.983  -1.663  0.00  0.00    +0.560 C 
ATOM     19  N   LIG    1        1.230  -2.659  -1.412  0.00  0.00    -0.720 N 
ATOM     20  H   LIG    1        1.207  -2.026  -2.147  0.00  0.00    +0.400 HD
ATOM     21  O   LIG    1        1.277  -4.776  -0.743  0.00  0.00    -0.530 OA
BRANCH  18  26
ATOM     22  C   LIG    1        1.195  -5.877  -7.099  0.00  0.00    +0.110 C 
ATOM     23  C   LIG    1        1.210  -5.382  -5.676  0.00  0.00    -0.090 A 
ATOM     24  C   LIG    1        1.190  -4.023  -5.419  0.00  0.00    +0.040 A 
ATOM     25  C   LIG    1        1.198  -3.563  -4.118  0.00  0.00    +0.040 A 
ATOM     26  C   LIG    1        1.236  -4.471  -3.059  0.00  0.00    -0.110 A 
ATOM     27  C   LIG    1        1.255  -5.841  -3.322  0.00  0.00    +0.060 A 
ATOM     28  C   LIG    1        1.242  -6.290  -4.629  0.00  0.00    +0.090 A 
ATOM     29  F   LIG    1        1.261  -7.616  -4.887  0.00  0.00    -0.130 F 
ENDBRANCH  18  26
ENDBRANCH  17  19
ENDBRANCH   1  17
TORSDOF 5
