REMARK  Name = ZINCpe000000WDe7.0
REMARK                            x       y       z     vdW  Elec       q    Type
REMARK                         _______ _______ _______ _____ _____    ______ ____
ROOT
ATOM      1  N   LIG    1        4.885  -0.203   1.165  0.00  0.00    -0.530 NA
ATOM      2  C   LIG    1        4.911   0.537  -0.103  0.00  0.00    +0.180 C 
ATOM      3  C   LIG    1        3.736   1.516  -0.148  0.00  0.00    +0.040 C 
ATOM      4  C   LIG    1        2.424   0.737  -0.017  0.00  0.00    -0.020 C 
ATOM      5  C   LIG    1        2.442  -0.064   1.288  0.00  0.00    +0.020 C 
ATOM      6  C   LIG    1        3.656  -0.996   1.292  0.00  0.00    +0.180 C 
ENDROOT
BRANCH   1   7
ATOM      7  C   LIG    1        6.076  -1.052   1.304  0.00  0.00    +0.250 C 
BRANCH   7  13
ATOM      8  C   LIG    1        5.138  -3.134   2.378  0.00  0.00    +0.370 A 
ATOM      9  N   LIG    1        5.009  -3.918   3.441  0.00  0.00    -0.580 NA
ATOM     10  C   LIG    1        5.592  -3.608   4.582  0.00  0.00    +0.530 A 
ATOM     11  N   LIG    1        6.320  -2.518   4.715  0.00  0.00    -0.540 NA
ATOM     12  C   LIG    1        6.500  -1.689   3.698  0.00  0.00    +0.370 A 
ATOM     13  C   LIG    1        5.902  -1.972   2.484  0.00  0.00    -0.210 A 
BRANCH   8  15
ATOM     14  C   LIG    1        3.772  -4.663   1.182  0.00  0.00    +0.250 C 
ATOM     15  O   LIG    1        4.536  -3.457   1.207  0.00  0.00    -0.300 OA
ENDBRANCH   8  15
ENDBRANCH   7  13
ENDBRANCH   1   7
BRANCH   4  16
ATOM     16  C   LIG    1        1.248   1.716  -0.001  0.00  0.00    +0.270 C 
BRANCH  16  17
ATOM     17  N   LIG    1       -0.011   0.966   0.007  0.00  0.00    -0.730 N 
ATOM     18  H   LIG    1        0.002  -0.004   0.002  0.00  0.00    +0.400 HD
ATOM     19  C   LIG    1       -1.187   1.624   0.017  0.00  0.00    +0.600 C 
ATOM     20  O   LIG    1       -1.204   2.840   0.023  0.00  0.00    -0.550 OA
BRANCH  19  21
ATOM     21  C   LIG    1       -2.454   0.869   0.018  0.00  0.00    -0.300 A 
ATOM     22  C   LIG    1       -3.726   1.404   0.027  0.00  0.00    +0.320 A 
ATOM     23  N   LIG    1       -4.593   0.379   0.025  0.00  0.00    -0.360 N 
ATOM     24  N   LIG    1       -3.867  -0.817   0.015  0.00  0.00    -0.300 NA
ATOM     25  C   LIG    1       -6.054   0.493   0.033  0.00  0.00    +0.360 C 
ATOM     26  C   LIG    1       -2.593  -0.537   0.005  0.00  0.00    +0.270 A 
ENDBRANCH  19  21
ENDBRANCH  16  17
ENDBRANCH   4  16
TORSDOF 6
