REMARK  Name = ZINCpe00000xYW9M.0
REMARK                            x       y       z     vdW  Elec       q    Type
REMARK                         _______ _______ _______ _____ _____    ______ ____
ROOT
ATOM      1  C   LIG    1        5.420   0.113   1.310  0.00  0.00    +0.680 C 
ATOM      2  N   LIG    1        4.242   0.660   0.951  0.00  0.00    -0.640 N 
ATOM      3  C   LIG    1        3.834   1.689  -0.025  0.00  0.00    +0.370 C 
ATOM      4  C   LIG    1        2.457   1.002  -0.016  0.00  0.00    +0.010 C 
ATOM      5  C   LIG    1        2.842   0.472   1.377  0.00  0.00    +0.340 C 
ATOM      6  O   LIG    1        6.447   0.475   0.771  0.00  0.00    -0.560 OA
ENDROOT
BRANCH   4   7
ATOM      7  C   LIG    1        2.313  -0.052  -1.034  0.00  0.00    +0.230 C 
ATOM      8  N   LIG    1        2.202  -0.865  -1.820  0.00  0.00    -0.400 NA
ENDBRANCH   4   7
BRANCH   1   9
ATOM      9  O   LIG    1        5.459  -0.834   2.266  0.00  0.00    -0.360 OA
BRANCH   9  11
ATOM     10  C   LIG    1        7.673  -0.254   3.100  0.00  0.00    +0.040 C 
ATOM     11  C   LIG    1        6.763  -1.379   2.602  0.00  0.00    +0.140 C 
ATOM     12  C   LIG    1        7.381  -2.023   1.360  0.00  0.00    +0.040 C 
ATOM     13  C   LIG    1        6.607  -2.433   3.700  0.00  0.00    +0.080 C 
ENDBRANCH   9  11
ENDBRANCH   1   9
BRANCH   4  14
ATOM     14  C   LIG    1        1.280   1.980   0.001  0.00  0.00    +0.120 C 
BRANCH  14  15
ATOM     15  C   LIG    1       -0.014   1.209   0.009  0.00  0.00    +0.510 C 
ATOM     16  N   LIG    1       -1.191   1.867   0.018  0.00  0.00    -0.720 N 
ATOM     17  H   LIG    1       -1.204   2.837   0.023  0.00  0.00    +0.410 HD
ATOM     18  O   LIG    1        0.002  -0.004   0.002  0.00  0.00    -0.530 OA
BRANCH  16  19
ATOM     19  C   LIG    1       -2.449   1.117   0.020  0.00  0.00    +0.310 C 
BRANCH  19  20
ATOM     20  C   LIG    1       -3.608   2.080   0.030  0.00  0.00    +0.520 C 
ATOM     21  N   LIG    1       -4.872   1.614   0.034  0.00  0.00    -0.620 N 
ATOM     22  C   LIG    1       -5.263   0.197   0.022  0.00  0.00    +0.230 C 
ATOM     23  C   LIG    1       -6.805   0.146   0.006  0.00  0.00    +0.040 C 
ATOM     24  C   LIG    1       -7.190   1.535  -0.569  0.00  0.00    +0.030 C 
ATOM     25  C   LIG    1       -6.093   2.441   0.044  0.00  0.00    +0.250 C 
ATOM     26  O   LIG    1       -3.402   3.276   0.036  0.00  0.00    -0.540 OA
ENDBRANCH  19  20
ENDBRANCH  16  19
ENDBRANCH  14  15
ENDBRANCH   4  14
TORSDOF 7
