REMARK  Name = ZINCvU0000000JLN.0
REMARK                            x       y       z     vdW  Elec       q    Type
REMARK                         _______ _______ _______ _____ _____    ______ ____
ROOT
ATOM      1  C   LIG    1        5.576   0.771  -1.492  0.00  0.00    +0.510 C 
ATOM      2  N   LIG    1        6.238   0.780  -2.665  0.00  0.00    -0.670 N 
ATOM      3  H   LIG    1        5.748   0.707  -3.499  0.00  0.00    +0.420 HD
ATOM      4  O   LIG    1        6.193   0.778  -0.447  0.00  0.00    -0.520 OA
ENDROOT
BRANCH   2   5
ATOM      5  C   LIG    1        7.634   0.894  -2.681  0.00  0.00    +0.150 A 
ATOM      6  C   LIG    1        8.262   1.595  -3.702  0.00  0.00    +0.000 A 
ATOM      7  C   LIG    1        9.639   1.714  -3.717  0.00  0.00    +0.060 A 
ATOM      8  C   LIG    1       10.396   1.124  -2.720  0.00  0.00    +0.010 A 
ATOM      9  O   LIG    1       11.750   1.084  -2.505  0.00  0.00    -0.290 OA
ATOM     10  C   LIG    1       11.867   0.778  -1.108  0.00  0.00    +0.250 C 
ATOM     11  O   LIG    1       10.735  -0.064  -0.849  0.00  0.00    -0.290 OA
ATOM     12  C   LIG    1       13.181   0.048  -0.808  0.00  0.00    +0.070 C 
ATOM     13  C   LIG    1       14.112   1.163  -0.264  0.00  0.00    +0.040 C 
ATOM     14  C   LIG    1       13.145   2.046   0.566  0.00  0.00    +0.030 C 
ATOM     15  C   LIG    1       11.834   2.044  -0.252  0.00  0.00    +0.020 C 
ATOM     16  C   LIG    1        9.769   0.414  -1.696  0.00  0.00    +0.050 A 
ATOM     17  C   LIG    1        8.391   0.301  -1.678  0.00  0.00    +0.050 A 
ENDBRANCH   2   5
BRANCH   1  18
ATOM     18  C   LIG    1        4.069   0.753  -1.477  0.00  0.00    +0.070 C 
BRANCH  18  19
ATOM     19  C   LIG    1        3.573   0.747  -0.029  0.00  0.00    +0.140 C 
BRANCH  19  26
ATOM     20  C   LIG    1        1.742  -1.839  -0.012  0.00  0.00    +0.160 C 
ATOM     21  C   LIG    1        1.257  -0.412  -0.007  0.00  0.00    +0.090 A 
ATOM     22  N   LIG    1        0.006  -0.027   0.005  0.00  0.00    -0.290 NA
ATOM     23  N   LIG    1       -0.021   1.373   0.006  0.00  0.00    -0.320 N 
ATOM     24  C   LIG    1        1.258   1.814  -0.006  0.00  0.00    +0.090 A 
ATOM     25  C   LIG    1        1.702   3.254  -0.010  0.00  0.00    +0.150 C 
ATOM     26  C   LIG    1        2.067   0.729  -0.014  0.00  0.00    -0.230 A 
BRANCH  23  27
ATOM     27  C   LIG    1       -1.170   2.176   0.012  0.00  0.00    +0.150 A 
ATOM     28  C   LIG    1       -1.175   3.379   0.706  0.00  0.00    +0.000 A 
ATOM     29  C   LIG    1       -2.306   4.171   0.704  0.00  0.00    +0.030 A 
ATOM     30  C   LIG    1       -3.438   3.761   0.023  0.00  0.00    +0.010 A 
ATOM     31  C   LIG    1       -3.438   2.561  -0.664  0.00  0.00    +0.030 A 
ATOM     32  C   LIG    1       -2.307   1.768  -0.672  0.00  0.00    +0.020 A 
ENDBRANCH  23  27
ENDBRANCH  19  26
ENDBRANCH  18  19
ENDBRANCH   1  18
TORSDOF 5
