REMARK  Name = ZINCpe00000gMSkl.0
REMARK                            x       y       z     vdW  Elec       q    Type
REMARK                         _______ _______ _______ _____ _____    ______ ____
ROOT
ATOM      1  O   LIG    1       -0.209   3.574   8.161  0.00  0.00    -0.330 OA
ENDROOT
BRANCH   1   2
ATOM      2  C   LIG    1        0.262   3.143   6.980  0.00  0.00    +0.470 C 
ATOM      3  O   LIG    1        1.441   2.915   6.847  0.00  0.00    -0.480 OA
BRANCH   2   4
ATOM      4  C   LIG    1       -0.679   2.943   5.820  0.00  0.00    +0.290 C 
BRANCH   4   5
ATOM      5  O   LIG    1        0.056   2.483   4.684  0.00  0.00    -0.300 OA
BRANCH   5  10
ATOM      6  C   LIG    1       -2.864   1.540  -0.039  0.00  0.00    +0.090 C 
ATOM      7  C   LIG    1       -2.084   1.789   1.226  0.00  0.00    -0.120 A 
ATOM      8  C   LIG    1       -2.735   2.229   2.363  0.00  0.00    +0.050 A 
ATOM      9  C   LIG    1       -2.020   2.465   3.522  0.00  0.00    -0.080 A 
ATOM     10  C   LIG    1       -0.649   2.253   3.545  0.00  0.00    +0.120 A 
ATOM     11  C   LIG    1        0.001   1.805   2.404  0.00  0.00    -0.010 A 
ATOM     12  C   LIG    1       -0.718   1.572   1.248  0.00  0.00    -0.050 A 
ATOM     13  C   LIG    1       -0.013   1.086   0.008  0.00  0.00    +0.100 C 
ENDBRANCH   5  10
ENDBRANCH   4   5
ENDBRANCH   2   4
ENDBRANCH   1   2
BRANCH   1  14
ATOM     14  C   LIG    1        0.755   3.743   9.233  0.00  0.00    +0.270 C 
BRANCH  14  15
ATOM     15  C   LIG    1        0.047   4.229  10.472  0.00  0.00    +0.520 C 
ATOM     16  N   LIG    1        0.747   4.458  11.601  0.00  0.00    -0.600 N 
ATOM     17  C   LIG    1        2.194   4.234  11.624  0.00  0.00    +0.290 C 
ATOM     18  O   LIG    1       -1.151   4.414  10.453  0.00  0.00    -0.510 OA
BRANCH  16  19
ATOM     19  C   LIG    1        0.059   4.931  12.805  0.00  0.00    +0.280 C 
ATOM     20  C   LIG    1        0.636   6.292  13.230  0.00  0.00    +0.070 C 
ATOM     21  C   LIG    1        0.113   6.568  14.663  0.00  0.00    -0.300 C 
ATOM     22  S   LIG    1        0.298   4.936  15.476  0.00  0.00    +2.390 S 
ATOM     23  O   LIG    1       -0.865   4.659  16.245  0.00  0.00    -0.930 OA
ATOM     24  O   LIG    1        1.583   4.852  16.077  0.00  0.00    -0.930 OA
ATOM     25  C   LIG    1        0.273   3.924  13.953  0.00  0.00    -0.330 C 
ENDBRANCH  16  19
ENDBRANCH  14  15
ENDBRANCH   1  14
TORSDOF 7
