REMARK  Name = ZINCvU0000000HCY.0
REMARK                            x       y       z     vdW  Elec       q    Type
REMARK                         _______ _______ _______ _____ _____    ______ ____
ROOT
ATOM      1  C   LIG    1       -3.063   2.277  -0.019  0.00  0.00    +0.510 C 
ATOM      2  O   LIG    1       -2.873   3.313  -0.624  0.00  0.00    -0.500 OA
ENDROOT
BRANCH   1   7
ATOM      3  C   LIG    1       -8.425   0.333   0.774  0.00  0.00    +0.110 C 
ATOM      4  C   LIG    1       -7.022   0.843   0.565  0.00  0.00    -0.070 A 
ATOM      5  C   LIG    1       -5.949   0.130   1.064  0.00  0.00    +0.030 A 
ATOM      6  C   LIG    1       -4.662   0.591   0.877  0.00  0.00    +0.080 A 
ATOM      7  C   LIG    1       -4.440   1.782   0.182  0.00  0.00    -0.120 A 
ATOM      8  C   LIG    1       -5.524   2.505  -0.316  0.00  0.00    +0.110 A 
ATOM      9  C   LIG    1       -6.813   2.030  -0.128  0.00  0.00    +0.130 A 
BRANCH   9  10
ATOM     10  N   LIG    1       -7.903   2.748  -0.631  0.00  0.00    -0.660 N 
ATOM     11  H   LIG    1       -8.741   2.763  -0.142  0.00  0.00    +0.420 HD
ATOM     12  C   LIG    1       -7.789   3.419  -1.794  0.00  0.00    +0.610 C 
ATOM     13  O   LIG    1       -6.716   3.469  -2.365  0.00  0.00    -0.490 OA
BRANCH  12  14
ATOM     14  C   LIG    1       -8.959   4.088  -2.372  0.00  0.00    -0.090 A 
ATOM     15  C   LIG    1       -8.983   4.798  -3.538  0.00  0.00    +0.050 A 
ATOM     16  C   LIG    1      -10.298   5.258  -3.704  0.00  0.00    -0.070 A 
ATOM     17  C   LIG    1      -11.011   4.814  -2.645  0.00  0.00    +0.210 A 
ATOM     18  O   LIG    1      -10.202   4.105  -1.848  0.00  0.00    -0.170 OA
ENDBRANCH  12  14
ENDBRANCH   9  10
ENDBRANCH   1   7
BRANCH   1  19
ATOM     19  O   LIG    1       -2.018   1.580   0.468  0.00  0.00    -0.320 OA
BRANCH  19  20
ATOM     20  C   LIG    1       -0.694   2.127   0.233  0.00  0.00    +0.200 C 
ATOM     21  C   LIG    1       -0.144   1.581  -1.087  0.00  0.00    +0.070 C 
BRANCH  20  22
ATOM     22  C   LIG    1        0.222   1.729   1.362  0.00  0.00    +0.520 C 
ATOM     23  N   LIG    1        1.481   2.208   1.409  0.00  0.00    -0.670 N 
ATOM     24  H   LIG    1        1.819   2.755   0.683  0.00  0.00    +0.420 HD
ATOM     25  O   LIG    1       -0.174   0.977   2.227  0.00  0.00    -0.490 OA
BRANCH  23  26
ATOM     26  C   LIG    1        2.300   1.916   2.506  0.00  0.00    +0.170 A 
ATOM     27  C   LIG    1        3.211   2.858   2.964  0.00  0.00    +0.020 A 
ATOM     28  C   LIG    1        4.014   2.569   4.051  0.00  0.00    -0.000 A 
ATOM     29  C   LIG    1        3.920   1.337   4.675  0.00  0.00    +0.030 A 
ATOM     30  C   LIG    1        3.017   0.394   4.216  0.00  0.00    -0.000 A 
ATOM     31 CL   LIG    1        2.901  -1.149   5.002  0.00  0.00    -0.050 Cl
ATOM     32 CL   LIG    1        5.149   3.749   4.629  0.00  0.00    -0.050 Cl
ATOM     33  C   LIG    1        2.207   0.681   3.133  0.00  0.00    +0.050 A 
ENDBRANCH  23  26
ENDBRANCH  20  22
ENDBRANCH  19  20
ENDBRANCH   1  19
TORSDOF 7
