REMARK  Name = ZINCqH0000005q1T.0
REMARK                            x       y       z     vdW  Elec       q    Type
REMARK                         _______ _______ _______ _____ _____    ______ ____
ROOT
ATOM      1  C   LIG    1       -0.720   3.176   0.025  0.00  0.00    -0.000 A 
ATOM      2  C   LIG    1       -1.155   1.901   0.017  0.00  0.00    -0.030 A 
ATOM      3  C   LIG    1       -0.013   1.076   0.008  0.00  0.00    +0.000 A 
ATOM      4  C   LIG    1        1.067   1.902   0.002  0.00  0.00    +0.010 A 
ATOM      5  O   LIG    1        0.623   3.173   0.012  0.00  0.00    -0.140 OA
ENDROOT
BRANCH   1  18
ATOM      6  C   LIG    1       -0.358   5.062  -1.931  0.00  0.00    +0.230 C 
ATOM      7  N   LIG    1       -0.897   5.499  -0.636  0.00  0.00    -0.490 N 
ATOM      8  C   LIG    1       -1.694   6.622  -0.783  0.00  0.00    +0.120 A 
ATOM      9  C   LIG    1       -1.159   7.899  -0.680  0.00  0.00    +0.030 A 
ATOM     10  C   LIG    1       -1.975   9.001  -0.837  0.00  0.00    +0.060 A 
ATOM     11  C   LIG    1       -3.327   8.848  -1.098  0.00  0.00    +0.010 A 
ATOM     12  C   LIG    1       -3.878   7.587  -1.203  0.00  0.00    +0.100 A 
ATOM     13  C   LIG    1       -3.066   6.468  -1.043  0.00  0.00    -0.180 A 
ATOM     14  C   LIG    1       -3.613   5.099  -1.136  0.00  0.00    +0.570 C 
ATOM     15  N   LIG    1       -2.862   4.096  -0.625  0.00  0.00    -0.750 N 
ATOM     16  H   LIG    1       -3.163   3.176  -0.698  0.00  0.00    +0.410 HD
ATOM     17  O   LIG    1       -4.693   4.883  -1.652  0.00  0.00    -0.510 OA
ATOM     18  C   LIG    1       -1.596   4.403   0.039  0.00  0.00    +0.510 C 
ENDBRANCH   1  18
BRANCH   4  19
ATOM     19  C   LIG    1        2.483   1.478  -0.012  0.00  0.00    +0.040 A 
ATOM     20  C   LIG    1        2.809   0.121  -0.015  0.00  0.00    +0.050 A 
ATOM     21  C   LIG    1        4.132  -0.268  -0.034  0.00  0.00    +0.110 A 
ATOM     22  C   LIG    1        5.136   0.684  -0.039  0.00  0.00    -0.040 A 
ATOM     23  C   LIG    1        4.820   2.031  -0.030  0.00  0.00    +0.110 A 
ATOM     24  C   LIG    1        3.501   2.433  -0.017  0.00  0.00    +0.050 A 
BRANCH  22  25
ATOM     25  N   LIG    1        6.554   0.260  -0.054  0.00  0.00    +0.030 N 
ATOM     26  O   LIG    1        6.835  -0.925  -0.062  0.00  0.00    -0.160 OA
ATOM     27  O   LIG    1        7.440   1.096  -0.059  0.00  0.00    -0.150 OA
ENDBRANCH  22  25
ENDBRANCH   4  19
TORSDOF 3
