REMARK  Name = ZINCpk000000oFfS.0
REMARK                            x       y       z     vdW  Elec       q    Type
REMARK                         _______ _______ _______ _____ _____    ______ ____
ROOT
ATOM      1  N   LIG    1       -0.905   3.515   1.147  0.00  0.00    -0.630 N 
ATOM      2  C   LIG    1       -2.066   3.977   0.642  0.00  0.00    +0.710 C 
ATOM      3  N   LIG    1       -2.265   5.304   0.515  0.00  0.00    -0.740 N 
ATOM      4  H   LIG    1       -1.573   5.927   0.787  0.00  0.00    +0.400 HD
ATOM      5  O   LIG    1       -2.934   3.197   0.301  0.00  0.00    -0.580 OA
ENDROOT
BRANCH   1   7
ATOM      6  C   LIG    1        0.986   4.841   0.343  0.00  0.00    +0.020 C 
ATOM      7  C   LIG    1        0.140   4.455   1.558  0.00  0.00    +0.260 C 
ENDBRANCH   1   7
BRANCH   3   8
ATOM      8  C   LIG    1       -3.527   5.807  -0.035  0.00  0.00    +0.350 C 
BRANCH   8   9
ATOM      9  C   LIG    1       -3.495   7.313  -0.070  0.00  0.00    -0.190 A 
ATOM     10  C   LIG    1       -3.014   7.978  -1.190  0.00  0.00    +0.110 A 
ATOM     11  C   LIG    1       -3.002   9.361  -1.182  0.00  0.00    -0.050 A 
ATOM     12  C   LIG    1       -3.470  10.035  -0.059  0.00  0.00    +0.320 A 
ATOM     13  N   LIG    1       -3.921   9.365   0.990  0.00  0.00    -0.520 NA
ATOM     14  C   LIG    1       -3.949   8.046   1.008  0.00  0.00    +0.310 A 
BRANCH  12  15
ATOM     15  N   LIG    1       -3.464  11.425  -0.037  0.00  0.00    -0.480 N 
ATOM     16  C   LIG    1       -2.113  11.950  -0.285  0.00  0.00    +0.180 C 
ATOM     17  C   LIG    1       -2.163  13.480  -0.312  0.00  0.00    +0.230 C 
ATOM     18  O   LIG    1       -2.712  13.956   0.920  0.00  0.00    -0.380 OA
ATOM     19  C   LIG    1       -4.027  13.465   1.192  0.00  0.00    +0.230 C 
ATOM     20  C   LIG    1       -3.996  11.935   1.235  0.00  0.00    +0.190 C 
ENDBRANCH  12  15
ENDBRANCH   8   9
ENDBRANCH   3   8
BRANCH   1  21
ATOM     21  C   LIG    1       -0.689   2.073   1.286  0.00  0.00    +0.310 C 
BRANCH  21  22
ATOM     22  C   LIG    1       -1.048   1.638   2.708  0.00  0.00    -0.060 C 
ATOM     23  C   LIG    1       -0.741   0.135   2.920  0.00  0.00    +0.010 C 
ATOM     24  C   LIG    1       -1.939  -0.383   3.739  0.00  0.00    +0.190 C 
ATOM     25  O   LIG    1       -2.797   0.740   3.998  0.00  0.00    -0.380 OA
ATOM     26  C   LIG    1       -2.580   1.691   2.933  0.00  0.00    +0.210 C 
ENDBRANCH  21  22
ENDBRANCH   1  21
TORSDOF 6
