REMARK  Name = ZINCqH0000004dnn.0
REMARK                            x       y       z     vdW  Elec       q    Type
REMARK                         _______ _______ _______ _____ _____    ______ ____
ROOT
ATOM      1  C   LIG    1        5.667   6.886   1.264  0.00  0.00    +0.520 C 
ATOM      2  N   LIG    1        4.806   6.013   0.704  0.00  0.00    -0.610 N 
ATOM      3  C   LIG    1        4.317   6.219  -0.666  0.00  0.00    +0.290 C 
ATOM      4  C   LIG    1        2.785   6.189  -0.653  0.00  0.00    +0.010 C 
ATOM      5  C   LIG    1        2.310   4.887  -0.005  0.00  0.00    +0.240 C 
ATOM      6  C   LIG    1        2.807   4.824   1.441  0.00  0.00    +0.000 C 
ATOM      7  C   LIG    1        4.338   4.838   1.452  0.00  0.00    +0.280 C 
ATOM      8  O   LIG    1        6.117   7.800   0.606  0.00  0.00    -0.530 OA
ENDROOT
BRANCH   5   9
ATOM      9  N   LIG    1        0.846   4.840  -0.020  0.00  0.00    -0.730 N 
ATOM     10  H   LIG    1        0.334   5.664  -0.054  0.00  0.00    +0.400 HD
ATOM     11  C   LIG    1        0.209   3.653   0.011  0.00  0.00    +0.510 C 
ATOM     12  O   LIG    1        0.848   2.623   0.053  0.00  0.00    -0.530 OA
BRANCH  11  13
ATOM     13  C   LIG    1       -1.297   3.605  -0.004  0.00  0.00    +0.040 C 
BRANCH  13  14
ATOM     14  C   LIG    1       -1.762   2.147   0.038  0.00  0.00    +0.040 C 
ATOM     15  C   LIG    1       -1.351   1.520   1.372  0.00  0.00    +0.020 C 
BRANCH  14  16
ATOM     16  C   LIG    1       -3.284   2.093  -0.103  0.00  0.00    -0.050 C 
ATOM     17  C   LIG    1       -3.861   1.160  -1.170  0.00  0.00    +0.000 C 
ATOM     18  C   LIG    1       -3.896   2.675  -1.379  0.00  0.00    +0.000 C 
ENDBRANCH  14  16
ENDBRANCH  13  14
ENDBRANCH  11  13
ENDBRANCH   5   9
BRANCH   1  19
ATOM     19  C   LIG    1        6.070   6.726   2.707  0.00  0.00    +0.030 C 
BRANCH  19  20
ATOM     20  C   LIG    1        6.502   8.060   3.259  0.00  0.00    -0.070 A 
ATOM     21  C   LIG    1        7.569   8.730   2.691  0.00  0.00    +0.040 A 
ATOM     22  C   LIG    1        7.963   9.956   3.195  0.00  0.00    +0.000 A 
ATOM     23  C   LIG    1        7.294  10.507   4.272  0.00  0.00    +0.000 A 
ATOM     24  C   LIG    1        6.230   9.835   4.843  0.00  0.00    +0.000 A 
ATOM     25  C   LIG    1        5.834   8.611   4.337  0.00  0.00    +0.010 A 
ENDBRANCH  19  20
BRANCH  19  27
ATOM     26  C   LIG    1        7.553   5.471   4.277  0.00  0.00    +0.030 C 
ATOM     27  C   LIG    1        7.230   5.733   2.805  0.00  0.00    +0.030 C 
ENDBRANCH  19  27
ENDBRANCH   1  19
TORSDOF 7
