REMARK  Name = ZINCnE000001Plmd.0
REMARK                            x       y       z     vdW  Elec       q    Type
REMARK                         _______ _______ _______ _____ _____    ______ ____
ROOT
ATOM      1  C   LIG    1        2.417  -0.367  -0.023  0.00  0.00    +0.330 C 
ENDROOT
BRANCH   1   7
ATOM      2  C   LIG    1        4.704  -0.943   1.075  0.00  0.00    +0.170 A 
ATOM      3  N   LIG    1        5.861  -1.413   0.655  0.00  0.00    -0.270 NA
ATOM      4  N   LIG    1        5.766  -1.635  -0.724  0.00  0.00    -0.470 N 
ATOM      5  H   LIG    1        6.471  -1.980  -1.295  0.00  0.00    +0.450 HD
ATOM      6  C   LIG    1        4.522  -1.292  -1.122  0.00  0.00    +0.270 A 
ATOM      7  C   LIG    1        3.843  -0.855  -0.039  0.00  0.00    -0.230 A 
BRANCH   2  12
ATOM      8  C   LIG    1        2.690   1.469   4.990  0.00  0.00    +0.170 C 
ATOM      9  C   LIG    1        3.489   0.479   4.182  0.00  0.00    +0.010 A 
ATOM     10  C   LIG    1        4.247  -0.514   4.684  0.00  0.00    -0.070 A 
ATOM     11  C   LIG    1        4.815  -1.194   3.588  0.00  0.00    -0.010 A 
ATOM     12  C   LIG    1        4.367  -0.572   2.466  0.00  0.00    +0.040 A 
ATOM     13  O   LIG    1        3.568   0.445   2.841  0.00  0.00    -0.150 OA
ENDBRANCH   2  12
ENDBRANCH   1   7
BRANCH   1  14
ATOM     14  N   LIG    1        2.402   1.097  -0.015  0.00  0.00    -0.740 N 
ATOM     15  H   LIG    1        3.237   1.591  -0.020  0.00  0.00    +0.400 HD
BRANCH  14  16
ATOM     16  C   LIG    1        1.184   1.784   0.000  0.00  0.00    +0.190 A 
ATOM     17  C   LIG    1       -0.013   1.076   0.008  0.00  0.00    -0.060 A 
ATOM     18  C   LIG    1       -1.220   1.747   0.017  0.00  0.00    -0.010 A 
ATOM     19  C   LIG    1       -1.248   3.130   0.031  0.00  0.00    +0.070 A 
ATOM     20  C   LIG    1       -0.048   3.852   0.023  0.00  0.00    -0.130 A 
ATOM     21  F   LIG    1       -2.430   3.782   0.046  0.00  0.00    -0.130 F 
ATOM     22  C   LIG    1        1.171   3.169   0.007  0.00  0.00    +0.000 A 
BRANCH  20  23
ATOM     23  C   LIG    1       -0.072   5.325   0.031  0.00  0.00    +0.520 C 
ATOM     24  O   LIG    1       -1.141   5.920   0.044  0.00  0.00    -0.670 OA
ATOM     25  O   LIG    1        0.978   5.954   0.024  0.00  0.00    -0.690 OA
ENDBRANCH  20  23
ENDBRANCH  14  16
ENDBRANCH   1  14
TORSDOF 5
