REMARK  Name = ZINCpe00000MJIu2.0
REMARK                            x       y       z     vdW  Elec       q    Type
REMARK                         _______ _______ _______ _____ _____    ______ ____
ROOT
ATOM      1  N   LIG    1       -2.411   5.083   4.179  0.00  0.00    -0.310 N 
ATOM      2  N   LIG    1       -2.615   3.754   4.567  0.00  0.00    -0.280 NA
ATOM      3  C   LIG    1       -2.097   2.967   3.665  0.00  0.00    +0.300 A 
ATOM      4  C   LIG    1       -1.533   3.773   2.650  0.00  0.00    -0.300 A 
ATOM      5  C   LIG    1       -1.744   5.089   3.010  0.00  0.00    +0.200 A 
ATOM      6  C   LIG    1       -1.311   6.306   2.235  0.00  0.00    +0.180 C 
ENDROOT
BRANCH   1  10
ATOM      7  C   LIG    1       -3.549   8.445   6.214  0.00  0.00    +0.270 A 
ATOM      8  C   LIG    1       -4.277   7.281   6.449  0.00  0.00    +0.060 A 
ATOM      9  C   LIG    1       -3.904   6.133   5.768  0.00  0.00    +0.100 A 
ATOM     10  C   LIG    1       -2.825   6.216   4.890  0.00  0.00    +0.280 A 
ATOM     11  N   LIG    1       -2.189   7.365   4.735  0.00  0.00    -0.210 NA
ATOM     12  N   LIG    1       -2.537   8.429   5.362  0.00  0.00    -0.270 NA
BRANCH   7  13
ATOM     13  O   LIG    1       -3.877   9.594   6.859  0.00  0.00    -0.290 OA
BRANCH  13  15
ATOM     14  C   LIG    1       -3.603  11.937   7.384  0.00  0.00    +0.070 C 
ATOM     15  C   LIG    1       -3.087  10.749   6.569  0.00  0.00    +0.200 C 
ENDBRANCH  13  15
ENDBRANCH   7  13
ENDBRANCH   1  10
BRANCH   4  16
ATOM     16  C   LIG    1       -0.843   3.297   1.437  0.00  0.00    +0.600 C 
ATOM     17  N   LIG    1       -0.704   1.975   1.216  0.00  0.00    -0.730 N 
ATOM     18  H   LIG    1       -1.058   1.337   1.854  0.00  0.00    +0.400 HD
ATOM     19  O   LIG    1       -0.399   4.098   0.637  0.00  0.00    -0.540 OA
BRANCH  17  20
ATOM     20  C   LIG    1       -0.018   1.503   0.010  0.00  0.00    +0.330 C 
BRANCH  20  21
ATOM     21  C   LIG    1        0.002  -0.004   0.002  0.00  0.00    +0.070 C 
ATOM     22  C   LIG    1       -0.486  -0.670  -1.042  0.00  0.00    -0.020 C 
BRANCH  22  23
ATOM     23  C   LIG    1       -0.466  -2.140  -1.050  0.00  0.00    +0.490 C 
ATOM     24  O   LIG    1       -0.004  -2.746  -0.103  0.00  0.00    -0.510 OA
BRANCH  23  25
ATOM     25  O   LIG    1       -0.960  -2.815  -2.107  0.00  0.00    -0.350 OA
ATOM     26  C   LIG    1       -0.908  -4.264  -2.046  0.00  0.00    +0.260 C 
ENDBRANCH  23  25
ENDBRANCH  22  23
ENDBRANCH  20  21
ENDBRANCH  17  20
ENDBRANCH   4  16
TORSDOF 8
