REMARK  Name = ZINCrH000004mMCk.0
REMARK                            x       y       z     vdW  Elec       q    Type
REMARK                         _______ _______ _______ _____ _____    ______ ____
ROOT
ATOM      1  N   LIG    1       -1.561   0.430   0.164  0.00  0.00    -0.560 N 
ATOM      2  C   LIG    1       -0.630   1.398   0.276  0.00  0.00    +0.580 C 
ATOM      3  O   LIG    1       -0.808   2.327   1.040  0.00  0.00    -0.490 OA
ENDROOT
BRANCH   1   7
ATOM      4  C   LIG    1       -5.600   1.361   0.611  0.00  0.00    +0.100 A 
ATOM      5  C   LIG    1       -4.638   2.342   0.800  0.00  0.00    +0.020 A 
ATOM      6  C   LIG    1       -3.300   2.034   0.652  0.00  0.00    +0.040 A 
ATOM      7  C   LIG    1       -2.918   0.742   0.314  0.00  0.00    +0.130 A 
ATOM      8  C   LIG    1       -3.882  -0.238   0.120  0.00  0.00    +0.010 A 
ATOM      9  C   LIG    1       -5.220   0.070   0.274  0.00  0.00    -0.050 A 
BRANCH   4  11
ATOM     10  C   LIG    1       -7.854   0.606   0.547  0.00  0.00    +0.240 C 
ATOM     11  O   LIG    1       -6.918   1.665   0.756  0.00  0.00    -0.320 OA
ENDBRANCH   4  11
ENDBRANCH   1   7
BRANCH   2  12
ATOM     12  C   LIG    1        0.607   1.329  -0.528  0.00  0.00    -0.240 A 
ATOM     13  C   LIG    1        1.153   2.490  -1.093  0.00  0.00    +0.160 A 
ATOM     14  C   LIG    1        2.308   2.375  -1.841  0.00  0.00    -0.030 A 
ATOM     15  C   LIG    1        2.889   1.121  -2.004  0.00  0.00    +0.400 A 
ATOM     16  N   LIG    1        2.351   0.044  -1.453  0.00  0.00    -0.520 NA
ATOM     17  C   LIG    1        1.252   0.108  -0.733  0.00  0.00    +0.390 A 
BRANCH  15  18
ATOM     18  N   LIG    1        4.056   0.998  -2.759  0.00  0.00    -0.330 N 
ATOM     19  C   LIG    1        4.733  -0.154  -3.004  0.00  0.00    +0.260 A 
ATOM     20  C   LIG    1        5.802   0.155  -3.772  0.00  0.00    -0.100 A 
ATOM     21  C   LIG    1        5.782   1.535  -4.006  0.00  0.00    +0.270 A 
ATOM     22  N   LIG    1        4.735   2.039  -3.405  0.00  0.00    -0.280 NA
ENDBRANCH  15  18
ENDBRANCH   2  12
BRANCH   1  23
ATOM     23  C   LIG    1       -1.154  -0.950  -0.115  0.00  0.00    +0.270 C 
ATOM     24  C   LIG    1       -0.219  -1.440   0.992  0.00  0.00    +0.050 C 
BRANCH  23  25
ATOM     25  C   LIG    1       -0.425  -1.004  -1.459  0.00  0.00    -0.080 C 
ATOM     26  C   LIG    1       -0.883  -2.058  -2.470  0.00  0.00    +0.030 C 
ATOM     27  C   LIG    1        0.451  -2.227  -1.739  0.00  0.00    +0.040 C 
ENDBRANCH  23  25
ENDBRANCH   1  23
TORSDOF 6
