REMARK  Name = ZINCrH000004jH0s.0
REMARK                            x       y       z     vdW  Elec       q    Type
REMARK                         _______ _______ _______ _____ _____    ______ ____
ROOT
ATOM      1  C   LIG    1        4.601  -8.525  -0.360  0.00  0.00    +0.530 C 
ATOM      2  N   LIG    1        4.371  -7.238  -0.686  0.00  0.00    -0.730 N 
ATOM      3  H   LIG    1        5.112  -6.654  -0.907  0.00  0.00    +0.400 HD
ATOM      4  O   LIG    1        3.674  -9.257  -0.084  0.00  0.00    -0.510 OA
ENDROOT
BRANCH   1   5
ATOM      5  C   LIG    1        6.012  -9.056  -0.337  0.00  0.00    +0.180 C 
BRANCH   5   6
ATOM      6  C   LIG    1        6.615  -8.819   1.024  0.00  0.00    -0.080 A 
ATOM      7  C   LIG    1        6.207  -9.579   2.103  0.00  0.00    +0.060 A 
ATOM      8  C   LIG    1        6.764  -9.366   3.350  0.00  0.00    +0.030 A 
ATOM      9  C   LIG    1        7.723  -8.384   3.520  0.00  0.00    +0.040 A 
ATOM     10  C   LIG    1        8.128  -7.619   2.441  0.00  0.00    -0.040 A 
ATOM     11 CL   LIG    1        9.332  -6.387   2.654  0.00  0.00    -0.070 Cl
ATOM     12  C   LIG    1        7.574  -7.837   1.192  0.00  0.00    +0.030 A 
ENDBRANCH   5   6
BRANCH   5  14
ATOM     13  C   LIG    1        5.439 -10.765  -1.953  0.00  0.00    +0.200 C 
ATOM     14  N   LIG    1        5.997 -10.497  -0.622  0.00  0.00    -0.520 NA
ATOM     15  C   LIG    1        7.343 -11.073  -0.489  0.00  0.00    +0.200 C 
ENDBRANCH   5  14
ENDBRANCH   1   5
BRANCH   2  16
ATOM     16  C   LIG    1        2.999  -6.723  -0.709  0.00  0.00    +0.270 C 
BRANCH  16  17
ATOM     17  C   LIG    1        3.017  -5.246  -1.108  0.00  0.00    +0.260 C 
BRANCH  17  18
ATOM     18  N   LIG    1        1.645  -4.730  -1.130  0.00  0.00    -0.720 N 
ATOM     19  H   LIG    1        0.904  -5.315  -0.910  0.00  0.00    +0.410 HD
BRANCH  18  20
ATOM     20  C   LIG    1        1.408  -3.406  -1.467  0.00  0.00    +0.430 A 
ATOM     21  N   LIG    1        0.170  -2.958  -1.483  0.00  0.00    -0.550 NA
ATOM     22  C   LIG    1       -0.105  -1.688  -1.800  0.00  0.00    +0.180 A 
ATOM     23  C   LIG    1       -1.429  -1.216  -1.815  0.00  0.00    +0.020 A 
ATOM     24  C   LIG    1       -1.680   0.081  -2.143  0.00  0.00    +0.040 A 
ATOM     25  C   LIG    1       -0.644   0.954  -2.466  0.00  0.00    -0.010 A 
ATOM     26  C   LIG    1        0.651   0.532  -2.463  0.00  0.00    +0.050 A 
ATOM     27  C   LIG    1        0.947  -0.799  -2.129  0.00  0.00    -0.150 A 
ATOM     28  C   LIG    1        2.275  -1.272  -2.115  0.00  0.00    +0.120 A 
ATOM     29  C   LIG    1        2.493  -2.575  -1.783  0.00  0.00    -0.090 A 
ENDBRANCH  18  20
ENDBRANCH  17  18
ENDBRANCH  16  17
ENDBRANCH   2  16
TORSDOF 7
