REMARK  Name = ZINCrD00000hQ514.0
REMARK                            x       y       z     vdW  Elec       q    Type
REMARK                         _______ _______ _______ _____ _____    ______ ____
ROOT
ATOM      1  C   LIG    1       -4.311   4.853   0.845  0.00  0.00    -0.300 A 
ATOM      2  C   LIG    1       -3.130   4.194   1.173  0.00  0.00    +0.500 A 
ATOM      3  N   LIG    1       -2.465   3.821   0.044  0.00  0.00    -0.440 N 
ATOM      4  C   LIG    1       -3.158   4.214  -1.084  0.00  0.00    +0.290 A 
ATOM      5  N   LIG    1       -2.938   4.082  -2.375  0.00  0.00    -0.430 NA
ATOM      6  C   LIG    1       -3.820   4.574  -3.255  0.00  0.00    +0.100 A 
ATOM      7  C   LIG    1       -3.591   4.442  -4.637  0.00  0.00    +0.060 A 
ATOM      8  C   LIG    1       -4.492   4.945  -5.524  0.00  0.00    +0.040 A 
ATOM      9  C   LIG    1       -5.646   5.591  -5.085  0.00  0.00    +0.040 A 
ATOM     10  C   LIG    1       -5.903   5.737  -3.757  0.00  0.00    +0.060 A 
ATOM     11  C   LIG    1       -4.994   5.231  -2.809  0.00  0.00    +0.090 A 
ATOM     12  N   LIG    1       -5.237   5.368  -1.500  0.00  0.00    -0.420 NA
ATOM     13  C   LIG    1       -4.376   4.888  -0.625  0.00  0.00    +0.190 A 
ENDROOT
BRANCH   3  14
ATOM     14  C   LIG    1       -1.240   3.137   0.030  0.00  0.00    +0.080 A 
ATOM     15  C   LIG    1       -1.219   1.749   0.017  0.00  0.00    +0.120 A 
ATOM     16  C   LIG    1       -0.013   1.076   0.008  0.00  0.00    +0.050 A 
ATOM     17  C   LIG    1        1.177   1.783   0.000  0.00  0.00    +0.130 A 
ATOM     18  C   LIG    1        1.161   3.170   0.007  0.00  0.00    +0.040 A 
ATOM     19  F   LIG    1        2.324   3.858   0.001  0.00  0.00    -0.100 F 
ATOM     20  F   LIG    1        2.355   1.122  -0.013  0.00  0.00    -0.110 F 
ATOM     21  C   LIG    1       -0.045   3.848   0.022  0.00  0.00    +0.120 A 
ATOM     22  F   LIG    1       -0.062   5.199   0.029  0.00  0.00    -0.100 F 
ENDBRANCH   3  14
BRANCH   2  23
ATOM     23  N   LIG    1       -2.698   3.953   2.451  0.00  0.00    -0.820 N 
ATOM     24  H   LIG    1       -3.228   4.250   3.206  0.00  0.00    +0.430 HD
ATOM     25  H   LIG    1       -1.861   3.485   2.600  0.00  0.00    +0.410 HD
ENDBRANCH   2  23
BRANCH   1  26
ATOM     26  C   LIG    1       -5.263   5.386   1.748  0.00  0.00    +0.560 C 
ATOM     27  O   LIG    1       -5.158   6.535   2.136  0.00  0.00    -0.490 OA
BRANCH  26  29
ATOM     28  C   LIG    1       -7.210   5.221   3.089  0.00  0.00    +0.250 C 
ATOM     29  O   LIG    1       -6.287   4.620   2.179  0.00  0.00    -0.350 OA
ENDBRANCH  26  29
ENDBRANCH   1  26
TORSDOF 4
