REMARK  Name = ZINCvU00000006CM.0
REMARK                            x       y       z     vdW  Elec       q    Type
REMARK                         _______ _______ _______ _____ _____    ______ ____
ROOT
ATOM      1  N   LIG    1        6.731   1.851   1.261  0.00  0.00    -0.730 N 
ATOM      2  H   LIG    1        7.209   2.327   0.564  0.00  0.00    +0.400 HD
ATOM      3  C   LIG    1        7.411   1.278   2.274  0.00  0.00    +0.570 C 
ATOM      4  O   LIG    1        6.812   0.681   3.147  0.00  0.00    -0.540 OA
ENDROOT
BRANCH   3   5
ATOM      5  C   LIG    1        8.884   1.375   2.322  0.00  0.00    -0.170 A 
ATOM      6  C   LIG    1        9.574   2.059   1.312  0.00  0.00    +0.060 A 
ATOM      7  C   LIG    1       10.933   2.162   1.347  0.00  0.00    +0.000 A 
ATOM      8  C   LIG    1       11.656   1.577   2.384  0.00  0.00    +0.120 A 
ATOM      9  N   LIG    1       12.998   1.511   2.675  0.00  0.00    -0.580 N 
ATOM     10  H   LIG    1       13.703   1.905   2.138  0.00  0.00    +0.420 HD
ATOM     11  C   LIG    1       13.194   0.808   3.831  0.00  0.00    +0.070 A 
ATOM     12  C   LIG    1       12.007   0.401   4.319  0.00  0.00    -0.150 A 
ATOM     13  C   LIG    1       11.828  -0.403   5.580  0.00  0.00    +0.090 C 
ATOM     14  C   LIG    1       13.183  -1.007   5.968  0.00  0.00    +0.020 C 
ATOM     15  C   LIG    1       14.252   0.089   5.945  0.00  0.00    +0.020 C 
ATOM     16  C   LIG    1       14.518   0.513   4.496  0.00  0.00    +0.100 C 
ATOM     17  C   LIG    1       10.974   0.881   3.405  0.00  0.00    -0.110 A 
ATOM     18  C   LIG    1        9.585   0.783   3.369  0.00  0.00    +0.140 A 
ENDBRANCH   3   5
BRANCH   1  19
ATOM     19  C   LIG    1        5.270   1.754   1.212  0.00  0.00    +0.300 C 
BRANCH  19  21
ATOM     20  C   LIG    1        5.247   1.766  -1.286  0.00  0.00    +0.070 C 
ATOM     21  C   LIG    1        4.752   2.484  -0.029  0.00  0.00    +0.070 C 
BRANCH  21  22
ATOM     22  C   LIG    1        3.245   2.491  -0.015  0.00  0.00    +0.310 A 
ATOM     23  N   LIG    1        2.495   1.428  -0.013  0.00  0.00    -0.460 NA
ATOM     24  C   LIG    1        1.187   1.792   0.000  0.00  0.00    +0.050 A 
ATOM     25  C   LIG    1       -0.013   1.076   0.008  0.00  0.00    +0.070 A 
ATOM     26  C   LIG    1       -1.204   1.744   0.017  0.00  0.00    +0.010 A 
ATOM     27  C   LIG    1       -1.238   3.131   0.030  0.00  0.00    +0.040 A 
ATOM     28  C   LIG    1       -0.067   3.858   0.022  0.00  0.00    +0.020 A 
ATOM     29  C   LIG    1        1.153   3.197   0.008  0.00  0.00    +0.050 A 
ATOM     30  N   LIG    1        2.471   3.609  -0.002  0.00  0.00    -0.550 N 
BRANCH  30  31
ATOM     31  C   LIG    1        2.947   4.995   0.001  0.00  0.00    +0.650 C 
ATOM     32  F   LIG    1        4.185   5.061   0.650  0.00  0.00    -0.180 F 
ATOM     33  F   LIG    1        2.024   5.804   0.673  0.00  0.00    -0.180 F 
ENDBRANCH  30  31
ENDBRANCH  21  22
ENDBRANCH  19  21
ENDBRANCH   1  19
TORSDOF 5
