REMARK  Name = ZINCrD000000C43Z.0
REMARK                            x       y       z     vdW  Elec       q    Type
REMARK                         _______ _______ _______ _____ _____    ______ ____
ROOT
ATOM      1  C   LIG    1       -2.447   0.800   0.130  0.00  0.00    -0.130 A 
ATOM      2  C   LIG    1       -2.388  -0.593   0.227  0.00  0.00    +0.070 A 
ATOM      3  C   LIG    1       -3.551  -1.324   0.333  0.00  0.00    -0.010 A 
ATOM      4  C   LIG    1       -4.782  -0.686   0.344  0.00  0.00    +0.070 A 
ATOM      5  C   LIG    1       -4.857   0.689   0.248  0.00  0.00    -0.020 A 
ATOM      6  C   LIG    1       -3.695   1.444   0.147  0.00  0.00    -0.060 A 
ENDROOT
BRANCH   1   8
ATOM      7  O   LIG    1       -1.262   2.800  -0.067  0.00  0.00    -0.490 OA
ATOM      8  C   LIG    1       -1.207   1.588   0.017  0.00  0.00    +0.560 C 
ATOM      9  N   LIG    1       -0.011   0.966   0.007  0.00  0.00    -0.660 N 
ATOM     10  H   LIG    1        0.031  -0.003   0.007  0.00  0.00    +0.410 HD
BRANCH   9  11
ATOM     11  C   LIG    1        1.170   1.718  -0.008  0.00  0.00    +0.150 A 
ATOM     12  C   LIG    1        1.221   2.916  -0.708  0.00  0.00    +0.050 A 
ATOM     13  C   LIG    1        2.384   3.662  -0.719  0.00  0.00    +0.060 A 
ATOM     14  C   LIG    1        3.505   3.213  -0.041  0.00  0.00    +0.020 A 
ATOM     15  O   LIG    1        4.754   3.749   0.098  0.00  0.00    -0.310 OA
ATOM     16  C   LIG    1        5.590   2.666   0.545  0.00  0.00    +0.430 C 
ATOM     17  O   LIG    1        4.677   1.791   1.234  0.00  0.00    -0.310 OA
ATOM     18  C   LIG    1        3.458   2.009   0.658  0.00  0.00    +0.050 A 
ATOM     19  C   LIG    1        2.291   1.264   0.674  0.00  0.00    +0.010 A 
ENDBRANCH   9  11
ENDBRANCH   1   8
BRANCH   6  20
ATOM     20  S   LIG    1       -3.787   3.200   0.032  0.00  0.00    +0.090 S 
BRANCH  20  21
ATOM     21  C   LIG    1       -5.571   3.520   0.096  0.00  0.00    +0.020 C 
BRANCH  21  22
ATOM     22  C   LIG    1       -5.819   5.004   0.007  0.00  0.00    +0.550 C 
ATOM     23  N   LIG    1       -7.080   5.479   0.036  0.00  0.00    -0.620 N 
ATOM     24  C   LIG    1       -8.300   4.667   0.144  0.00  0.00    +0.240 C 
ATOM     25  C   LIG    1       -9.501   5.636   0.114  0.00  0.00    +0.040 C 
ATOM     26  C   LIG    1       -8.914   6.890  -0.586  0.00  0.00    +0.040 C 
ATOM     27  C   LIG    1       -7.464   6.901  -0.042  0.00  0.00    +0.250 C 
ATOM     28  O   LIG    1       -4.884   5.770  -0.090  0.00  0.00    -0.520 OA
ENDBRANCH  21  22
ENDBRANCH  20  21
ENDBRANCH   6  20
TORSDOF 5
