REMARK  Name = ZINCtV000002tFTu.0
REMARK                            x       y       z     vdW  Elec       q    Type
REMARK                         _______ _______ _______ _____ _____    ______ ____
ROOT
ATOM      1  C   LIG    1        4.169   4.021  -3.683  0.00  0.00    +0.100 A 
ATOM      2  C   LIG    1        4.912   2.861  -3.846  0.00  0.00    +0.020 A 
ATOM      3  C   LIG    1        4.582   1.724  -3.134  0.00  0.00    +0.050 A 
ATOM      4  C   LIG    1        3.506   1.743  -2.256  0.00  0.00    +0.120 A 
ATOM      5  C   LIG    1        2.760   2.903  -2.098  0.00  0.00    +0.050 A 
ATOM      6  C   LIG    1        3.094   4.041  -2.806  0.00  0.00    +0.010 A 
ENDROOT
BRANCH   4   7
ATOM      7  N   LIG    1        3.172   0.592  -1.534  0.00  0.00    -1.060 N 
ATOM      8  H   LIG    1        3.721   0.311  -0.786  0.00  0.00    +0.430 HD
BRANCH   7   9
ATOM      9  S   LIG    1        1.837  -0.292  -1.958  0.00  0.00    +2.690 S 
ATOM     10  O   LIG    1        1.823  -1.431  -1.108  0.00  0.00    -0.950 OA
ATOM     11  O   LIG    1        0.757   0.627  -2.043  0.00  0.00    -0.950 OA
BRANCH   9  12
ATOM     12  C   LIG    1        2.107  -0.894  -3.592  0.00  0.00    -0.680 A 
ATOM     13  C   LIG    1        2.817  -2.064  -3.789  0.00  0.00    +0.130 A 
ATOM     14  C   LIG    1        3.034  -2.533  -5.071  0.00  0.00    -0.010 A 
ATOM     15  C   LIG    1        2.533  -1.839  -6.156  0.00  0.00    -0.020 A 
ATOM     16  C   LIG    1        1.823  -0.669  -5.959  0.00  0.00    -0.010 A 
ATOM     17  C   LIG    1        2.765  -2.353  -7.553  0.00  0.00    +0.090 C 
ATOM     18  C   LIG    1        1.610  -0.197  -4.677  0.00  0.00    +0.130 A 
ENDBRANCH   9  12
ENDBRANCH   7   9
ENDBRANCH   4   7
BRANCH   1  19
ATOM     19  O   LIG    1        4.495   5.140  -4.383  0.00  0.00    -0.260 OA
BRANCH  19  23
ATOM     20  C   LIG    1        6.005   8.361  -2.295  0.00  0.00    -0.100 A 
ATOM     21  C   LIG    1        5.745   8.477  -3.648  0.00  0.00    +0.050 A 
ATOM     22  C   LIG    1        5.239   7.400  -4.349  0.00  0.00    -0.010 A 
ATOM     23  C   LIG    1        4.992   6.201  -3.695  0.00  0.00    +0.110 A 
ATOM     24  C   LIG    1        5.250   6.090  -2.336  0.00  0.00    -0.060 A 
ATOM     25  C   LIG    1        5.760   7.168  -1.640  0.00  0.00    +0.050 A 
BRANCH  20  26
ATOM     26  C   LIG    1        6.557   9.538  -1.531  0.00  0.00    -0.020 C 
ATOM     27  C   LIG    1        5.576  10.709  -1.621  0.00  0.00    +0.040 C 
ATOM     28  C   LIG    1        7.901   9.951  -2.133  0.00  0.00    +0.040 C 
BRANCH  26  30
ATOM     29  C   LIG    1        7.312  10.343   0.710  0.00  0.00    +0.010 C 
ATOM     30  C   LIG    1        6.752   9.148  -0.065  0.00  0.00    +0.000 C 
ENDBRANCH  26  30
ENDBRANCH  20  26
ENDBRANCH  19  23
ENDBRANCH   1  19
TORSDOF 7
