REMARK  Name = ZINCpk000000n5br.0
REMARK                            x       y       z     vdW  Elec       q    Type
REMARK                         _______ _______ _______ _____ _____    ______ ____
ROOT
ATOM      1  N   LIG    1        1.069  -2.183  -0.020  0.00  0.00    -0.370 N 
ATOM      2  C   LIG    1        1.529  -3.076  -0.915  0.00  0.00    +0.500 A 
ATOM      3  N   LIG    1        1.093  -4.260  -0.575  0.00  0.00    -0.520 NA
ATOM      4  C   LIG    1        0.341  -4.166   0.529  0.00  0.00    +0.250 A 
ATOM      5  N   LIG    1        0.299  -2.907   0.905  0.00  0.00    -0.260 NA
ENDROOT
BRANCH   4   6
ATOM      6  C   LIG    1       -0.333  -5.297   1.215  0.00  0.00    +0.040 A 
ATOM      7  C   LIG    1       -1.086  -5.068   2.365  0.00  0.00    +0.080 A 
ATOM      8  C   LIG    1       -1.714  -6.123   2.996  0.00  0.00    +0.100 A 
ATOM      9  C   LIG    1       -1.589  -7.406   2.495  0.00  0.00    -0.030 A 
ATOM     10  C   LIG    1       -0.839  -7.639   1.357  0.00  0.00    +0.100 A 
ATOM     11  C   LIG    1       -0.210  -6.591   0.715  0.00  0.00    +0.080 A 
BRANCH   9  12
ATOM     12  N   LIG    1       -2.261  -8.533   3.180  0.00  0.00    +0.030 N 
ATOM     13  O   LIG    1       -2.922  -8.331   4.182  0.00  0.00    -0.160 OA
ATOM     14  O   LIG    1       -2.152  -9.664   2.740  0.00  0.00    -0.160 OA
ENDBRANCH   9  12
ENDBRANCH   4   6
BRANCH   1  15
ATOM     15  C   LIG    1        1.317  -0.740  -0.015  0.00  0.00    +0.380 C 
BRANCH  15  21
ATOM     16  N   LIG    1       -1.211   3.349   0.026  0.00  0.00    -0.730 N 
ATOM     17  H   LIG    1       -0.377   3.845   0.025  0.00  0.00    +0.400 HD
ATOM     18  C   LIG    1       -1.192   2.002   0.019  0.00  0.00    +0.700 C 
ATOM     19  N   LIG    1       -0.016   1.344   0.009  0.00  0.00    -0.690 N 
ATOM     20  H   LIG    1        0.817   1.840   0.004  0.00  0.00    +0.410 HD
ATOM     21  C   LIG    1        0.002  -0.004   0.002  0.00  0.00    +0.500 C 
ATOM     22  O   LIG    1       -1.040  -0.625   0.009  0.00  0.00    -0.430 OA
ATOM     23  O   LIG    1       -2.237   1.380   0.020  0.00  0.00    -0.520 OA
BRANCH  16  25
ATOM     24  C   LIG    1       -3.280   3.677   1.287  0.00  0.00    +0.030 C 
ATOM     25  C   LIG    1       -2.489   4.064   0.036  0.00  0.00    +0.180 C 
ATOM     26  C   LIG    1       -3.292   3.691  -1.212  0.00  0.00    +0.030 C 
ATOM     27  C   LIG    1       -2.230   5.572   0.043  0.00  0.00    +0.040 C 
ENDBRANCH  16  25
ENDBRANCH  15  21
ENDBRANCH   1  15
TORSDOF 5
