REMARK  Name = ZINCqH0000007eJ5.0
REMARK                            x       y       z     vdW  Elec       q    Type
REMARK                         _______ _______ _______ _____ _____    ______ ____
ROOT
ATOM      1  C   LIG    1       -4.997  -5.049   1.829  0.00  0.00    +0.570 C 
ATOM      2  N   LIG    1       -4.066  -4.483   1.037  0.00  0.00    -0.600 N 
ATOM      3  C   LIG    1       -2.731  -5.079   0.936  0.00  0.00    +0.280 C 
ATOM      4  O   LIG    1       -6.131  -4.609   1.845  0.00  0.00    -0.510 OA
ENDROOT
BRANCH   1  11
ATOM      5  C   LIG    1       -5.441  -7.355   2.671  0.00  0.00    +0.180 A 
ATOM      6  C   LIG    1       -5.098  -8.433   3.473  0.00  0.00    -0.050 A 
ATOM      7  C   LIG    1       -3.974  -8.372   4.274  0.00  0.00    +0.100 A 
ATOM      8  C   LIG    1       -3.182  -7.235   4.283  0.00  0.00    -0.080 A 
ATOM      9  C   LIG    1       -3.505  -6.155   3.488  0.00  0.00    +0.110 A 
ATOM     10 CL   LIG    1       -1.773  -7.172   5.295  0.00  0.00    -0.060 Cl
ATOM     11  C   LIG    1       -4.642  -6.203   2.678  0.00  0.00    -0.160 A 
BRANCH   5  13
ATOM     12  C   LIG    1       -7.309  -8.621   1.929  0.00  0.00    +0.250 C 
ATOM     13  O   LIG    1       -6.544  -7.415   1.884  0.00  0.00    -0.290 OA
ENDBRANCH   5  13
ENDBRANCH   1  11
BRANCH   2  14
ATOM     14  C   LIG    1       -4.387  -3.273   0.277  0.00  0.00    +0.290 C 
ATOM     15  C   LIG    1       -4.074  -3.501  -1.203  0.00  0.00    +0.040 C 
BRANCH  14  16
ATOM     16  C   LIG    1       -3.563  -2.122   0.794  0.00  0.00    -0.100 A 
ATOM     17  C   LIG    1       -2.183  -2.190   0.755  0.00  0.00    +0.050 A 
ATOM     18  C   LIG    1       -1.424  -1.136   1.228  0.00  0.00    +0.030 A 
ATOM     19  C   LIG    1       -2.050  -0.008   1.742  0.00  0.00    +0.150 A 
ATOM     20  C   LIG    1       -3.436   0.055   1.784  0.00  0.00    +0.000 A 
ATOM     21  C   LIG    1       -4.189  -0.999   1.305  0.00  0.00    +0.060 A 
BRANCH  19  22
ATOM     22  N   LIG    1       -1.283   1.063   2.222  0.00  0.00    -0.330 N 
ATOM     23  C   LIG    1       -1.744   2.215   2.746  0.00  0.00    +0.480 A 
ATOM     24  N   LIG    1       -0.713   2.951   3.075  0.00  0.00    -0.540 NA
ATOM     25  C   LIG    1        0.415   2.308   2.777  0.00  0.00    +0.430 A 
ATOM     26  N   LIG    1        0.119   1.147   2.253  0.00  0.00    -0.310 NA
ENDBRANCH  19  22
ENDBRANCH  14  16
ENDBRANCH   2  14
TORSDOF 5
