REMARK  Name = ZINCrD00000725dp.0
REMARK                            x       y       z     vdW  Elec       q    Type
REMARK                         _______ _______ _______ _____ _____    ______ ____
ROOT
ATOM      1  C   LIG    1       -3.359  -4.900  -1.092  0.00  0.00    +0.470 C 
ATOM      2  O   LIG    1       -4.463  -4.478  -0.843  0.00  0.00    -0.500 OA
ENDROOT
BRANCH   1   3
ATOM      3  C   LIG    1       -3.184  -6.322  -1.562  0.00  0.00    +0.130 C 
BRANCH   3   4
ATOM      4  C   LIG    1       -4.551  -7.005  -1.637  0.00  0.00    +0.210 C 
BRANCH   4   5
ATOM      5  O   LIG    1       -4.385  -8.353  -2.082  0.00  0.00    -0.310 OA
BRANCH   5   9
ATOM      6  C   LIG    1       -7.804 -10.638  -2.452  0.00  0.00    +0.100 A 
ATOM      7  C   LIG    1       -6.566 -11.187  -2.755  0.00  0.00    +0.030 A 
ATOM      8  C   LIG    1       -5.423 -10.422  -2.631  0.00  0.00    +0.030 A 
ATOM      9  C   LIG    1       -5.511  -9.106  -2.204  0.00  0.00    +0.090 A 
ATOM     10  C   LIG    1       -6.748  -8.559  -1.896  0.00  0.00    -0.040 A 
ATOM     11  C   LIG    1       -7.892  -9.321  -2.025  0.00  0.00    -0.040 A 
BRANCH   6  12
ATOM     12  O   LIG    1       -8.930 -11.391  -2.573  0.00  0.00    -0.320 OA
BRANCH  12  14
ATOM     13  C   LIG    1      -11.315 -11.756  -2.440  0.00  0.00    +0.070 C 
ATOM     14  C   LIG    1      -10.169 -10.761  -2.244  0.00  0.00    +0.170 C 
ENDBRANCH  12  14
ENDBRANCH   6  12
ENDBRANCH   5   9
ENDBRANCH   4   5
ENDBRANCH   3   4
ENDBRANCH   1   3
BRANCH   1  15
ATOM     15  O   LIG    1       -2.288  -4.104  -0.951  0.00  0.00    -0.330 OA
BRANCH  15  16
ATOM     16  C   LIG    1       -2.531  -2.747  -0.494  0.00  0.00    +0.270 C 
BRANCH  16  17
ATOM     17  C   LIG    1       -1.221  -2.008  -0.396  0.00  0.00    +0.520 C 
ATOM     18  N   LIG    1       -1.201  -0.723   0.010  0.00  0.00    -0.680 N 
ATOM     19  H   LIG    1       -2.019  -0.296   0.309  0.00  0.00    +0.420 HD
ATOM     20  O   LIG    1       -0.185  -2.570  -0.682  0.00  0.00    -0.490 OA
BRANCH  18  21
ATOM     21  C   LIG    1        0.002  -0.004   0.000  0.00  0.00    +0.060 A 
ATOM     22  C   LIG    1        0.391   0.687  -1.141  0.00  0.00    +0.140 A 
ATOM     23  C   LIG    1        1.579   1.396  -1.147  0.00  0.00    -0.010 A 
ATOM     24  C   LIG    1        2.378   1.419  -0.019  0.00  0.00    +0.100 A 
ATOM     25  C   LIG    1        1.994   0.734   1.119  0.00  0.00    -0.010 A 
ATOM     26  F   LIG    1       -0.386   0.660  -2.246  0.00  0.00    -0.120 F 
ATOM     27  C   LIG    1        0.808   0.022   1.133  0.00  0.00    +0.140 A 
ATOM     28  F   LIG    1        0.433  -0.647   2.245  0.00  0.00    -0.120 F 
ENDBRANCH  18  21
ENDBRANCH  16  17
ENDBRANCH  15  16
ENDBRANCH   1  15
TORSDOF 10
