REMARK  Name = ZINCqH0000034ozD.0
REMARK                            x       y       z     vdW  Elec       q    Type
REMARK                         _______ _______ _______ _____ _____    ______ ____
ROOT
ATOM      1  N   LIG    1        4.439  -3.761   1.791  0.00  0.00    -0.740 N 
ATOM      2  H   LIG    1        4.892  -2.931   2.007  0.00  0.00    +0.400 HD
ENDROOT
BRANCH   1   7
ATOM      3  C   LIG    1        1.116  -2.517   0.800  0.00  0.00    +0.030 A 
ATOM      4  C   LIG    1        0.473  -3.717   0.492  0.00  0.00    +0.000 A 
ATOM      5  C   LIG    1        1.149  -4.914   0.618  0.00  0.00    +0.060 A 
ATOM      6  C   LIG    1        2.463  -4.930   1.047  0.00  0.00    -0.050 A 
ATOM      7  C   LIG    1        3.111  -3.740   1.357  0.00  0.00    +0.220 A 
ATOM      8  C   LIG    1        2.443  -2.532   1.229  0.00  0.00    -0.070 A 
BRANCH   3  13
ATOM      9  N   LIG    1        0.749  -0.037   1.229  0.00  0.00    -0.470 N 
ATOM     10  C   LIG    1       -0.202   0.854   0.836  0.00  0.00    +0.380 A 
ATOM     11  N   LIG    1       -1.058   0.209   0.090  0.00  0.00    -0.290 NA
ATOM     12  N   LIG    1       -0.711  -1.024  -0.013  0.00  0.00    -0.280 NA
ATOM     13  C   LIG    1        0.394  -1.233   0.667  0.00  0.00    +0.220 A 
BRANCH   9  15
ATOM     14  C   LIG    1        3.109   0.604   1.199  0.00  0.00    +0.040 C 
ATOM     15  C   LIG    1        1.913   0.230   2.077  0.00  0.00    +0.290 C 
ENDBRANCH   9  15
ENDBRANCH   3  13
ENDBRANCH   1   7
BRANCH   1  16
ATOM     16  C   LIG    1        5.148  -5.037   1.920  0.00  0.00    +0.360 C 
BRANCH  16  17
ATOM     17  C   LIG    1        6.553  -4.784   2.402  0.00  0.00    +0.060 A 
ATOM     18  C   LIG    1        6.975  -4.824   3.687  0.00  0.00    -0.080 A 
ATOM     19  C   LIG    1        8.344  -4.532   3.701  0.00  0.00    +0.240 A 
ATOM     20  N   LIG    1        8.730  -4.324   2.468  0.00  0.00    -0.280 NA
ATOM     21  N   LIG    1        7.620  -4.482   1.628  0.00  0.00    -0.320 N 
BRANCH  21  22
ATOM     22  C   LIG    1        7.615  -4.350   0.233  0.00  0.00    +0.140 A 
ATOM     23  C   LIG    1        8.644  -4.897  -0.522  0.00  0.00    +0.020 A 
ATOM     24  C   LIG    1        8.633  -4.770  -1.897  0.00  0.00    +0.030 A 
ATOM     25  C   LIG    1        7.606  -4.088  -2.522  0.00  0.00    +0.020 A 
ATOM     26  C   LIG    1        6.582  -3.537  -1.773  0.00  0.00    +0.030 A 
ATOM     27  C   LIG    1        6.584  -3.666  -0.398  0.00  0.00    +0.010 A 
ENDBRANCH  21  22
ENDBRANCH  16  17
ENDBRANCH   1  16
TORSDOF 6
