REMARK  Name = ZINCfA000000bmtc.0
REMARK                            x       y       z     vdW  Elec       q    Type
REMARK                         _______ _______ _______ _____ _____    ______ ____
ROOT
ATOM      1  N   LIG    1       -0.727   1.573   1.196  0.00  0.00    -0.510 N 
ATOM      2  H   LIG    1       -1.699   1.307   1.136  0.00  0.00    +0.430 HD
ATOM      3  H   LIG    1       -0.655   2.578   1.243  0.00  0.00    +0.420 HD
ENDROOT
BRANCH   1  11
ATOM      4  C   LIG    1       -2.155   1.972  -0.993  0.00  0.00    +0.030 C 
ATOM      5  C   LIG    1       -0.694   1.612  -1.272  0.00  0.00    +0.010 C 
ATOM      6  C   LIG    1        0.116   2.881  -1.639  0.00  0.00    +0.050 C 
ATOM      7  C   LIG    1        1.568   2.472  -1.289  0.00  0.00    -0.060 C 
ATOM      8  C   LIG    1        1.426   1.633  -0.003  0.00  0.00    +0.060 C 
ATOM      9  C   LIG    1        2.177   1.631  -2.413  0.00  0.00    +0.040 C 
ATOM     10  C   LIG    1        2.425   3.712  -1.027  0.00  0.00    +0.040 C 
ATOM     11  C   LIG    1       -0.013   1.086   0.008  0.00  0.00    +0.170 C 
ENDBRANCH   1  11
BRANCH   1  12
ATOM     12  C   LIG    1       -0.131   0.982   2.402  0.00  0.00    +0.400 C 
BRANCH  12  13
ATOM     13  C   LIG    1       -0.864   1.481   3.620  0.00  0.00    -0.070 A 
ATOM     14  N   LIG    1       -1.897   0.913   4.146  0.00  0.00    -0.430 NA
ATOM     15  C   LIG    1       -2.416   1.481   5.215  0.00  0.00    +0.220 A 
ATOM     16  C   LIG    1       -1.792   2.595   5.609  0.00  0.00    -0.010 A 
ATOM     17  S   LIG    1       -0.452   2.887   4.502  0.00  0.00    +0.190 S 
ENDBRANCH  12  13
ENDBRANCH   1  12
TORSDOF 3
