REMARK  Name = ZINCvU000000045I.0
REMARK                            x       y       z     vdW  Elec       q    Type
REMARK                         _______ _______ _______ _____ _____    ______ ____
ROOT
ATOM      1  C   LIG    1       -0.131   1.499  -0.205  0.00  0.00    +0.570 C 
ATOM      2  N   LIG    1        1.048   2.151  -0.148  0.00  0.00    -0.670 N 
ATOM      3  H   LIG    1        1.877   1.650  -0.092  0.00  0.00    +0.410 HD
ATOM      4  O   LIG    1       -1.173   2.126  -0.192  0.00  0.00    -0.500 OA
ENDROOT
BRANCH   2   5
ATOM      5  C   LIG    1        1.075   3.542  -0.169  0.00  0.00    +0.180 A 
ATOM      6  C   LIG    1        0.060   4.269   0.437  0.00  0.00    +0.050 A 
ATOM      7  C   LIG    1        0.092   5.649   0.420  0.00  0.00    +0.070 A 
ATOM      8  C   LIG    1        1.129   6.320  -0.210  0.00  0.00    -0.050 A 
ATOM      9  C   LIG    1        2.144   5.615  -0.822  0.00  0.00    +0.080 A 
ATOM     10 CL   LIG    1        1.150   8.056  -0.228  0.00  0.00    -0.060 Cl
ATOM     11  C   LIG    1        2.128   4.218  -0.808  0.00  0.00    -0.160 A 
BRANCH  11  12
ATOM     12  C   LIG    1        3.209   3.457  -1.461  0.00  0.00    +0.440 C 
ATOM     13  O   LIG    1        4.298   3.369  -0.927  0.00  0.00    -0.430 OA
BRANCH  12  14
ATOM     14  C   LIG    1        2.969   2.803  -2.764  0.00  0.00    -0.170 A 
ATOM     15  C   LIG    1        1.692   2.811  -3.329  0.00  0.00    +0.070 A 
ATOM     16  C   LIG    1        1.476   2.203  -4.548  0.00  0.00    +0.000 A 
ATOM     17  C   LIG    1        2.520   1.576  -5.206  0.00  0.00    +0.050 A 
ATOM     18  C   LIG    1        3.787   1.559  -4.649  0.00  0.00    +0.000 A 
ATOM     19  C   LIG    1        4.018   2.168  -3.434  0.00  0.00    +0.080 A 
ENDBRANCH  12  14
ENDBRANCH  11  12
ENDBRANCH   2   5
BRANCH   1  23
ATOM     20  C   LIG    1       -0.203  -2.740  -0.451  0.00  0.00    +0.190 A 
ATOM     21  C   LIG    1       -1.396  -2.026  -0.430  0.00  0.00    +0.020 A 
ATOM     22  C   LIG    1       -1.377  -0.651  -0.350  0.00  0.00    +0.120 A 
ATOM     23  C   LIG    1       -0.156   0.026  -0.291  0.00  0.00    -0.150 A 
ATOM     24  C   LIG    1        1.041  -0.695  -0.317  0.00  0.00    +0.070 A 
ATOM     25  C   LIG    1        1.013  -2.070  -0.391  0.00  0.00    +0.000 A 
BRANCH  20  32
ATOM     26  C   LIG    1        1.867  -4.431  -1.968  0.00  0.00    +0.160 C 
ATOM     27  C   LIG    1        0.669  -4.915  -1.192  0.00  0.00    +0.090 A 
ATOM     28  C   LIG    1        0.291  -6.203  -1.026  0.00  0.00    -0.100 A 
ATOM     29  C   LIG    1       -0.869  -6.216  -0.243  0.00  0.00    +0.090 A 
ATOM     30  N   LIG    1       -1.176  -4.981   0.059  0.00  0.00    -0.290 NA
ATOM     31  C   LIG    1       -1.629  -7.444   0.186  0.00  0.00    +0.160 C 
ATOM     32  N   LIG    1       -0.227  -4.136  -0.532  0.00  0.00    -0.340 N 
ENDBRANCH  20  32
ENDBRANCH   1  23
TORSDOF 5
