REMARK  Name = ZINCrH000004sddg.0
REMARK                            x       y       z     vdW  Elec       q    Type
REMARK                         _______ _______ _______ _____ _____    ______ ____
ROOT
ATOM      1  C   LIG    1       -4.389   0.589   1.442  0.00  0.00    +0.520 C 
ATOM      2  N   LIG    1       -5.046   0.412   2.606  0.00  0.00    -0.610 N 
ATOM      3  C   LIG    1       -4.412   0.762   3.884  0.00  0.00    +0.280 C 
ATOM      4  C   LIG    1       -5.347   1.711   4.650  0.00  0.00    +0.000 C 
ATOM      5  C   LIG    1       -6.723   1.058   4.790  0.00  0.00    +0.240 C 
ATOM      6  C   LIG    1       -7.318   0.814   3.401  0.00  0.00    +0.010 C 
ATOM      7  C   LIG    1       -6.407  -0.140   2.621  0.00  0.00    +0.280 C 
ATOM      8  O   LIG    1       -4.922   0.291   0.394  0.00  0.00    -0.540 OA
ENDROOT
BRANCH   5   9
ATOM      9  N   LIG    1       -7.608   1.944   5.551  0.00  0.00    -0.630 N 
ATOM     10  C   LIG    1       -7.824   3.322   5.106  0.00  0.00    +0.280 C 
BRANCH   9  11
ATOM     11  C   LIG    1       -8.247   1.473   6.700  0.00  0.00    +0.220 A 
ATOM     12  C   LIG    1       -9.174   2.272   7.358  0.00  0.00    -0.080 A 
ATOM     13  C   LIG    1       -9.807   1.802   8.492  0.00  0.00    +0.050 A 
ATOM     14  C   LIG    1       -9.511   0.541   8.978  0.00  0.00    -0.060 A 
ATOM     15  C   LIG    1       -8.586  -0.254   8.329  0.00  0.00    +0.050 A 
ATOM     16  C   LIG    1       -7.953   0.208   7.192  0.00  0.00    -0.080 A 
ENDBRANCH   9  11
ENDBRANCH   5   9
BRANCH   1  17
ATOM     17  C   LIG    1       -2.993   1.157   1.444  0.00  0.00    +0.050 C 
BRANCH  17  18
ATOM     18  C   LIG    1       -2.481   1.254   0.005  0.00  0.00    +0.140 C 
BRANCH  18  23
ATOM     19  C   LIG    1       -1.138   6.844   0.089  0.00  0.00    +0.170 C 
ATOM     20  C   LIG    1       -0.767   5.383   0.063  0.00  0.00    +0.040 A 
ATOM     21  C   LIG    1       -1.630   4.354   0.056  0.00  0.00    +0.130 A 
ATOM     22  N   LIG    1       -0.881   3.182   0.030  0.00  0.00    -0.420 N 
ATOM     23  C   LIG    1       -1.085   1.821   0.006  0.00  0.00    +0.070 A 
ATOM     24  C   LIG    1       -0.033   1.022  -0.011  0.00  0.00    +0.010 A 
ATOM     25  S   LIG    1        1.379   2.093  -0.010  0.00  0.00    +0.160 S 
ATOM     26  C   LIG    1        0.420   3.580   0.022  0.00  0.00    +0.160 A 
ATOM     27  N   LIG    1        0.479   4.891   0.041  0.00  0.00    -0.450 NA
ENDBRANCH  18  23
ENDBRANCH  17  18
ENDBRANCH   1  17
TORSDOF 5
