REMARK  Name = ZINCrD000000C9Et.0
REMARK                            x       y       z     vdW  Elec       q    Type
REMARK                         _______ _______ _______ _____ _____    ______ ____
ROOT
ATOM      1  C   LIG    1        1.321   3.164   0.027  0.00  0.00    +0.220 A 
ATOM      2  C   LIG    1        0.114   3.850   0.029  0.00  0.00    +0.010 A 
ATOM      3  C   LIG    1       -1.077   3.152   0.061  0.00  0.00    +0.080 A 
ATOM      4  C   LIG    1       -1.078   1.767   0.086  0.00  0.00    -0.020 A 
ATOM      5  C   LIG    1        0.111   1.070   0.090  0.00  0.00    +0.070 A 
ATOM      6  C   LIG    1        1.324   1.761   0.058  0.00  0.00    -0.180 A 
ENDROOT
BRANCH   1   9
ATOM      7  O   LIG    1        1.611   5.618   1.008  0.00  0.00    -0.510 OA
ATOM      8  C   LIG    1        2.581   5.128   0.464  0.00  0.00    +0.560 C 
ATOM      9  N   LIG    1        2.524   3.865  -0.005  0.00  0.00    -0.650 N 
ATOM     10  H   LIG    1        3.320   3.446  -0.366  0.00  0.00    +0.430 HD
BRANCH   8  11
ATOM     11  C   LIG    1        3.825   5.917   0.317  0.00  0.00    -0.090 A 
ATOM     12  C   LIG    1        4.955   5.370  -0.300  0.00  0.00    +0.000 A 
ATOM     13  C   LIG    1        6.093   6.143  -0.420  0.00  0.00    +0.270 A 
ATOM     14  N   LIG    1        6.127   7.375   0.047  0.00  0.00    -0.460 NA
ATOM     15  C   LIG    1        5.087   7.927   0.639  0.00  0.00    +0.270 A 
ATOM     16  C   LIG    1        3.906   7.228   0.797  0.00  0.00    +0.040 A 
ENDBRANCH   8  11
ENDBRANCH   1   9
BRANCH   6  17
ATOM     17  C   LIG    1        2.600   1.022   0.055  0.00  0.00    +0.570 C 
ATOM     18  N   LIG    1        2.601  -0.320   0.185  0.00  0.00    -0.660 N 
ATOM     19  H   LIG    1        1.762  -0.806   0.204  0.00  0.00    +0.420 HD
ATOM     20  O   LIG    1        3.651   1.622  -0.064  0.00  0.00    -0.530 OA
BRANCH  18  21
ATOM     21  C   LIG    1        3.814  -1.012   0.293  0.00  0.00    +0.160 A 
ATOM     22  C   LIG    1        3.944  -2.276  -0.266  0.00  0.00    +0.010 A 
ATOM     23  C   LIG    1        5.142  -2.958  -0.164  0.00  0.00    +0.060 A 
ATOM     24  C   LIG    1        6.212  -2.387   0.504  0.00  0.00    +0.020 A 
ATOM     25  O   LIG    1        7.476  -2.845   0.745  0.00  0.00    -0.310 OA
ATOM     26  C   LIG    1        7.986  -2.024   1.812  0.00  0.00    +0.430 C 
ATOM     27  O   LIG    1        7.265  -0.786   1.666  0.00  0.00    -0.310 OA
ATOM     28  C   LIG    1        6.083  -1.121   1.071  0.00  0.00    +0.050 A 
ATOM     29  C   LIG    1        4.884  -0.436   0.964  0.00  0.00    +0.050 A 
ENDBRANCH  18  21
ENDBRANCH   6  17
TORSDOF 4
