REMARK  Name = ZINCrD000000CLIL.0
REMARK                            x       y       z     vdW  Elec       q    Type
REMARK                         _______ _______ _______ _____ _____    ______ ____
ROOT
ATOM      1  C   LIG    1        0.461  -2.776  -2.169  0.00  0.00    +0.570 C 
ATOM      2  N   LIG    1        0.495  -2.000  -1.067  0.00  0.00    -0.610 N 
ATOM      3  C   LIG    1        0.344  -2.584   0.275  0.00  0.00    +0.250 C 
ATOM      4  C   LIG    1        1.490  -2.074   1.156  0.00  0.00    +0.220 C 
ATOM      5  O   LIG    1        1.539  -0.647   1.086  0.00  0.00    -0.370 OA
ATOM      6  C   LIG    1        1.814  -0.134  -0.220  0.00  0.00    +0.200 C 
ATOM      7  C   LIG    1        0.684  -0.544  -1.171  0.00  0.00    +0.280 C 
ATOM      8  O   LIG    1        0.519  -2.267  -3.272  0.00  0.00    -0.530 OA
ENDROOT
BRANCH   1  16
ATOM      9  O   LIG    1       -0.107 -10.490  -1.683  0.00  0.00    -0.540 OA
ATOM     10  C   LIG    1        0.443  -9.476  -2.057  0.00  0.00    +0.530 C 
ATOM     11  C   LIG    1        1.550  -9.646  -3.035  0.00  0.00    +0.070 C 
ATOM     12  C   LIG    1        1.591  -8.520  -4.039  0.00  0.00    +0.040 C 
ATOM     13  C   LIG    1        2.098  -7.232  -3.469  0.00  0.00    +0.090 C 
ATOM     14  C   LIG    1        1.126  -6.461  -2.636  0.00  0.00    -0.120 A 
ATOM     15  C   LIG    1        1.205  -5.078  -2.751  0.00  0.00    +0.110 A 
ATOM     16  C   LIG    1        0.354  -4.242  -2.037  0.00  0.00    -0.150 A 
ATOM     17  C   LIG    1       -0.609  -4.808  -1.196  0.00  0.00    +0.080 A 
ATOM     18  C   LIG    1       -0.687  -6.170  -1.086  0.00  0.00    -0.030 A 
ATOM     19  C   LIG    1        0.179  -7.021  -1.799  0.00  0.00    +0.200 A 
ATOM     20  N   LIG    1       -0.001  -8.358  -1.557  0.00  0.00    -0.650 N 
ATOM     21  H   LIG    1       -0.618  -8.512  -0.824  0.00  0.00    +0.400 HD
ENDBRANCH   1  16
BRANCH   6  22
ATOM     22  C   LIG    1        1.902   1.369  -0.162  0.00  0.00    -0.100 A 
ATOM     23  C   LIG    1        1.085   2.076   0.700  0.00  0.00    +0.080 A 
ATOM     24  C   LIG    1        1.169   3.454   0.759  0.00  0.00    -0.020 A 
ATOM     25  C   LIG    1        2.063   4.128  -0.056  0.00  0.00    +0.110 A 
ATOM     26  C   LIG    1        2.877   3.419  -0.923  0.00  0.00    -0.010 A 
ATOM     27  F   LIG    1        2.142   5.476  -0.004  0.00  0.00    -0.140 F 
ATOM     28  C   LIG    1        2.796   2.041  -0.975  0.00  0.00    +0.060 A 
ENDBRANCH   6  22
TORSDOF 2
