REMARK  Name = ZINCtV000002w5VZ.0
REMARK                            x       y       z     vdW  Elec       q    Type
REMARK                         _______ _______ _______ _____ _____    ______ ____
ROOT
ATOM      1  N   LIG    1       -2.566   3.547   0.046  0.00  0.00    -0.470 N 
ATOM      2  C   LIG    1       -1.234   3.165   0.031  0.00  0.00    +0.050 A 
ATOM      3  C   LIG    1       -0.035   3.860   0.023  0.00  0.00    +0.090 A 
ATOM      4  C   LIG    1        1.160   3.169   0.008  0.00  0.00    -0.170 A 
ATOM      5  C   LIG    1        1.169   1.783   0.001  0.00  0.00    +0.070 A 
ATOM      6  C   LIG    1       -0.013   1.076   0.008  0.00  0.00    +0.090 A 
ATOM      7  C   LIG    1       -1.230   1.760   0.017  0.00  0.00    +0.090 A 
ATOM      8  N   LIG    1       -2.528   1.356   0.021  0.00  0.00    -0.490 NA
ATOM      9  C   LIG    1       -3.315   2.404   0.029  0.00  0.00    +0.270 A 
ENDROOT
BRANCH   4  10
ATOM     10  C   LIG    1        2.463   3.927   0.000  0.00  0.00    +0.510 C 
ATOM     11  F   LIG    1        2.545   4.725   1.146  0.00  0.00    -0.180 F 
ATOM     12  F   LIG    1        2.524   4.738  -1.138  0.00  0.00    -0.180 F 
ATOM     13  F   LIG    1        3.529   3.021  -0.015  0.00  0.00    -0.170 F 
ENDBRANCH   4  10
BRANCH   1  14
ATOM     14  C   LIG    1       -3.076   4.920   0.059  0.00  0.00    +0.300 C 
BRANCH  14  16
ATOM     15  C   LIG    1       -3.799   6.841  -1.365  0.00  0.00    +0.040 C 
ATOM     16  C   LIG    1       -3.267   5.407  -1.379  0.00  0.00    +0.010 C 
ENDBRANCH  14  16
ENDBRANCH   1  14
BRANCH   9  17
ATOM     17  S   LIG    1       -5.076   2.348   0.036  0.00  0.00    +0.050 S 
BRANCH  17  18
ATOM     18  C   LIG    1       -5.333   0.556   0.027  0.00  0.00    +0.270 C 
BRANCH  18  19
ATOM     19  C   LIG    1       -6.811   0.261   0.031  0.00  0.00    +0.180 A 
ATOM     20  N   LIG    1       -7.570   0.122  -1.019  0.00  0.00    -0.240 NA
ATOM     21  N   LIG    1       -8.777  -0.128  -0.648  0.00  0.00    -0.240 NA
ATOM     22  C   LIG    1       -8.831  -0.147   0.666  0.00  0.00    +0.250 A 
ATOM     23  O   LIG    1       -7.585   0.099   1.120  0.00  0.00    -0.200 OA
BRANCH  22  24
ATOM     24  C   LIG    1      -10.026  -0.392   1.486  0.00  0.00    +0.050 A 
ATOM     25  C   LIG    1      -11.282  -0.639   1.018  0.00  0.00    +0.070 A 
ATOM     26  C   LIG    1      -12.108  -0.812   2.143  0.00  0.00    +0.020 A 
ATOM     27  C   LIG    1      -11.327  -0.663   3.235  0.00  0.00    +0.000 A 
ATOM     28 BR   LIG    1      -11.906  -0.791   5.030  0.00  0.00    +0.080 Br
ATOM     29  O   LIG    1      -10.070  -0.415   2.834  0.00  0.00    -0.150 OA
ENDBRANCH  22  24
ENDBRANCH  18  19
ENDBRANCH  17  18
ENDBRANCH   9  17
TORSDOF 7
