REMARK  Name = ZINCpe000000YREi.0
REMARK                            x       y       z     vdW  Elec       q    Type
REMARK                         _______ _______ _______ _____ _____    ______ ____
ROOT
ATOM      1  N   LIG    1       -0.323   7.897   0.049  0.00  0.00    -0.710 N 
ATOM      2  H   LIG    1       -1.136   7.369   0.054  0.00  0.00    +0.410 HD
ATOM      3  C   LIG    1        0.878   7.285   0.034  0.00  0.00    +0.570 C 
ATOM      4  O   LIG    1        1.897   7.947   0.029  0.00  0.00    -0.510 OA
ENDROOT
BRANCH   3   5
ATOM      5  C   LIG    1        0.956   5.804   0.025  0.00  0.00    +0.150 A 
ATOM      6  N   LIG    1       -0.159   5.100   0.032  0.00  0.00    -0.430 NA
ATOM      7  C   LIG    1       -0.139   3.767   0.024  0.00  0.00    +0.250 A 
ATOM      8  N   LIG    1       -1.279   3.064   0.030  0.00  0.00    -0.410 NA
ATOM      9  C   LIG    1       -1.236   1.752   0.018  0.00  0.00    +0.300 A 
ATOM     10  C   LIG    1       -0.013   1.076   0.008  0.00  0.00    +0.280 A 
ATOM     11  N   LIG    1        1.119   1.742   0.001  0.00  0.00    -0.410 NA
ATOM     12  C   LIG    1        1.102   3.078   0.008  0.00  0.00    +0.040 A 
ATOM     13  C   LIG    1        2.298   3.821   0.001  0.00  0.00    +0.130 A 
ATOM     14  C   LIG    1        2.214   5.183   0.010  0.00  0.00    +0.060 A 
ENDBRANCH   3   5
BRANCH   1  15
ATOM     15  C   LIG    1       -0.400   9.360   0.058  0.00  0.00    +0.290 C 
BRANCH  15  16
ATOM     16  C   LIG    1       -1.867   9.794   0.075  0.00  0.00    +0.040 C 
BRANCH  16  18
ATOM     17  O   LIG    1       -0.928  11.959   0.078  0.00  0.00    -0.530 OA
ATOM     18  C   LIG    1       -1.946  11.299   0.084  0.00  0.00    +0.520 C 
ATOM     19  N   LIG    1       -3.146  11.910   0.099  0.00  0.00    -0.730 N 
ATOM     20  H   LIG    1       -3.960  11.382   0.103  0.00  0.00    +0.400 HD
BRANCH  19  21
ATOM     21  C   LIG    1       -3.223  13.373   0.108  0.00  0.00    +0.330 C 
BRANCH  21  22
ATOM     22  C   LIG    1       -4.668  13.800   0.124  0.00  0.00    -0.170 A 
ATOM     23  C   LIG    1       -5.351  14.012  -1.064  0.00  0.00    +0.080 A 
ATOM     24  C   LIG    1       -6.681  14.398  -1.001  0.00  0.00    -0.030 A 
ATOM     25  C   LIG    1       -7.274  14.571   0.235  0.00  0.00    +0.270 A 
ATOM     26  N   LIG    1       -6.592  14.366   1.345  0.00  0.00    -0.480 NA
ATOM     27  C   LIG    1       -5.328  13.992   1.323  0.00  0.00    +0.280 A 
ENDBRANCH  21  22
ENDBRANCH  19  21
ENDBRANCH  16  18
ENDBRANCH  15  16
ENDBRANCH   1  15
TORSDOF 6
