REMARK  Name = ZINCnE000001O9rd.1
REMARK                            x       y       z     vdW  Elec       q    Type
REMARK                         _______ _______ _______ _____ _____    ______ ____
ROOT
ATOM      1  N   LIG    1        2.482  -0.278  -0.023  0.00  0.00    -0.750 N 
ATOM      2  H   LIG    1        1.648  -0.775  -0.018  0.00  0.00    +0.390 HD
ATOM      3  C   LIG    1        2.463   1.070  -0.016  0.00  0.00    +0.560 C 
ATOM      4  O   LIG    1        3.507   1.692  -0.022  0.00  0.00    -0.510 OA
ENDROOT
BRANCH   3   5
ATOM      5  C   LIG    1        1.175   1.790   0.001  0.00  0.00    -0.220 A 
ATOM      6  C   LIG    1       -0.013   1.076   0.008  0.00  0.00    +0.070 A 
ATOM      7  C   LIG    1       -1.234   1.766   0.018  0.00  0.00    -0.160 A 
ATOM      8  C   LIG    1       -2.458   1.073   0.031  0.00  0.00    +0.040 A 
ATOM      9  C   LIG    1       -3.627   1.770   0.046  0.00  0.00    -0.090 A 
ATOM     10  C   LIG    1       -3.630   3.164   0.054  0.00  0.00    -0.010 A 
ATOM     11  C   LIG    1       -2.465   3.868   0.048  0.00  0.00    -0.040 A 
ATOM     12  C   LIG    1       -1.237   3.184   0.032  0.00  0.00    +0.030 A 
ATOM     13  C   LIG    1       -0.019   3.885   0.024  0.00  0.00    -0.200 A 
ATOM     14  C   LIG    1        1.160   3.201   0.009  0.00  0.00    +0.300 A 
ATOM     15  O   LIG    1        2.333   3.884   0.002  0.00  0.00    -0.670 OA
ENDBRANCH   3   5
BRANCH   1  16
ATOM     16  C   LIG    1        3.760  -0.993  -0.039  0.00  0.00    +0.240 C 
BRANCH  16  17
ATOM     17  C   LIG    1        3.502  -2.501  -0.045  0.00  0.00    +0.020 C 
BRANCH  17  21
ATOM     18  C   LIG    1        5.667  -7.003  -0.200  0.00  0.00    +0.050 C 
ATOM     19  C   LIG    1        5.918  -5.496  -0.130  0.00  0.00    +0.150 C 
ATOM     20  C   LIG    1        4.582  -4.752  -0.193  0.00  0.00    +0.000 C 
ATOM     21  C   LIG    1        4.837  -3.247  -0.062  0.00  0.00    -0.020 C 
ATOM     22  C   LIG    1        5.590  -2.981   1.246  0.00  0.00    -0.010 C 
ATOM     23  C   LIG    1        6.887  -3.793   1.253  0.00  0.00    +0.200 C 
ATOM     24  O   LIG    1        6.580  -5.180   1.096  0.00  0.00    -0.380 OA
ENDBRANCH  17  21
ENDBRANCH  16  17
ENDBRANCH   1  16
TORSDOF 4
