REMARK  Name = ZINCtV000002qRoJ.0
REMARK                            x       y       z     vdW  Elec       q    Type
REMARK                         _______ _______ _______ _____ _____    ______ ____
ROOT
ATOM      1  C   LIG    1        3.673   2.136   0.183  0.00  0.00    -0.070 A 
ATOM      2  C   LIG    1        4.821   1.400  -0.075  0.00  0.00    +0.020 A 
ATOM      3  C   LIG    1        4.753  -0.002  -0.083  0.00  0.00    +0.200 A 
ATOM      4  N   LIG    1        3.632  -0.653   0.147  0.00  0.00    -0.450 NA
ATOM      5  C   LIG    1        2.483  -0.026   0.404  0.00  0.00    +0.130 A 
ATOM      6  C   LIG    1        1.300  -0.748   0.646  0.00  0.00    +0.050 A 
ATOM      7  C   LIG    1        0.142  -0.081   0.904  0.00  0.00    +0.030 A 
ATOM      8  C   LIG    1        0.106   1.312   0.934  0.00  0.00    +0.020 A 
ATOM      9  C   LIG    1        1.233   2.045   0.705  0.00  0.00    +0.060 A 
ATOM     10  C   LIG    1        2.440   1.391   0.436  0.00  0.00    -0.070 A 
ENDROOT
BRANCH   3  11
ATOM     11  C   LIG    1        5.986  -0.776  -0.359  0.00  0.00    -0.060 A 
ATOM     12  C   LIG    1        7.186  -0.114  -0.612  0.00  0.00    +0.020 A 
ATOM     13  C   LIG    1        8.333  -0.841  -0.864  0.00  0.00    +0.010 A 
ATOM     14  C   LIG    1        8.290  -2.223  -0.875  0.00  0.00    +0.030 A 
ATOM     15  C   LIG    1        7.100  -2.886  -0.631  0.00  0.00    +0.010 A 
ATOM     16  C   LIG    1        5.949  -2.170  -0.373  0.00  0.00    +0.070 A 
ENDBRANCH   3  11
BRANCH   1  19
ATOM     17  N   LIG    1        4.867   4.272   0.080  0.00  0.00    -0.660 N 
ATOM     18  H   LIG    1        5.685   3.779  -0.086  0.00  0.00    +0.410 HD
ATOM     19  C   LIG    1        3.696   3.615   0.202  0.00  0.00    +0.570 C 
ATOM     20  O   LIG    1        2.660   4.237   0.327  0.00  0.00    -0.500 OA
BRANCH  17  24
ATOM     21  C   LIG    1        4.969   8.422   0.414  0.00  0.00    -0.080 A 
ATOM     22  C   LIG    1        6.019   7.665   0.901  0.00  0.00    +0.030 A 
ATOM     23  C   LIG    1        5.988   6.289   0.792  0.00  0.00    -0.010 A 
ATOM     24  C   LIG    1        4.901   5.665   0.193  0.00  0.00    +0.130 A 
ATOM     25  C   LIG    1        3.850   6.429  -0.299  0.00  0.00    +0.030 A 
ATOM     26  C   LIG    1        3.885   7.805  -0.183  0.00  0.00    +0.030 A 
BRANCH  21  28
ATOM     27  C   LIG    1        6.230  10.465  -0.209  0.00  0.00    +0.040 C 
ATOM     28  C   LIG    1        5.007   9.924   0.534  0.00  0.00    -0.030 C 
ATOM     29  C   LIG    1        5.093  10.316   2.011  0.00  0.00    +0.040 C 
ATOM     30  C   LIG    1        3.735  10.517  -0.077  0.00  0.00    +0.030 C 
ENDBRANCH  21  28
ENDBRANCH  17  24
ENDBRANCH   1  19
TORSDOF 4
