REMARK  Name = ZINCpk000000n6ny.0
REMARK                            x       y       z     vdW  Elec       q    Type
REMARK                         _______ _______ _______ _____ _____    ______ ____
ROOT
ATOM      1  N   LIG    1       -0.303   7.493  -1.512  0.00  0.00    -0.510 NA
ENDROOT
BRANCH   1   2
ATOM      2  C   LIG    1        0.851   7.659  -0.618  0.00  0.00    +0.290 C 
BRANCH   2   3
ATOM      3  C   LIG    1        1.996   6.814  -1.114  0.00  0.00    +0.430 C 
ATOM      4  O   LIG    1        1.855   6.119  -2.092  0.00  0.00    -0.490 OA
BRANCH   3   5
ATOM      5  O   LIG    1        3.174   6.835  -0.470  0.00  0.00    -0.350 OA
BRANCH   5   7
ATOM      6  C   LIG    1        4.542   6.420  -2.442  0.00  0.00    +0.030 C 
ATOM      7  C   LIG    1        4.232   5.996  -1.005  0.00  0.00    +0.120 C 
ATOM      8  C   LIG    1        3.781   4.534  -0.990  0.00  0.00    +0.030 C 
ATOM      9  C   LIG    1        5.488   6.151  -0.145  0.00  0.00    +0.080 C 
ENDBRANCH   5   7
ENDBRANCH   3   5
ENDBRANCH   2   3
ENDBRANCH   1   2
BRANCH   1  10
ATOM     10  C   LIG    1       -0.797   6.110  -1.483  0.00  0.00    +0.190 C 
BRANCH  10  11
ATOM     11  C   LIG    1       -1.363   5.799  -0.097  0.00  0.00    +0.070 C 
BRANCH  11  12
ATOM     12  C   LIG    1       -1.870   4.380  -0.067  0.00  0.00    -0.080 A 
ATOM     13  C   LIG    1       -1.024   3.352   0.302  0.00  0.00    +0.000 A 
ATOM     14  C   LIG    1       -1.489   2.050   0.330  0.00  0.00    +0.000 A 
ATOM     15  C   LIG    1       -2.801   1.778  -0.011  0.00  0.00    +0.000 A 
ATOM     16  C   LIG    1       -3.646   2.806  -0.386  0.00  0.00    +0.000 A 
ATOM     17  C   LIG    1       -3.182   4.108  -0.409  0.00  0.00    +0.010 A 
ENDBRANCH  11  12
ENDBRANCH  10  11
ENDBRANCH   1  10
BRANCH   1  18
ATOM     18  C   LIG    1        0.030   7.905  -2.882  0.00  0.00    +0.220 C 
BRANCH  18  19
ATOM     19  C   LIG    1        0.157   9.429  -2.940  0.00  0.00    +0.070 C 
BRANCH  19  20
ATOM     20  C   LIG    1        0.369   9.862  -4.367  0.00  0.00    +0.520 C 
ATOM     21  N   LIG    1        0.509  11.170  -4.662  0.00  0.00    -0.690 N 
ATOM     22  H   LIG    1        0.473  11.832  -3.954  0.00  0.00    +0.410 HD
ATOM     23  C   LIG    1        0.699  11.557  -5.939  0.00  0.00    +0.690 C 
ATOM     24  O   LIG    1        0.744  10.726  -6.825  0.00  0.00    -0.530 OA
ATOM     25  N   LIG    1        0.839  12.864  -6.233  0.00  0.00    -0.860 N 
ATOM     26  H   LIG    1        0.975  13.143  -7.152  0.00  0.00    +0.420 HD
ATOM     27  H   LIG    1        0.802  13.527  -5.525  0.00  0.00    +0.400 HD
ATOM     28  O   LIG    1        0.414   9.034  -5.252  0.00  0.00    -0.460 OA
ENDBRANCH  19  20
ENDBRANCH  18  19
ENDBRANCH   1  18
TORSDOF 10
