REMARK  Name = ZINCrD000000Apv5.0
REMARK                            x       y       z     vdW  Elec       q    Type
REMARK                         _______ _______ _______ _____ _____    ______ ____
ROOT
ATOM      1  O   LIG    1       -0.635   5.640   1.749  0.00  0.00    -0.510 OA
ATOM      2  C   LIG    1       -0.791   5.794   2.942  0.00  0.00    +0.510 C 
ATOM      3  N   LIG    1       -1.252   4.778   3.698  0.00  0.00    -0.670 N 
ATOM      4  H   LIG    1       -1.450   4.923   4.636  0.00  0.00    +0.420 HD
ENDROOT
BRANCH   3   5
ATOM      5  C   LIG    1       -1.445   3.514   3.129  0.00  0.00    +0.120 A 
ATOM      6  C   LIG    1       -2.475   2.699   3.578  0.00  0.00    +0.050 A 
ATOM      7  C   LIG    1       -2.663   1.452   3.014  0.00  0.00    +0.020 A 
ATOM      8  C   LIG    1       -1.827   1.016   2.004  0.00  0.00    +0.110 A 
ATOM      9  C   LIG    1       -0.800   1.825   1.554  0.00  0.00    -0.660 A 
ATOM     10  C   LIG    1       -0.603   3.071   2.117  0.00  0.00    +0.130 A 
BRANCH   9  11
ATOM     11  S   LIG    1        0.264   1.264   0.267  0.00  0.00    +2.710 S 
ATOM     12  O   LIG    1        1.477   1.992   0.402  0.00  0.00    -0.950 OA
ATOM     13  O   LIG    1        0.203  -0.156   0.287  0.00  0.00    -0.950 OA
BRANCH  11  14
ATOM     14  N   LIG    1       -0.410   1.740  -1.169  0.00  0.00    -1.010 NA
ATOM     15  C   LIG    1       -1.363   0.957  -1.970  0.00  0.00    +0.270 C 
ATOM     16  C   LIG    1       -1.694   1.787  -3.228  0.00  0.00    +0.030 C 
ATOM     17  C   LIG    1       -0.472   2.736  -3.348  0.00  0.00    +0.040 C 
ATOM     18  C   LIG    1       -0.150   3.017  -1.859  0.00  0.00    +0.270 C 
ENDBRANCH  11  14
ENDBRANCH   9  11
ENDBRANCH   3   5
BRANCH   2  19
ATOM     19  C   LIG    1       -0.471   7.122   3.578  0.00  0.00    +0.310 C 
BRANCH  19  20
ATOM     20  N   LIG    1        0.009   8.052   2.553  0.00  0.00    -0.730 N 
ATOM     21  H   LIG    1        0.075   7.764   1.629  0.00  0.00    +0.420 HD
BRANCH  20  22
ATOM     22  C   LIG    1        0.371   9.357   2.906  0.00  0.00    +0.200 A 
ATOM     23  C   LIG    1        0.271   9.773   4.226  0.00  0.00    -0.030 A 
ATOM     24  C   LIG    1        0.635  11.060   4.573  0.00  0.00    +0.070 A 
ATOM     25  C   LIG    1        1.087  11.938   3.605  0.00  0.00    -0.070 A 
ATOM     26  C   LIG    1        1.183  11.529   2.286  0.00  0.00    +0.050 A 
ATOM     27 CL   LIG    1        1.537  13.556   4.045  0.00  0.00    -0.060 Cl
ATOM     28  C   LIG    1        0.826  10.241   1.933  0.00  0.00    +0.040 A 
ATOM     29  F   LIG    1        0.919   9.841   0.646  0.00  0.00    -0.130 F 
ENDBRANCH  20  22
ENDBRANCH  19  20
ENDBRANCH   2  19
TORSDOF 6
