REMARK  Name = ZINCrD0000073z3o.0
REMARK                            x       y       z     vdW  Elec       q    Type
REMARK                         _______ _______ _______ _____ _____    ______ ____
ROOT
ATOM      1  N   LIG    1       -0.075  -2.780  -0.024  0.00  0.00    -0.650 N 
ATOM      2  H   LIG    1        0.782  -2.333  -0.111  0.00  0.00    +0.430 HD
ATOM      3  C   LIG    1       -0.128  -4.124   0.066  0.00  0.00    +0.610 C 
ATOM      4  O   LIG    1       -1.204  -4.692   0.073  0.00  0.00    -0.490 OA
ENDROOT
BRANCH   1  10
ATOM      5  C   LIG    1       -1.296  -0.764  -0.574  0.00  0.00    +0.160 A 
ATOM      6  C   LIG    1       -2.469  -0.028  -0.543  0.00  0.00    -0.030 A 
ATOM      7  C   LIG    1       -3.596  -0.547   0.068  0.00  0.00    +0.130 A 
ATOM      8  C   LIG    1       -3.556  -1.801   0.650  0.00  0.00    -0.060 A 
ATOM      9  C   LIG    1       -2.389  -2.541   0.624  0.00  0.00    +0.140 A 
ATOM     10  C   LIG    1       -1.256  -2.030   0.009  0.00  0.00    +0.120 A 
BRANCH   8  11
ATOM     11  N   LIG    1       -4.765  -2.351   1.302  0.00  0.00    +0.030 N 
ATOM     12  O   LIG    1       -4.732  -3.455   1.815  0.00  0.00    -0.150 OA
ATOM     13  O   LIG    1       -5.794  -1.700   1.325  0.00  0.00    -0.160 OA
ENDBRANCH   8  11
BRANCH   5  15
ATOM     14  C   LIG    1       -0.304   1.046  -1.755  0.00  0.00    +0.270 C 
ATOM     15  O   LIG    1       -0.188  -0.255  -1.174  0.00  0.00    -0.310 OA
ENDBRANCH   5  15
ENDBRANCH   1  10
BRANCH   3  16
ATOM     16  C   LIG    1        1.112  -4.902   0.154  0.00  0.00    -0.080 A 
ATOM     17  C   LIG    1        1.201  -6.262   0.249  0.00  0.00    +0.070 A 
ATOM     18  C   LIG    1        2.568  -6.573   0.308  0.00  0.00    -0.020 A 
ATOM     19  C   LIG    1        3.245  -5.405   0.248  0.00  0.00    -0.010 A 
ATOM     20  O   LIG    1        2.365  -4.401   0.150  0.00  0.00    -0.160 OA
BRANCH  19  21
ATOM     21  C   LIG    1        4.745  -5.258   0.281  0.00  0.00    +0.460 C 
BRANCH  21  22
ATOM     22  N   LIG    1        5.270  -5.303  -1.086  0.00  0.00    -0.380 N 
ATOM     23  N   LIG    1        5.680  -6.453  -1.774  0.00  0.00    -0.290 NA
ATOM     24  C   LIG    1        6.083  -6.095  -2.966  0.00  0.00    +0.080 A 
ATOM     25  C   LIG    1        5.951  -4.706  -3.072  0.00  0.00    -0.120 A 
ATOM     26  C   LIG    1        6.605  -7.018  -4.037  0.00  0.00    +0.160 C 
ATOM     27  C   LIG    1        5.449  -4.245  -1.904  0.00  0.00    +0.090 A 
ATOM     28  C   LIG    1        5.145  -2.806  -1.574  0.00  0.00    +0.140 C 
ENDBRANCH  21  22
ENDBRANCH  19  21
ENDBRANCH   3  16
TORSDOF 6
