REMARK  Name = ZINCqH0000050Lgi.0
REMARK                            x       y       z     vdW  Elec       q    Type
REMARK                         _______ _______ _______ _____ _____    ______ ____
ROOT
ATOM      1  C   LIG    1       -1.433  -4.873   2.365  0.00  0.00    +0.170 A 
ATOM      2  C   LIG    1       -0.316  -5.574   2.803  0.00  0.00    -0.080 A 
ATOM      3  C   LIG    1       -0.469  -6.725   3.542  0.00  0.00    +0.140 A 
ATOM      4  C   LIG    1       -1.750  -7.196   3.842  0.00  0.00    -0.170 A 
ATOM      5  C   LIG    1       -2.872  -6.491   3.395  0.00  0.00    +0.140 A 
ATOM      6  C   LIG    1       -2.710  -5.337   2.662  0.00  0.00    -0.020 A 
ENDROOT
BRANCH   4   7
ATOM      7  C   LIG    1       -1.919  -8.432   4.628  0.00  0.00    +0.520 C 
ATOM      8  O   LIG    1       -3.034  -8.840   4.888  0.00  0.00    -0.500 OA
BRANCH   7   9
ATOM      9  O   LIG    1       -0.836  -9.110   5.058  0.00  0.00    -0.330 OA
BRANCH   9  10
ATOM     10  C   LIG    1       -1.078 -10.318   5.826  0.00  0.00    +0.240 C 
BRANCH  10  11
ATOM     11  C   LIG    1        0.240 -10.936   6.218  0.00  0.00    +0.430 C 
ATOM     12  O   LIG    1        1.282 -10.409   5.882  0.00  0.00    -0.420 OA
BRANCH  11  13
ATOM     13  C   LIG    1        0.264 -12.127   6.974  0.00  0.00    -0.310 A 
ATOM     14  C   LIG    1        1.395 -12.786   7.386  0.00  0.00    +0.150 A 
ATOM     15  C   LIG    1        1.128 -13.918   8.111  0.00  0.00    +0.020 A 
ATOM     16  C   LIG    1       -0.176 -14.190   8.284  0.00  0.00    -0.150 A 
ATOM     17 CL   LIG    1       -0.787 -15.562   9.155  0.00  0.00    +0.000 Cl
ATOM     18  S   LIG    1       -1.151 -13.008   7.534  0.00  0.00    +0.280 S 
ENDBRANCH  11  13
ENDBRANCH  10  11
ENDBRANCH   9  10
ENDBRANCH   7   9
ENDBRANCH   4   7
BRANCH   1  19
ATOM     19  O   LIG    1       -1.278  -3.736   1.641  0.00  0.00    -0.300 OA
BRANCH  19  20
ATOM     20  C   LIG    1        0.061  -3.315   1.372  0.00  0.00    +0.350 C 
BRANCH  20  24
ATOM     21  C   LIG    1       -0.018   1.503   0.010  0.00  0.00    +0.250 C 
ATOM     22  C   LIG    1        0.002  -0.004   0.002  0.00  0.00    +0.190 A 
ATOM     23  N   LIG    1        0.023  -0.791   1.051  0.00  0.00    -0.470 NA
ATOM     24  C   LIG    1        0.035  -2.044   0.564  0.00  0.00    +0.160 A 
ATOM     25  N   LIG    1        0.022  -1.958  -0.733  0.00  0.00    -0.360 NA
ATOM     26  O   LIG    1       -0.003  -0.794  -1.076  0.00  0.00    +0.090 OA
ENDBRANCH  20  24
ENDBRANCH  19  20
ENDBRANCH   1  19
TORSDOF 8
