REMARK  Name = ZINCqH0000033Llm.1
REMARK                            x       y       z     vdW  Elec       q    Type
REMARK                         _______ _______ _______ _____ _____    ______ ____
ROOT
ATOM      1  N   LIG    1       -0.578   2.413  -6.006  0.00  0.00    -0.630 N 
ATOM      2  H   LIG    1       -1.491   2.738  -5.965  0.00  0.00    +0.420 HD
ATOM      3  C   LIG    1        0.034   1.982  -4.885  0.00  0.00    +0.560 C 
ATOM      4  O   LIG    1        1.179   1.575  -4.936  0.00  0.00    -0.450 OA
ENDROOT
BRANCH   3   5
ATOM      5  C   LIG    1       -0.684   2.004  -3.596  0.00  0.00    -0.180 A 
ATOM      6  C   LIG    1       -1.999   2.470  -3.531  0.00  0.00    +0.080 A 
ATOM      7  C   LIG    1       -2.659   2.487  -2.323  0.00  0.00    +0.000 A 
ATOM      8  C   LIG    1       -2.029   2.045  -1.167  0.00  0.00    -0.010 A 
ATOM      9  C   LIG    1       -2.797   2.096   0.130  0.00  0.00    +0.110 C 
ATOM     10  C   LIG    1       -2.118   1.209   1.174  0.00  0.00    +0.180 C 
ATOM     11  N   LIG    1       -0.689   1.554   1.222  0.00  0.00    -0.680 NA
ATOM     12  H   LIG    1       -0.254   1.173   2.048  0.00  0.00    +0.350 HD
ATOM     13  C   LIG    1       -0.013   1.086   0.008  0.00  0.00    +0.250 C 
ATOM     14  C   LIG    1       -0.732   1.580  -1.220  0.00  0.00    -0.120 A 
ATOM     15  C   LIG    1       -0.055   1.559  -2.432  0.00  0.00    +0.170 A 
ATOM     16  F   LIG    1        1.217   1.106  -2.485  0.00  0.00    -0.110 F 
ENDBRANCH   3   5
BRANCH   1  22
ATOM     17  C   LIG    1        2.571   2.250 -11.303  0.00  0.00    +0.150 A 
ATOM     18  C   LIG    1        3.471   1.749 -10.368  0.00  0.00    -0.040 A 
ATOM     19  C   LIG    1        3.114   1.634  -9.048  0.00  0.00    +0.120 A 
ATOM     20  C   LIG    1        1.828   2.023  -8.618  0.00  0.00    +0.070 A 
ATOM     21  N   LIG    1        1.308   1.987  -7.374  0.00  0.00    -0.460 NA
ATOM     22  C   LIG    1        0.096   2.393  -7.215  0.00  0.00    +0.330 A 
ATOM     23  S   LIG    1       -0.578   2.923  -8.749  0.00  0.00    +0.070 S 
ATOM     24  C   LIG    1        0.931   2.525  -9.567  0.00  0.00    -0.140 A 
ATOM     25  C   LIG    1        1.307   2.637 -10.903  0.00  0.00    +0.030 A 
BRANCH  17  26
ATOM     26  O   LIG    1        2.936   2.359 -12.609  0.00  0.00    -0.310 OA
BRANCH  26  28
ATOM     27  C   LIG    1        4.484   2.135 -14.451  0.00  0.00    +0.070 C 
ATOM     28  C   LIG    1        4.259   1.940 -12.950  0.00  0.00    +0.190 C 
ENDBRANCH  26  28
ENDBRANCH  17  26
ENDBRANCH   1  22
TORSDOF 4
