REMARK  Name = ZINCqH0000003MtF.0
REMARK                            x       y       z     vdW  Elec       q    Type
REMARK                         _______ _______ _______ _____ _____    ______ ____
ROOT
ATOM      1  C   LIG    1       -1.212   3.406   0.084  0.00  0.00    +0.110 A 
ATOM      2  C   LIG    1        0.009   4.066   0.107  0.00  0.00    -0.050 A 
ATOM      3  C   LIG    1        0.049   5.441   0.230  0.00  0.00    +0.030 A 
ATOM      4  C   LIG    1       -1.132   6.162   0.343  0.00  0.00    +0.110 A 
ATOM      5  C   LIG    1       -2.353   5.501   0.326  0.00  0.00    +0.070 A 
ATOM      6  C   LIG    1       -2.392   4.127   0.197  0.00  0.00    +0.010 A 
ENDROOT
BRANCH   4   7
ATOM      7  N   LIG    1       -1.092   7.556   0.475  0.00  0.00    -0.660 N 
ATOM      8  H   LIG    1       -0.411   8.068   0.011  0.00  0.00    +0.410 HD
ATOM      9  C   LIG    1       -2.000   8.187   1.246  0.00  0.00    +0.530 C 
ATOM     10  O   LIG    1       -2.896   7.556   1.767  0.00  0.00    -0.500 OA
BRANCH   9  11
ATOM     11  C   LIG    1       -1.902   9.675   1.462  0.00  0.00    +0.110 C 
BRANCH  11  12
ATOM     12  S   LIG    1       -3.257  10.221   2.537  0.00  0.00    +0.100 S 
BRANCH  12  13
ATOM     13  C   LIG    1       -2.981  11.956   2.673  0.00  0.00    +0.190 A 
ATOM     14  N   LIG    1       -3.718  12.795   3.362  0.00  0.00    -0.290 NA
ATOM     15  N   LIG    1       -3.145  14.067   3.196  0.00  0.00    -0.480 N 
ATOM     16  H   LIG    1       -3.459  14.900   3.582  0.00  0.00    +0.450 HD
ATOM     17  C   LIG    1       -2.076  13.902   2.400  0.00  0.00    +0.510 A 
ATOM     18  N   LIG    1       -1.983  12.633   2.096  0.00  0.00    -0.550 NA
ENDBRANCH  12  13
ENDBRANCH  11  12
ENDBRANCH   9  11
ENDBRANCH   4   7
BRANCH   1  19
ATOM     19  O   LIG    1       -1.251   2.054  -0.043  0.00  0.00    -0.250 OA
BRANCH  19  23
ATOM     20  C   LIG    1        2.324  -0.011   0.003  0.00  0.00    +0.130 A 
ATOM     21  C   LIG    1        1.888   0.647   1.144  0.00  0.00    +0.000 A 
ATOM     22  C   LIG    1        0.693   1.339   1.128  0.00  0.00    +0.040 A 
ATOM     23  C   LIG    1       -0.072   1.377  -0.029  0.00  0.00    +0.050 A 
ATOM     24  C   LIG    1        0.364   0.719  -1.170  0.00  0.00    +0.060 A 
ATOM     25  C   LIG    1        1.559   0.027  -1.154  0.00  0.00    -0.050 A 
BRANCH  20  26
ATOM     26  O   LIG    1        3.500  -0.693   0.019  0.00  0.00    -0.310 OA
BRANCH  26  28
ATOM     27  C   LIG    1        5.227  -2.055  -0.982  0.00  0.00    +0.070 C 
ATOM     28  C   LIG    1        3.887  -1.346  -1.192  0.00  0.00    +0.170 C 
ENDBRANCH  26  28
ENDBRANCH  20  26
ENDBRANCH  19  23
ENDBRANCH   1  19
TORSDOF 8
