REMARK  Name = ZINCrg000000rNDA.0
REMARK                            x       y       z     vdW  Elec       q    Type
REMARK                         _______ _______ _______ _____ _____    ______ ____
ROOT
ATOM      1  N   LIG    1       -0.453   1.393   3.718  0.00  0.00    -0.730 N 
ATOM      2  H   LIG    1       -1.248   1.939   3.817  0.00  0.00    +0.410 HD
ATOM      3  C   LIG    1        0.000   1.080   2.488  0.00  0.00    +0.520 C 
ATOM      4  O   LIG    1        0.994   0.397   2.363  0.00  0.00    -0.530 OA
ENDROOT
BRANCH   1   5
ATOM      5  C   LIG    1        0.256   0.907   4.905  0.00  0.00    +0.310 C 
BRANCH   5   6
ATOM      6  C   LIG    1       -0.461   1.401   6.164  0.00  0.00    -0.380 C 
BRANCH   6   7
ATOM      7  S   LIG    1        0.417   0.800   7.633  0.00  0.00    +2.620 S 
ATOM      8  O   LIG    1        1.685   1.429   7.748  0.00  0.00    -0.940 OA
ATOM      9  O   LIG    1        0.285  -0.610   7.751  0.00  0.00    -0.940 OA
BRANCH   7  13
ATOM     10  C   LIG    1       -3.284   1.879   8.167  0.00  0.00    +0.010 C 
ATOM     11  C   LIG    1       -2.792   1.551   9.578  0.00  0.00    +0.190 C 
ATOM     12  C   LIG    1       -1.566   0.634   9.492  0.00  0.00    +0.280 C 
ATOM     13  N   LIG    1       -0.454   1.399   8.908  0.00  0.00    -1.000 NA
ATOM     14  C   LIG    1       -0.134   2.711   9.494  0.00  0.00    +0.280 C 
ATOM     15  C   LIG    1       -1.433   3.529   9.576  0.00  0.00    +0.140 C 
ATOM     16  C   LIG    1       -1.172   4.821  10.352  0.00  0.00    +0.070 C 
ATOM     17  O   LIG    1       -2.430   2.759  10.251  0.00  0.00    -0.370 OA
ENDBRANCH   7  13
ENDBRANCH   6   7
ENDBRANCH   5   6
ENDBRANCH   1   5
BRANCH   3  18
ATOM     18  C   LIG    1       -0.729   1.579   1.267  0.00  0.00    +0.080 C 
BRANCH  18  19
ATOM     19  C   LIG    1       -0.013   1.086   0.008  0.00  0.00    +0.170 C 
BRANCH  19  20
ATOM     20  C   LIG    1       -0.742   1.585  -1.213  0.00  0.00    +0.280 A 
ATOM     21  N   LIG    1       -2.004   1.388  -1.460  0.00  0.00    -0.490 NA
ATOM     22  C   LIG    1       -2.335   1.974  -2.639  0.00  0.00    +0.050 A 
ATOM     23  C   LIG    1       -3.525   2.073  -3.365  0.00  0.00    +0.070 A 
ATOM     24  C   LIG    1       -3.541   2.742  -4.556  0.00  0.00    +0.000 A 
ATOM     25  C   LIG    1       -2.386   3.326  -5.056  0.00  0.00    +0.030 A 
ATOM     26  C   LIG    1       -1.201   3.241  -4.357  0.00  0.00    +0.010 A 
ATOM     27  C   LIG    1       -1.165   2.566  -3.145  0.00  0.00    +0.050 A 
ATOM     28  N   LIG    1       -0.174   2.302  -2.220  0.00  0.00    -0.600 N 
ATOM     29  H   LIG    1        0.754   2.578  -2.278  0.00  0.00    +0.420 HD
ENDBRANCH  19  20
ENDBRANCH  18  19
ENDBRANCH   3  18
TORSDOF 7
