REMARK  Name = ZINCrD0000074VHe.0
REMARK                            x       y       z     vdW  Elec       q    Type
REMARK                         _______ _______ _______ _____ _____    ______ ____
ROOT
ATOM      1  C   LIG    1        0.181   4.098   0.157  0.00  0.00    +0.520 C 
ATOM      2  N   LIG    1        1.324   3.390   0.061  0.00  0.00    -0.670 N 
ATOM      3  H   LIG    1        2.177   3.849   0.016  0.00  0.00    +0.420 HD
ATOM      4  O   LIG    1       -0.876   3.525   0.317  0.00  0.00    -0.490 OA
ENDROOT
BRANCH   2   5
ATOM      5  C   LIG    1        1.279   1.990   0.025  0.00  0.00    +0.140 A 
ATOM      6  C   LIG    1        0.218   1.343  -0.591  0.00  0.00    +0.030 A 
ATOM      7  C   LIG    1        0.177  -0.038  -0.625  0.00  0.00    +0.040 A 
ATOM      8  C   LIG    1        1.191  -0.778  -0.046  0.00  0.00    +0.020 A 
ATOM      9  C   LIG    1        2.252  -0.141   0.569  0.00  0.00    +0.040 A 
ATOM     10  C   LIG    1        2.302   1.243   0.607  0.00  0.00    +0.060 A 
BRANCH  10  11
ATOM     11  O   LIG    1        3.345   1.871   1.212  0.00  0.00    -0.260 OA
BRANCH  11  12
ATOM     12  C   LIG    1        3.166   2.332   2.478  0.00  0.00    +0.110 A 
ATOM     13  C   LIG    1        1.917   2.250   3.076  0.00  0.00    -0.060 A 
ATOM     14  C   LIG    1        1.739   2.714   4.365  0.00  0.00    +0.050 A 
ATOM     15  C   LIG    1        2.801   3.269   5.055  0.00  0.00    -0.020 A 
ATOM     16  C   LIG    1        4.045   3.357   4.458  0.00  0.00    +0.050 A 
ATOM     17  C   LIG    1        4.231   2.889   3.171  0.00  0.00    -0.010 A 
ENDBRANCH  11  12
ENDBRANCH  10  11
ENDBRANCH   2   5
BRANCH   1  18
ATOM     18  C   LIG    1        0.216   5.601   0.064  0.00  0.00    +0.270 C 
BRANCH  18  19
ATOM     19  O   LIG    1       -1.131   6.127   0.196  0.00  0.00    -0.310 OA
BRANCH  19  20
ATOM     20  C   LIG    1       -1.275   7.464   0.134  0.00  0.00    +0.530 C 
ATOM     21  O   LIG    1       -0.301   8.173  -0.024  0.00  0.00    -0.490 OA
BRANCH  20  26
ATOM     22  C   LIG    1       -6.398   9.834   0.613  0.00  0.00    +0.160 C 
ATOM     23  C   LIG    1       -5.029   9.218   0.484  0.00  0.00    +0.120 A 
ATOM     24  C   LIG    1       -4.882   7.840   0.547  0.00  0.00    +0.230 A 
ATOM     25  N   LIG    1       -3.687   7.296   0.434  0.00  0.00    -0.380 NA
ATOM     26  C   LIG    1       -2.619   8.071   0.261  0.00  0.00    +0.030 A 
ATOM     27  C   LIG    1       -2.770   9.456   0.203  0.00  0.00    +0.320 A 
ATOM     28  N   LIG    1       -3.972   9.992   0.311  0.00  0.00    -0.440 NA
ENDBRANCH  20  26
ENDBRANCH  19  20
ENDBRANCH  18  19
ENDBRANCH   1  18
TORSDOF 7
