REMARK  Name = ZINCpk000005Ik4D.0
REMARK                            x       y       z     vdW  Elec       q    Type
REMARK                         _______ _______ _______ _____ _____    ______ ____
ROOT
ATOM      1  C   LIG    1       -0.014   1.212   0.009  0.00  0.00    +0.560 C 
ATOM      2  N   LIG    1        1.111   1.824   0.428  0.00  0.00    -0.590 N 
ATOM      3  C   LIG    1        1.070   3.202   0.830  0.00  0.00    +0.270 C 
ATOM      4  C   LIG    1        1.315   4.175  -0.343  0.00  0.00    +0.270 C 
ATOM      5  N   LIG    1        2.374   3.620  -1.231  0.00  0.00    -0.610 N 
ATOM      6  C   LIG    1        3.532   2.951  -0.712  0.00  0.00    +0.320 C 
ATOM      7  C   LIG    1        3.233   1.443  -0.680  0.00  0.00    +0.130 C 
ATOM      8  C   LIG    1        2.240   3.751  -2.566  0.00  0.00    +0.510 C 
ATOM      9  O   LIG    1        3.091   3.307  -3.307  0.00  0.00    -0.520 OA
ATOM     10  C   LIG    1        2.389   1.076   0.469  0.00  0.00    +0.280 C 
ATOM     11  O   LIG    1        0.047   0.107  -0.496  0.00  0.00    -0.520 OA
ENDROOT
BRANCH   1  15
ATOM     12  C   LIG    1       -4.957   0.949   0.631  0.00  0.00    +0.110 C 
ATOM     13  C   LIG    1       -3.701   1.763   0.456  0.00  0.00    -0.120 A 
ATOM     14  C   LIG    1       -2.485   1.129   0.314  0.00  0.00    +0.110 A 
ATOM     15  C   LIG    1       -1.321   1.885   0.157  0.00  0.00    -0.140 A 
ATOM     16  C   LIG    1       -1.397   3.279   0.134  0.00  0.00    +0.060 A 
ATOM     17  C   LIG    1       -2.619   3.902   0.272  0.00  0.00    +0.000 A 
ATOM     18  C   LIG    1       -3.771   3.147   0.433  0.00  0.00    +0.120 A 
ATOM     19  F   LIG    1       -4.966   3.763   0.568  0.00  0.00    -0.130 F 
ENDBRANCH   1  15
BRANCH   7  20
ATOM     20  O   LIG    1        4.467   0.726  -0.599  0.00  0.00    -0.560 OA
ATOM     21  H   LIG    1        4.364  -0.235  -0.610  0.00  0.00    +0.380 HD
ENDBRANCH   7  20
BRANCH   8  22
ATOM     22  C   LIG    1        1.033   4.450  -3.137  0.00  0.00    +0.060 C 
BRANCH  22  23
ATOM     23  C   LIG    1        1.127   4.462  -4.664  0.00  0.00    +0.060 C 
BRANCH  23  24
ATOM     24  C   LIG    1       -0.099   5.171  -5.244  0.00  0.00    +0.190 C 
BRANCH  24  25
ATOM     25  C   LIG    1       -0.009   5.183  -6.713  0.00  0.00    +0.200 C 
ATOM     26  N   LIG    1        0.060   5.192  -7.847  0.00  0.00    -0.430 NA
ENDBRANCH  24  25
ENDBRANCH  23  24
ENDBRANCH  22  23
ENDBRANCH   8  22
TORSDOF 6
