REMARK  Name = ZINCkj00000RnJIw.0
REMARK                            x       y       z     vdW  Elec       q    Type
REMARK                         _______ _______ _______ _____ _____    ______ ____
ROOT
ATOM      1  C   LIG    1        0.033   0.943  -0.095  0.00  0.00    +0.180 C 
ATOM      2  C   LIG    1       -0.622   1.509   1.182  0.00  0.00    +0.010 C 
ATOM      3  C   LIG    1       -2.068   1.856   0.744  0.00  0.00    +0.060 C 
ATOM      4  C   LIG    1       -1.868   2.404  -0.691  0.00  0.00    +0.040 C 
ATOM      5  C   LIG    1       -0.758   1.512  -1.285  0.00  0.00    +0.180 C 
ENDROOT
BRANCH   1   9
ATOM      6  C   LIG    1        2.533   3.001   1.258  0.00  0.00    +0.160 C 
ATOM      7  C   LIG    1        3.343   1.678   1.250  0.00  0.00    +0.010 C 
ATOM      8  C   LIG    1        2.265   0.653   0.819  0.00  0.00    +0.220 C 
ATOM      9  N   LIG    1        1.436   1.371  -0.173  0.00  0.00    -0.540 NA
ATOM     10  C   LIG    1        1.561   2.820   0.073  0.00  0.00    +0.170 C 
BRANCH   6  11
ATOM     11  O   LIG    1        3.393   4.121   1.040  0.00  0.00    -0.560 OA
ATOM     12  H   LIG    1        4.023   4.278   1.756  0.00  0.00    +0.390 HD
ENDBRANCH   6  11
ENDBRANCH   1   9
BRANCH   5  13
ATOM     13  N   LIG    1        0.127   2.314  -2.141  0.00  0.00    -0.500 N 
ATOM     14  H   LIG    1        0.934   1.766  -2.396  0.00  0.00    +0.440 HD
ATOM     15  H   LIG    1        0.424   3.137  -1.640  0.00  0.00    +0.420 HD
BRANCH  13  16
ATOM     16  C   LIG    1       -0.597   2.714  -3.355  0.00  0.00    +0.240 C 
BRANCH  16  17
ATOM     17  C   LIG    1        0.325   3.549  -4.247  0.00  0.00    +0.040 C 
BRANCH  17  18
ATOM     18  C   LIG    1       -0.429   3.966  -5.511  0.00  0.00    -0.010 C 
ATOM     19  C   LIG    1       -0.762   2.723  -6.342  0.00  0.00    -0.010 C 
ATOM     20  C   LIG    1       -1.445   3.155  -7.642  0.00  0.00    +0.210 C 
ATOM     21  O   LIG    1       -0.588   4.050  -8.354  0.00  0.00    -0.380 OA
ATOM     22  C   LIG    1       -0.281   5.252  -7.645  0.00  0.00    +0.210 C 
ATOM     23  C   LIG    1        0.450   4.904  -6.345  0.00  0.00    +0.010 C 
ENDBRANCH  17  18
ENDBRANCH  16  17
ENDBRANCH  13  16
ENDBRANCH   5  13
TORSDOF 6
