REMARK  Name = ZINCrg000000njZO.0
REMARK                            x       y       z     vdW  Elec       q    Type
REMARK                         _______ _______ _______ _____ _____    ______ ____
ROOT
ATOM      1  C   LIG    1        8.414  -1.744  -3.315  0.00  0.00    -0.290 A 
ATOM      2  C   LIG    1        7.132  -2.134  -3.645  0.00  0.00    +0.320 A 
ATOM      3  N   LIG    1        6.333  -1.068  -3.484  0.00  0.00    -0.350 N 
ATOM      4  N   LIG    1        7.113   0.011  -3.053  0.00  0.00    -0.260 NA
ATOM      5  C   LIG    1        8.352  -0.382  -2.944  0.00  0.00    +0.270 A 
ENDROOT
BRANCH   1   8
ATOM      6  N   LIG    1       10.816  -2.071  -2.993  0.00  0.00    -0.720 N 
ATOM      7  H   LIG    1       10.880  -1.142  -2.722  0.00  0.00    +0.400 HD
ATOM      8  C   LIG    1        9.622  -2.589  -3.344  0.00  0.00    +0.600 C 
ATOM      9  O   LIG    1        9.541  -3.753  -3.685  0.00  0.00    -0.540 OA
BRANCH   6  12
ATOM     10  N   LIG    1       14.382  -2.598  -2.799  0.00  0.00    -0.620 N 
ATOM     11  C   LIG    1       13.116  -2.334  -2.105  0.00  0.00    +0.270 C 
ATOM     12  C   LIG    1       12.015  -2.911  -3.022  0.00  0.00    +0.250 C 
ATOM     13  C   LIG    1       12.698  -2.853  -4.409  0.00  0.00    +0.050 C 
ATOM     14  C   LIG    1       14.177  -2.887  -4.096  0.00  0.00    +0.520 C 
ATOM     15  O   LIG    1       15.052  -3.138  -4.899  0.00  0.00    -0.520 OA
BRANCH  10  17
ATOM     16  C   LIG    1       16.372  -3.922  -2.280  0.00  0.00    +0.030 C 
ATOM     17  C   LIG    1       15.700  -2.553  -2.161  0.00  0.00    +0.240 C 
ATOM     18  C   LIG    1       16.566  -1.498  -2.853  0.00  0.00    +0.030 C 
ENDBRANCH  10  17
ENDBRANCH   6  12
ENDBRANCH   1   8
BRANCH   3  19
ATOM     19  C   LIG    1        4.888  -1.037  -3.724  0.00  0.00    +0.360 C 
BRANCH  19  20
ATOM     20  C   LIG    1        4.183  -0.551  -2.485  0.00  0.00    +0.500 C 
ATOM     21  N   LIG    1        2.839  -0.440  -2.473  0.00  0.00    -0.730 N 
ATOM     22  H   LIG    1        2.327  -0.674  -3.263  0.00  0.00    +0.400 HD
ATOM     23  O   LIG    1        4.824  -0.259  -1.497  0.00  0.00    -0.500 OA
BRANCH  21  24
ATOM     24  C   LIG    1        2.154   0.032  -1.268  0.00  0.00    +0.240 C 
ATOM     25  C   LIG    1        0.718  -0.497  -1.257  0.00  0.00    +0.010 C 
ATOM     26  C   LIG    1        0.002  -0.004   0.002  0.00  0.00    +0.020 C 
ATOM     27  C   LIG    1       -0.019   1.526   0.010  0.00  0.00    +0.010 C 
ATOM     28  C   LIG    1        1.417   2.055  -0.000  0.00  0.00    +0.010 C 
ATOM     29  C   LIG    1        2.133   1.562  -1.259  0.00  0.00    +0.000 C 
ENDBRANCH  21  24
ENDBRANCH  19  20
ENDBRANCH   3  19
TORSDOF 6
