REMARK  Name = ZINCvU0000000964.0
REMARK                            x       y       z     vdW  Elec       q    Type
REMARK                         _______ _______ _______ _____ _____    ______ ____
ROOT
ATOM      1  N   LIG    1        5.847   2.593   0.477  0.00  0.00    -0.520 NA
ATOM      2  C   LIG    1        4.745   1.906   0.245  0.00  0.00    +0.350 A 
ATOM      3  S   LIG    1        4.571   0.144   0.171  0.00  0.00    +0.030 S 
ATOM      4  C   LIG    1        2.830   0.184  -0.163  0.00  0.00    -0.030 A 
ATOM      5  C   LIG    1        2.498   1.484  -0.205  0.00  0.00    +0.220 A 
ATOM      6  N   LIG    1        3.493   2.401   0.011  0.00  0.00    -0.360 N 
ENDROOT
BRANCH   1  10
ATOM      7  C   LIG    1        9.422   0.612   1.135  0.00  0.00    +0.120 A 
ATOM      8  C   LIG    1        9.386   1.708   0.285  0.00  0.00    +0.010 A 
ATOM      9  C   LIG    1        8.197   2.372   0.063  0.00  0.00    +0.070 A 
ATOM     10  C   LIG    1        7.029   1.938   0.695  0.00  0.00    +0.080 A 
ATOM     11  C   LIG    1        7.072   0.837   1.553  0.00  0.00    +0.010 A 
ATOM     12  C   LIG    1        8.265   0.177   1.765  0.00  0.00    -0.050 A 
BRANCH   7  13
ATOM     13  O   LIG    1       10.597  -0.039   1.351  0.00  0.00    -0.320 OA
BRANCH  13  15
ATOM     14  C   LIG    1       11.967  -1.758   2.356  0.00  0.00    +0.070 C 
ATOM     15  C   LIG    1       10.564  -1.159   2.238  0.00  0.00    +0.170 C 
ENDBRANCH  13  15
ENDBRANCH   7  13
ENDBRANCH   1  10
BRANCH   5  16
ATOM     16  C   LIG    1        1.113   1.910  -0.468  0.00  0.00    +0.030 A 
ATOM     17  C   LIG    1        0.052   1.085  -0.694  0.00  0.00    +0.000 A 
ATOM     18  C   LIG    1       -1.068   1.914  -0.903  0.00  0.00    -0.050 A 
ATOM     19  C   LIG    1       -0.646   3.188  -0.785  0.00  0.00    +0.190 A 
ATOM     20  O   LIG    1        0.673   3.182  -0.526  0.00  0.00    -0.140 OA
ENDBRANCH   5  16
BRANCH   6  21
ATOM     21  N   LIG    1        3.238   3.779  -0.008  0.00  0.00    -0.260 NA
ATOM     22  C   LIG    1        4.223   4.622   0.085  0.00  0.00    +0.360 C 
BRANCH  22  23
ATOM     23  C   LIG    1        3.948   6.063   0.208  0.00  0.00    -0.160 A 
ATOM     24  C   LIG    1        4.867   7.060   0.313  0.00  0.00    +0.300 A 
ATOM     25  N   LIG    1        4.232   8.262   0.407  0.00  0.00    -0.580 N 
ATOM     26  H   LIG    1        4.678   9.120   0.491  0.00  0.00    +0.420 HD
ATOM     27  C   LIG    1        2.865   8.085   0.366  0.00  0.00    +0.090 A 
ATOM     28  C   LIG    1        1.789   8.965   0.424  0.00  0.00    -0.010 A 
ATOM     29  C   LIG    1        0.501   8.482   0.342  0.00  0.00    +0.030 A 
ATOM     30  C   LIG    1        0.263   7.121   0.215  0.00  0.00    -0.030 A 
ATOM     31  C   LIG    1        1.315   6.233   0.161  0.00  0.00    +0.070 A 
ATOM     32  C   LIG    1        2.623   6.708   0.234  0.00  0.00    -0.080 A 
ENDBRANCH  22  23
ENDBRANCH   6  21
TORSDOF 6
