REMARK  Name = ZINC650000001wUH.0
REMARK                            x       y       z     vdW  Elec       q    Type
REMARK                         _______ _______ _______ _____ _____    ______ ____
ROOT
ATOM      1  C   LIG    1       -1.187   1.624   0.017  0.00  0.00    +0.530 C 
ATOM      2  O   LIG    1       -2.229   1.003   0.018  0.00  0.00    -0.520 OA
ATOM      3  N   LIG    1       -0.011   0.966   0.007  0.00  0.00    -0.850 N 
ATOM      4  H   LIG    1        0.822   1.462   0.002  0.00  0.00    +0.400 HD
ATOM      5  H   LIG    1        0.002  -0.004   0.002  0.00  0.00    +0.410 HD
ENDROOT
BRANCH   1   6
ATOM      6  C   LIG    1       -1.208   3.131   0.025  0.00  0.00    +0.090 C 
BRANCH   6   8
ATOM      7  C   LIG    1       -2.746   5.517   0.045  0.00  0.00    +0.130 C 
ATOM      8  S   LIG    1       -2.926   3.712   0.036  0.00  0.00    -0.180 S 
ENDBRANCH   6   8
ENDBRANCH   1   6
TORSDOF 2
