REMARK  Name = ZINCtV000002EBco.0
REMARK                            x       y       z     vdW  Elec       q    Type
REMARK                         _______ _______ _______ _____ _____    ______ ____
ROOT
ATOM      1  C   LIG    1        4.328  -0.299   0.324  0.00  0.00    +0.090 C 
ATOM      2  C   LIG    1        3.987  -0.659   1.772  0.00  0.00    +0.000 C 
ENDROOT
BRANCH   2   3
ATOM      3  C   LIG    1        2.786   0.134   2.217  0.00  0.00    +0.540 C 
ATOM      4  N   LIG    1        2.931   1.416   2.606  0.00  0.00    -0.650 N 
ATOM      5  H   LIG    1        3.798   1.846   2.545  0.00  0.00    +0.410 HD
ATOM      6  O   LIG    1        1.688  -0.382   2.226  0.00  0.00    -0.500 OA
BRANCH   4   7
ATOM      7  C   LIG    1        1.833   2.125   3.097  0.00  0.00    +0.140 A 
ATOM      8  C   LIG    1        0.559   1.815   2.674  0.00  0.00    +0.030 A 
ATOM      9  C   LIG    1       -0.542   2.520   3.152  0.00  0.00    +0.030 A 
ATOM     10  C   LIG    1       -0.393   3.525   4.059  0.00  0.00    +0.010 A 
ATOM     11  C   LIG    1        0.889   3.873   4.516  0.00  0.00    -0.040 A 
ATOM     12  C   LIG    1        1.074   4.910   5.446  0.00  0.00    +0.030 A 
ATOM     13  C   LIG    1        2.330   5.221   5.868  0.00  0.00    +0.010 A 
ATOM     14  C   LIG    1        3.439   4.526   5.391  0.00  0.00    +0.020 A 
ATOM     15  C   LIG    1        3.298   3.515   4.490  0.00  0.00    +0.010 A 
ATOM     16  C   LIG    1        2.018   3.167   4.032  0.00  0.00    -0.060 A 
ENDBRANCH   4   7
ENDBRANCH   2   3
BRANCH   2  17
ATOM     17  S   LIG    1        3.618  -2.427   1.882  0.00  0.00    +0.170 S 
BRANCH  17  18
ATOM     18  C   LIG    1        5.194  -3.096   1.464  0.00  0.00    +0.030 A 
ATOM     19  N   LIG    1        6.271  -2.436   1.165  0.00  0.00    -0.260 NA
ATOM     20  N   LIG    1        7.413  -3.144   0.869  0.00  0.00    -0.300 N 
ATOM     21  C   LIG    1        7.320  -4.487   0.902  0.00  0.00    +0.220 A 
ATOM     22  S   LIG    1        8.553  -5.630   0.579  0.00  0.00    -0.390 S 
ATOM     23  S   LIG    1        5.636  -4.809   1.356  0.00  0.00    +0.160 S 
BRANCH  20  24
ATOM     24  C   LIG    1        8.613  -2.500   0.542  0.00  0.00    +0.100 A 
ATOM     25  C   LIG    1        9.792  -2.859   1.183  0.00  0.00    +0.100 A 
ATOM     26  C   LIG    1       10.974  -2.226   0.856  0.00  0.00    +0.010 A 
ATOM     27  C   LIG    1       10.984  -1.226  -0.102  0.00  0.00    +0.120 A 
ATOM     28  C   LIG    1        9.808  -0.863  -0.738  0.00  0.00    +0.000 A 
ATOM     29  F   LIG    1       12.141  -0.605  -0.417  0.00  0.00    -0.130 F 
ATOM     30  C   LIG    1        8.624  -1.497  -0.418  0.00  0.00    +0.080 A 
ENDBRANCH  20  24
ENDBRANCH  17  18
ENDBRANCH   2  17
TORSDOF 5
