REMARK  Name = ZINCnE000005ursN.0
REMARK                            x       y       z     vdW  Elec       q    Type
REMARK                         _______ _______ _______ _____ _____    ______ ____
ROOT
ATOM      1  N   LIG    1       -2.396   1.163   0.023  0.00  0.00    -1.050 N 
ATOM      2  H   LIG    1       -2.479   0.452  -0.631  0.00  0.00    +0.430 HD
ENDROOT
BRANCH   1  10
ATOM      3  O   LIG    1        4.503   3.980  -0.069  0.00  0.00    -0.470 OA
ATOM      4  C   LIG    1        3.363   3.555  -0.049  0.00  0.00    +0.520 A 
ATOM      5  N   LIG    1        2.240   4.273   0.046  0.00  0.00    -0.640 N 
ATOM      6  H   LIG    1        2.275   5.240   0.109  0.00  0.00    +0.420 HD
ATOM      7  C   LIG    1        1.025   3.606   0.053  0.00  0.00    +0.110 A 
ATOM      8  C   LIG    1       -0.261   4.159   0.143  0.00  0.00    +0.050 A 
ATOM      9  C   LIG    1       -1.376   3.355   0.136  0.00  0.00    +0.060 A 
ATOM     10  C   LIG    1       -1.256   1.973   0.035  0.00  0.00    +0.170 A 
ATOM     11  C   LIG    1        0.008   1.407  -0.051  0.00  0.00    +0.090 A 
ATOM     12  C   LIG    1        1.128   2.218  -0.044  0.00  0.00    -0.130 A 
ATOM     13  S   LIG    1        2.858   1.859  -0.141  0.00  0.00    -0.000 S 
ENDBRANCH   1  10
BRANCH   1  14
ATOM     14  S   LIG    1       -3.605   1.419   1.125  0.00  0.00    +2.710 S 
ATOM     15  O   LIG    1       -4.553   0.378   0.930  0.00  0.00    -0.950 OA
ATOM     16  O   LIG    1       -3.937   2.798   1.044  0.00  0.00    -0.980 OA
BRANCH  14  17
ATOM     17  C   LIG    1       -2.913   1.167   2.726  0.00  0.00    -0.800 A 
ATOM     18  C   LIG    1       -2.834   2.219   3.618  0.00  0.00    +0.170 A 
ATOM     19  C   LIG    1       -2.290   2.022   4.875  0.00  0.00    -0.170 A 
ATOM     20  C   LIG    1       -1.825   0.772   5.242  0.00  0.00    +0.100 A 
ATOM     21  C   LIG    1       -1.902  -0.283   4.352  0.00  0.00    -0.150 A 
ATOM     22 CL   LIG    1       -1.317  -1.852   4.812  0.00  0.00    -0.090 Cl
ATOM     23 CL   LIG    1       -2.192   3.346   5.994  0.00  0.00    -0.100 Cl
ATOM     24  C   LIG    1       -2.452  -0.089   3.093  0.00  0.00    +0.350 A 
ATOM     25  O   LIG    1       -2.534  -1.126   2.218  0.00  0.00    -0.650 OA
ENDBRANCH  14  17
ENDBRANCH   1  14
TORSDOF 3
