REMARK  Name = ZINCrD00000hQ7jK.0
REMARK                            x       y       z     vdW  Elec       q    Type
REMARK                         _______ _______ _______ _____ _____    ______ ____
ROOT
ATOM      1  C   LIG    1        4.157   3.052   1.262  0.00  0.00    +0.560 C 
ATOM      2  N   LIG    1        5.164   2.516   0.543  0.00  0.00    -0.600 N 
ATOM      3  C   LIG    1        5.503   1.093   0.650  0.00  0.00    +0.280 C 
ATOM      4  C   LIG    1        5.729   0.520  -0.727  0.00  0.00    -0.100 A 
ATOM      5  C   LIG    1        5.833  -0.859  -0.844  0.00  0.00    +0.040 A 
ATOM      6  C   LIG    1        6.064  -1.444  -2.071  0.00  0.00    -0.010 A 
ATOM      7  C   LIG    1        6.191  -0.646  -3.199  0.00  0.00    +0.110 A 
ATOM      8  C   LIG    1        6.081   0.729  -3.082  0.00  0.00    -0.020 A 
ATOM      9  C   LIG    1        5.846   1.316  -1.846  0.00  0.00    -0.060 A 
ATOM     10  C   LIG    1        5.728   2.816  -1.797  0.00  0.00    +0.080 C 
ATOM     11  C   LIG    1        4.354   0.346   1.330  0.00  0.00    +0.060 C 
ATOM     12  C   LIG    1        5.966   3.335  -0.380  0.00  0.00    +0.230 C 
ATOM     13  C   LIG    1        5.532   4.799  -0.284  0.00  0.00    +0.040 C 
ATOM     14  O   LIG    1        3.506   2.352   2.013  0.00  0.00    -0.510 OA
ENDROOT
BRANCH   1  18
ATOM     15  C   LIG    1        3.259   7.188   0.900  0.00  0.00    -0.100 A 
ATOM     16  C   LIG    1        4.059   6.745   1.938  0.00  0.00    +0.030 A 
ATOM     17  C   LIG    1        4.355   5.403   2.061  0.00  0.00    +0.030 A 
ATOM     18  C   LIG    1        3.844   4.492   1.136  0.00  0.00    -0.080 A 
ATOM     19  C   LIG    1        3.042   4.946   0.088  0.00  0.00    +0.040 A 
ATOM     20  C   LIG    1        2.750   6.290  -0.021  0.00  0.00    +0.030 A 
BRANCH  15  21
ATOM     21  C   LIG    1        2.940   8.655   0.772  0.00  0.00    +0.320 C 
BRANCH  21  23
ATOM     22  C   LIG    1        3.875  10.627  -0.311  0.00  0.00    +0.540 C 
ATOM     23  N   LIG    1        3.956   9.306  -0.058  0.00  0.00    -0.720 N 
ATOM     24  H   LIG    1        4.688   8.785  -0.426  0.00  0.00    +0.400 HD
ATOM     25  O   LIG    1        2.958  11.279   0.150  0.00  0.00    -0.540 OA
BRANCH  22  27
ATOM     26  C   LIG    1        4.816  12.584  -1.395  0.00  0.00    +0.150 C 
ATOM     27  C   LIG    1        4.896  11.280  -1.145  0.00  0.00    -0.090 C 
ENDBRANCH  22  27
ENDBRANCH  21  23
ENDBRANCH  15  21
ENDBRANCH   1  18
BRANCH   7  28
ATOM     28  O   LIG    1        6.423  -1.212  -4.413  0.00  0.00    -0.500 OA
ATOM     29  H   LIG    1        7.360  -1.317  -4.625  0.00  0.00    +0.390 HD
ENDBRANCH   7  28
TORSDOF 5
