REMARK  Name = ZINCpk00000y6tXd.0
REMARK                            x       y       z     vdW  Elec       q    Type
REMARK                         _______ _______ _______ _____ _____    ______ ____
ROOT
ATOM      1  N   LIG    1       -0.018   1.461   0.010  0.00  0.00    -0.710 N 
ATOM      2  H   LIG    1        0.816   1.957   0.005  0.00  0.00    +0.410 HD
ATOM      3  C   LIG    1       -1.194   2.119   0.019  0.00  0.00    +0.510 C 
ATOM      4  O   LIG    1       -2.236   1.498   0.021  0.00  0.00    -0.530 OA
ENDROOT
BRANCH   1   9
ATOM      5  C   LIG    1        1.346  -0.530   0.554  0.00  0.00    +0.150 C 
ATOM      6  C   LIG    1        1.953  -1.320  -0.627  0.00  0.00    +0.210 C 
ATOM      7  O   LIG    1        1.339  -0.753  -1.804  0.00  0.00    -0.360 OA
ATOM      8  C   LIG    1       -0.047  -0.538  -1.447  0.00  0.00    +0.200 C 
ATOM      9  C   LIG    1        0.002  -0.004   0.002  0.00  0.00    +0.230 C 
BRANCH   5  10
ATOM     10  O   LIG    1        2.197   0.557   0.920  0.00  0.00    -0.290 OA
BRANCH  10  14
ATOM     11  C   LIG    1        5.705   1.235   4.250  0.00  0.00    +0.370 C 
ATOM     12  N   LIG    1        4.646   0.631   3.437  0.00  0.00    -0.370 N 
ATOM     13  C   LIG    1        3.962   1.239   2.433  0.00  0.00    +0.210 A 
ATOM     14  C   LIG    1        3.075   0.340   1.939  0.00  0.00    -0.030 A 
ATOM     15  C   LIG    1        3.216  -0.849   2.666  0.00  0.00    +0.170 A 
ATOM     16  N   LIG    1        4.159  -0.677   3.558  0.00  0.00    -0.270 NA
ENDBRANCH  10  14
ENDBRANCH   5  10
ENDBRANCH   1   9
BRANCH   3  17
ATOM     17  C   LIG    1       -1.214   3.626   0.028  0.00  0.00    +0.140 C 
BRANCH  17  18
ATOM     18  C   LIG    1       -2.642   4.109   0.037  0.00  0.00    -0.160 A 
ATOM     19  C   LIG    1       -3.373   4.459  -1.033  0.00  0.00    +0.240 A 
ATOM     20  N   LIG    1       -4.625   4.845  -0.636  0.00  0.00    -0.590 N 
ATOM     21  H   LIG    1       -5.331   5.141  -1.231  0.00  0.00    +0.420 HD
ATOM     22  C   LIG    1       -4.732   4.749   0.733  0.00  0.00    +0.100 A 
ATOM     23  C   LIG    1       -5.759   5.010   1.634  0.00  0.00    -0.010 A 
ATOM     24  C   LIG    1       -5.559   4.798   2.981  0.00  0.00    +0.020 A 
ATOM     25  C   LIG    1       -4.337   4.337   3.450  0.00  0.00    -0.030 A 
ATOM     26  C   LIG    1       -3.313   4.078   2.584  0.00  0.00    +0.050 A 
ATOM     27  C   LIG    1       -3.497   4.279   1.214  0.00  0.00    -0.090 A 
ENDBRANCH  17  18
ENDBRANCH   3  17
TORSDOF 5
