REMARK  Name = ZINCvU00000003Id.0
REMARK                            x       y       z     vdW  Elec       q    Type
REMARK                         _______ _______ _______ _____ _____    ______ ____
ROOT
ATOM      1  C   LIG    1        0.842   9.403   0.042  0.00  0.00    -0.100 A 
ATOM      2  C   LIG    1        2.171   9.022   0.028  0.00  0.00    +0.030 A 
ATOM      3  C   LIG    1        2.509   7.684   0.018  0.00  0.00    +0.060 A 
ATOM      4  C   LIG    1        1.507   6.716   0.023  0.00  0.00    -0.010 A 
ATOM      5  C   LIG    1        0.169   7.105   0.032  0.00  0.00    +0.070 A 
ATOM      6  C   LIG    1       -0.157   8.446   0.047  0.00  0.00    +0.030 A 
ENDROOT
BRANCH   4   7
ATOM      7  C   LIG    1        1.863   5.275   0.012  0.00  0.00    +0.220 A 
ATOM      8  N   LIG    1        3.073   4.776  -0.003  0.00  0.00    -0.370 NA
ATOM      9  O   LIG    1        3.030   3.564  -0.009  0.00  0.00    +0.110 OA
ATOM     10  C   LIG    1        1.752   3.152   0.002  0.00  0.00    +0.280 A 
ATOM     11  N   LIG    1        1.000   4.238   0.009  0.00  0.00    -0.460 NA
BRANCH  10  12
ATOM     12  C   LIG    1        1.279   1.754  -0.001  0.00  0.00    +0.030 A 
ATOM     13  C   LIG    1       -0.016   1.340   0.009  0.00  0.00    +0.260 A 
ATOM     14  O   LIG    1        0.002  -0.004   0.002  0.00  0.00    -0.180 OA
ATOM     15  C   LIG    1        1.281  -0.405  -0.012  0.00  0.00    +0.230 A 
ATOM     16  N   LIG    1        2.056   0.638  -0.014  0.00  0.00    -0.460 NA
BRANCH  15  17
ATOM     17  C   LIG    1        1.746  -1.838  -0.024  0.00  0.00    +0.120 C 
ATOM     18  C   LIG    1        1.150  -2.578  -1.240  0.00  0.00    +0.030 C 
ATOM     19  C   LIG    1        0.847  -4.000  -0.708  0.00  0.00    +0.020 C 
ATOM     20  C   LIG    1        0.343  -3.727   0.731  0.00  0.00    +0.010 C 
ATOM     21  C   LIG    1        1.233  -2.569   1.230  0.00  0.00    +0.030 C 
ENDBRANCH  15  17
ENDBRANCH  10  12
ENDBRANCH   4   7
BRANCH   1  22
ATOM     22  C   LIG    1        0.479  10.866   0.051  0.00  0.00    +0.360 C 
BRANCH  22  30
ATOM     23  C   LIG    1       -2.634  11.400  -4.171  0.00  0.00    +0.000 A 
ATOM     24  C   LIG    1       -2.975  10.820  -2.957  0.00  0.00    +0.030 A 
ATOM     25  C   LIG    1       -2.054  10.748  -1.933  0.00  0.00    +0.010 A 
ATOM     26  C   LIG    1       -0.776  11.254  -2.122  0.00  0.00    +0.050 A 
ATOM     27  C   LIG    1       -0.432  11.846  -3.349  0.00  0.00    +0.040 A 
ATOM     28  N   LIG    1        0.859  12.252  -3.245  0.00  0.00    -0.490 NA
ATOM     29  C   LIG    1        1.315  11.959  -2.062  0.00  0.00    +0.470 A 
ATOM     30  N   LIG    1        0.349  11.345  -1.327  0.00  0.00    -0.490 N 
ATOM     31  C   LIG    1       -1.382  11.908  -4.372  0.00  0.00    +0.070 A 
ENDBRANCH  22  30
ENDBRANCH   1  22
TORSDOF 5
