REMARK  Name = ZINCpe000000VPeL.0
REMARK                            x       y       z     vdW  Elec       q    Type
REMARK                         _______ _______ _______ _____ _____    ______ ____
ROOT
ATOM      1  S   LIG    1       -4.826  -2.929  -0.225  0.00  0.00    +2.700 S 
ATOM      2  O   LIG    1       -5.330  -3.155  -1.535  0.00  0.00    -0.940 OA
ATOM      3  O   LIG    1       -5.662  -2.760   0.911  0.00  0.00    -0.940 OA
ENDROOT
BRANCH   1   7
ATOM      4  N   LIG    1       -1.368  -0.510  -0.108  0.00  0.00    -0.590 N 
ATOM      5  C   LIG    1       -2.100  -0.758   1.127  0.00  0.00    +0.280 C 
ATOM      6  C   LIG    1       -3.610  -0.746   0.872  0.00  0.00    +0.320 C 
ATOM      7  N   LIG    1       -3.880  -1.572  -0.316  0.00  0.00    -1.000 NA
ATOM      8  C   LIG    1       -3.276  -1.144  -1.587  0.00  0.00    +0.350 C 
ATOM      9  C   LIG    1       -1.857  -0.717  -1.332  0.00  0.00    +0.510 C 
ATOM     10  O   LIG    1       -1.122  -0.553  -2.283  0.00  0.00    -0.540 OA
BRANCH   4  11
ATOM     11  C   LIG    1        0.002  -0.004   0.002  0.00  0.00    +0.310 C 
BRANCH  11  12
ATOM     12  C   LIG    1       -0.019   1.526   0.010  0.00  0.00    +0.160 C 
BRANCH  12  14
ATOM     13  C   LIG    1       -0.762   3.410   1.292  0.00  0.00    +0.200 C 
ATOM     14  O   LIG    1       -0.688   1.987   1.186  0.00  0.00    -0.390 OA
ENDBRANCH  12  14
ENDBRANCH  11  12
ENDBRANCH   4  11
ENDBRANCH   1   7
BRANCH   1  15
ATOM     15  C   LIG    1       -3.760  -4.284   0.138  0.00  0.00    -0.670 A 
ATOM     16  C   LIG    1       -3.188  -5.008  -0.890  0.00  0.00    +0.150 A 
ATOM     17  C   LIG    1       -2.345  -6.071  -0.603  0.00  0.00    +0.100 A 
ATOM     18  C   LIG    1       -2.087  -6.412   0.717  0.00  0.00    +0.110 A 
ATOM     19  C   LIG    1       -2.666  -5.689   1.742  0.00  0.00    -0.180 A 
ATOM     20  C   LIG    1       -3.501  -4.626   1.453  0.00  0.00    +0.180 A 
BRANCH  19  21
ATOM     21  C   LIG    1       -2.385  -6.059   3.175  0.00  0.00    +0.510 C 
ATOM     22  F   LIG    1       -2.455  -4.912   3.975  0.00  0.00    -0.170 F 
ATOM     23  F   LIG    1       -1.106  -6.617   3.272  0.00  0.00    -0.170 F 
ATOM     24  F   LIG    1       -3.334  -6.990   3.611  0.00  0.00    -0.170 F 
ENDBRANCH  19  21
BRANCH  17  25
ATOM     25  O   LIG    1       -1.777  -6.781  -1.613  0.00  0.00    -0.490 OA
ATOM     26  H   LIG    1       -2.306  -7.534  -1.911  0.00  0.00    +0.400 HD
ENDBRANCH  17  25
ENDBRANCH   1  15
TORSDOF 7
