REMARK  Name = ZINCqH0000000fhe.0
REMARK                            x       y       z     vdW  Elec       q    Type
REMARK                         _______ _______ _______ _____ _____    ______ ____
ROOT
ATOM      1  N   LIG    1       -1.956   3.989  -0.957  0.00  0.00    -0.600 N 
ATOM      2  C   LIG    1       -3.252   3.732  -0.695  0.00  0.00    +0.530 C 
ATOM      3  O   LIG    1       -4.058   3.692  -1.601  0.00  0.00    -0.490 OA
ENDROOT
BRANCH   2   4
ATOM      4  C   LIG    1       -3.702   3.493   0.723  0.00  0.00    +0.160 C 
ATOM      5  C   LIG    1       -3.239   2.103   1.183  0.00  0.00    +0.290 C 
ATOM      6  N   LIG    1       -3.741   1.898   2.552  0.00  0.00    -0.560 N 
ATOM      7  C   LIG    1       -5.054   2.311   2.835  0.00  0.00    +0.070 A 
ATOM      8  C   LIG    1       -5.677   1.896   4.001  0.00  0.00    +0.050 A 
ATOM      9  C   LIG    1       -6.968   2.308   4.276  0.00  0.00    +0.000 A 
ATOM     10  C   LIG    1       -7.636   3.131   3.390  0.00  0.00    +0.030 A 
ATOM     11  C   LIG    1       -7.020   3.548   2.225  0.00  0.00    +0.020 A 
ATOM     12  C   LIG    1       -5.726   3.139   1.940  0.00  0.00    +0.090 A 
ATOM     13  C   LIG    1       -2.967   1.333   3.501  0.00  0.00    +0.520 C 
ATOM     14  O   LIG    1       -3.423   1.116   4.604  0.00  0.00    -0.510 OA
ATOM     15  C   LIG    1       -1.537   0.973   3.191  0.00  0.00    +0.120 C 
ATOM     16  O   LIG    1       -5.129   3.549   0.790  0.00  0.00    -0.280 OA
ENDBRANCH   2   4
BRANCH   1  17
ATOM     17  C   LIG    1       -1.533   4.303  -2.324  0.00  0.00    +0.330 C 
BRANCH  17  19
ATOM     18  C   LIG    1       -0.545   6.436  -2.985  0.00  0.00    +0.030 C 
ATOM     19  C   LIG    1       -1.596   5.793  -2.541  0.00  0.00    -0.070 C 
ENDBRANCH  17  19
ENDBRANCH   1  17
BRANCH   1  20
ATOM     20  C   LIG    1       -0.969   3.956   0.125  0.00  0.00    +0.380 C 
BRANCH  20  21
ATOM     21  C   LIG    1       -0.744   5.353   0.643  0.00  0.00    -0.210 A 
ATOM     22  C   LIG    1       -1.397   5.909   1.664  0.00  0.00    +0.030 A 
ATOM     23  C   LIG    1       -1.016   7.206   1.964  0.00  0.00    +0.030 A 
ATOM     24  C   LIG    1       -0.060   7.707   1.177  0.00  0.00    -0.150 A 
ATOM     25 CL   LIG    1        0.610   9.303   1.309  0.00  0.00    -0.010 Cl
ATOM     26  S   LIG    1        0.415   6.502  -0.013  0.00  0.00    +0.190 S 
ENDBRANCH  20  21
ENDBRANCH   1  20
TORSDOF 5
