REMARK  Name = ZINCnE000004RfLl.0
REMARK                            x       y       z     vdW  Elec       q    Type
REMARK                         _______ _______ _______ _____ _____    ______ ____
ROOT
ATOM      1  C   LIG    1        1.204   6.385  -0.245  0.00  0.00    +0.150 A 
ATOM      2  C   LIG    1        0.025   5.703  -0.141  0.00  0.00    -0.100 A 
ATOM      3  C   LIG    1        0.004   4.314  -0.060  0.00  0.00    +0.080 A 
ATOM      4  C   LIG    1        1.175   3.588  -0.080  0.00  0.00    +0.080 A 
ATOM      5  C   LIG    1        2.409   4.263  -0.180  0.00  0.00    -0.020 A 
ATOM      6  C   LIG    1        3.624   3.560  -0.211  0.00  0.00    -0.010 A 
ATOM      7  C   LIG    1        4.797   4.244  -0.314  0.00  0.00    +0.020 A 
ATOM      8  C   LIG    1        4.811   5.634  -0.396  0.00  0.00    -0.020 A 
ATOM      9  C   LIG    1        3.652   6.349  -0.375  0.00  0.00    +0.080 A 
ATOM     10  C   LIG    1        2.423   5.677  -0.269  0.00  0.00    -0.070 A 
ENDROOT
BRANCH   4  11
ATOM     11  N   LIG    1        1.139   2.192   0.003  0.00  0.00    -0.660 N 
ATOM     12  H   LIG    1        1.842   1.717   0.473  0.00  0.00    +0.410 HD
ATOM     13  C   LIG    1        0.130   1.508  -0.571  0.00  0.00    +0.510 C 
ATOM     14  O   LIG    1       -0.788   2.106  -1.092  0.00  0.00    -0.520 OA
BRANCH  13  15
ATOM     15  C   LIG    1        0.144   0.001  -0.569  0.00  0.00    +0.060 C 
BRANCH  15  16
ATOM     16  C   LIG    1       -1.107  -0.521  -1.278  0.00  0.00    +0.000 C 
ATOM     17  C   LIG    1       -2.332  -0.642  -0.357  0.00  0.00    +0.010 C 
ATOM     18  C   LIG    1       -2.648  -1.962  -1.084  0.00  0.00    +0.010 C 
ATOM     19  C   LIG    1       -1.147  -2.053  -1.406  0.00  0.00    +0.010 C 
ENDBRANCH  15  16
ENDBRANCH  13  15
ENDBRANCH   4  11
BRANCH   1  20
ATOM     20  O   LIG    1        1.202   7.742  -0.323  0.00  0.00    -0.270 OA
BRANCH  20  21
ATOM     21  C   LIG    1       -0.070   8.392  -0.292  0.00  0.00    +0.110 C 
BRANCH  21  23
ATOM     22  O   LIG    1        1.249  10.346  -0.476  0.00  0.00    -0.670 OA
ATOM     23  C   LIG    1        0.125   9.883  -0.389  0.00  0.00    +0.500 C 
ATOM     24  O   LIG    1       -0.842  10.626  -0.379  0.00  0.00    -0.690 OA
ENDBRANCH  21  23
ENDBRANCH  20  21
ENDBRANCH   1  20
TORSDOF 6
