REMARK  Name = ZINCrD00000yRYmy.0
REMARK                            x       y       z     vdW  Elec       q    Type
REMARK                         _______ _______ _______ _____ _____    ______ ____
ROOT
ATOM      1  N   LIG    1       -0.128   1.425  -0.075  0.00  0.00    -0.490 N 
ATOM      2  C   LIG    1        1.282   1.818  -0.071  0.00  0.00    +0.240 C 
ATOM      3  C   LIG    1        2.025   0.972   0.970  0.00  0.00    +0.040 C 
ATOM      4  C   LIG    1        2.054  -0.474   0.468  0.00  0.00    +0.080 C 
ATOM      5  C   LIG    1        0.678  -0.878   0.003  0.00  0.00    -0.090 A 
ATOM      6  C   LIG    1        0.421  -2.228  -0.181  0.00  0.00    +0.030 A 
ATOM      7  C   LIG    1       -0.820  -2.652  -0.619  0.00  0.00    +0.090 A 
ATOM      8  C   LIG    1       -1.814  -1.723  -0.876  0.00  0.00    +0.010 A 
ATOM      9  C   LIG    1       -1.564  -0.380  -0.692  0.00  0.00    +0.050 A 
ATOM     10  F   LIG    1       -1.061  -3.969  -0.797  0.00  0.00    -0.140 F 
ATOM     11  C   LIG    1       -0.315   0.053  -0.248  0.00  0.00    +0.110 A 
ENDROOT
BRANCH   4  12
ATOM     12  C   LIG    1        2.493  -1.384   1.587  0.00  0.00    +0.480 C 
ATOM     13  O   LIG    1        2.751  -0.923   2.674  0.00  0.00    -0.490 OA
BRANCH  12  14
ATOM     14  O   LIG    1        2.597  -2.705   1.376  0.00  0.00    -0.350 OA
BRANCH  14  15
ATOM     15  C   LIG    1        3.024  -3.520   2.498  0.00  0.00    +0.120 C 
ATOM     16  C   LIG    1        4.412  -3.067   2.958  0.00  0.00    +0.030 C 
ATOM     17  C   LIG    1        3.083  -4.988   2.070  0.00  0.00    +0.080 C 
ATOM     18  C   LIG    1        2.029  -3.365   3.650  0.00  0.00    +0.030 C 
ENDBRANCH  14  15
ENDBRANCH  12  14
ENDBRANCH   4  12
BRANCH   1  19
ATOM     19  C   LIG    1       -0.810   1.901   1.136  0.00  0.00    +0.250 C 
BRANCH  19  24
ATOM     20  C   LIG    1        0.345   7.447   1.916  0.00  0.00    +0.330 C 
ATOM     21  N   LIG    1        0.044   6.028   1.714  0.00  0.00    -0.500 N 
ATOM     22  C   LIG    1        0.897   5.086   2.193  0.00  0.00    +0.290 A 
ATOM     23  C   LIG    1        0.638   3.769   2.023  0.00  0.00    -0.080 A 
ATOM     24  C   LIG    1       -0.516   3.365   1.336  0.00  0.00    +0.010 A 
ATOM     25  C   LIG    1       -1.371   4.313   0.856  0.00  0.00    -0.060 A 
ATOM     26  C   LIG    1       -1.075   5.672   1.055  0.00  0.00    +0.510 A 
ATOM     27  O   LIG    1       -1.832   6.530   0.631  0.00  0.00    -0.550 OA
ENDBRANCH  19  24
ENDBRANCH   1  19
TORSDOF 5
