REMARK  Name = ZINCqH00000045Vg.0
REMARK                            x       y       z     vdW  Elec       q    Type
REMARK                         _______ _______ _______ _____ _____    ______ ____
ROOT
ATOM      1  N   LIG    1       -0.546   1.525   1.197  0.00  0.00    -0.720 N 
ATOM      2  H   LIG    1       -0.973   2.393   1.124  0.00  0.00    +0.400 HD
ATOM      3  C   LIG    1       -0.586   0.851   2.363  0.00  0.00    +0.520 C 
ATOM      4  O   LIG    1       -0.140  -0.275   2.428  0.00  0.00    -0.530 OA
ENDROOT
BRANCH   1   5
ATOM      5  C   LIG    1        0.140   0.947   0.039  0.00  0.00    +0.290 C 
BRANCH   5   6
ATOM      6  C   LIG    1       -0.441   1.520  -1.228  0.00  0.00    -0.130 A 
ATOM      7  C   LIG    1       -0.776   2.861  -1.288  0.00  0.00    +0.050 A 
ATOM      8  C   LIG    1       -1.303   3.390  -2.450  0.00  0.00    -0.070 A 
ATOM      9  C   LIG    1       -1.507   2.574  -3.553  0.00  0.00    +0.130 A 
ATOM     10  C   LIG    1       -1.175   1.228  -3.488  0.00  0.00    -0.020 A 
ATOM     11  C   LIG    1       -0.643   0.705  -2.326  0.00  0.00    +0.070 A 
BRANCH   9  12
ATOM     12  O   LIG    1       -2.030   3.092  -4.695  0.00  0.00    -0.320 OA
ATOM     13  C   LIG    1       -2.348   4.485  -4.690  0.00  0.00    +0.250 C 
ENDBRANCH   9  12
ENDBRANCH   5   6
BRANCH   5  15
ATOM     14  C   LIG    1        2.248   0.591   1.333  0.00  0.00    +0.010 C 
ATOM     15  C   LIG    1        1.632   1.278   0.112  0.00  0.00    +0.020 C 
ENDBRANCH   5  15
ENDBRANCH   1   5
BRANCH   3  16
ATOM     16  C   LIG    1       -1.184   1.496   3.587  0.00  0.00    +0.240 C 
BRANCH  16  17
ATOM     17  N   LIG    1       -0.744   0.774   4.784  0.00  0.00    -0.710 N 
ATOM     18  H   LIG    1       -0.480  -0.157   4.719  0.00  0.00    +0.410 HD
ATOM     19  C   LIG    1       -0.707   1.404   5.974  0.00  0.00    +0.600 C 
ATOM     20  O   LIG    1       -1.039   2.572   6.056  0.00  0.00    -0.520 OA
BRANCH  19  21
ATOM     21  C   LIG    1       -0.268   0.682   7.172  0.00  0.00    -0.270 A 
ATOM     22  C   LIG    1       -0.187   1.208   8.430  0.00  0.00    +0.100 A 
ATOM     23  C   LIG    1        0.257   0.308   9.369  0.00  0.00    +0.000 A 
ATOM     24  C   LIG    1        0.531  -0.914   8.898  0.00  0.00    -0.060 A 
ATOM     25  S   LIG    1        0.233  -1.003   7.221  0.00  0.00    +0.210 S 
ENDBRANCH  19  21
ENDBRANCH  16  17
BRANCH  16  26
ATOM     26  C   LIG    1       -2.710   1.449   3.494  0.00  0.00    -0.020 C 
ATOM     27  C   LIG    1       -3.317   2.226   4.664  0.00  0.00    +0.040 C 
ATOM     28  C   LIG    1       -3.180  -0.006   3.551  0.00  0.00    +0.030 C 
ENDBRANCH  16  26
ENDBRANCH   3  16
TORSDOF 8
