REMARK  Name = ZINCpe00000MJMDC.0
REMARK                            x       y       z     vdW  Elec       q    Type
REMARK                         _______ _______ _______ _____ _____    ______ ____
ROOT
ATOM      1  C   LIG    1        2.231   6.134  -2.243  0.00  0.00    +0.500 C 
ATOM      2  N   LIG    1        2.190   5.282  -1.199  0.00  0.00    -0.710 N 
ATOM      3  H   LIG    1        1.346   5.096  -0.758  0.00  0.00    +0.410 HD
ATOM      4  O   LIG    1        3.286   6.367  -2.794  0.00  0.00    -0.500 OA
ENDROOT
BRANCH   2   5
ATOM      5  C   LIG    1        3.419   4.638  -0.730  0.00  0.00    +0.240 C 
ATOM      6  C   LIG    1        4.103   5.497   0.357  0.00  0.00    +0.210 C 
ATOM      7  O   LIG    1        4.637   4.543   1.300  0.00  0.00    -0.360 OA
ATOM      8  C   LIG    1        3.620   3.524   1.427  0.00  0.00    +0.210 C 
ATOM      9  C   LIG    1        3.095   3.311  -0.010  0.00  0.00    +0.150 C 
BRANCH   9  10
ATOM     10  O   LIG    1        1.685   3.079   0.002  0.00  0.00    -0.290 OA
BRANCH  10  11
ATOM     11  C   LIG    1        1.270   1.782  -0.001  0.00  0.00    -0.030 A 
ATOM     12  C   LIG    1       -0.016   1.355   0.009  0.00  0.00    +0.220 A 
ATOM     13  N   LIG    1        0.002  -0.004   0.002  0.00  0.00    -0.470 N 
ATOM     14  H   LIG    1       -0.774  -0.586   0.006  0.00  0.00    +0.450 HD
ATOM     15  N   LIG    1        1.341  -0.415  -0.013  0.00  0.00    -0.260 NA
ATOM     16  C   LIG    1        2.099   0.652  -0.015  0.00  0.00    +0.190 A 
ENDBRANCH  10  11
ENDBRANCH   9  10
ENDBRANCH   2   5
BRANCH   1  17
ATOM     17  C   LIG    1        0.966   6.796  -2.725  0.00  0.00    +0.380 C 
BRANCH  17  21
ATOM     18  C   LIG    1        0.911   8.896  -7.276  0.00  0.00    +0.130 C 
ATOM     19  C   LIG    1        1.255   8.587  -5.841  0.00  0.00    -0.190 A 
ATOM     20  C   LIG    1        0.694   7.619  -5.079  0.00  0.00    +0.250 A 
ATOM     21  N   LIG    1        1.274   7.668  -3.861  0.00  0.00    -0.350 N 
ATOM     22  N   LIG    1        2.218   8.703  -3.874  0.00  0.00    -0.200 NA
ATOM     23  C   LIG    1        2.209   9.250  -5.063  0.00  0.00    -0.020 A 
BRANCH  23  24
ATOM     24  C   LIG    1        3.074  10.399  -5.513  0.00  0.00    +0.560 C 
ATOM     25  F   LIG    1        3.314  10.290  -6.887  0.00  0.00    -0.160 F 
ATOM     26  F   LIG    1        4.290  10.366  -4.823  0.00  0.00    -0.170 F 
ATOM     27  F   LIG    1        2.420  11.607  -5.248  0.00  0.00    -0.170 F 
ENDBRANCH  23  24
ENDBRANCH  17  21
ENDBRANCH   1  17
TORSDOF 6
