REMARK  Name = ZINCbw0000001gUk.0
REMARK                            x       y       z     vdW  Elec       q    Type
REMARK                         _______ _______ _______ _____ _____    ______ ____
ROOT
ATOM      1  C   LIG    1       -0.017   1.378   0.010  0.00  0.00    -0.070 A 
ATOM      2  C   LIG    1        0.002  -0.004   0.002  0.00  0.00    +0.040 A 
ATOM      3  C   LIG    1        1.208  -0.679  -0.013  0.00  0.00    +0.020 A 
ATOM      4  C   LIG    1        2.397   0.027  -0.020  0.00  0.00    +0.020 A 
ATOM      5  C   LIG    1        2.379   1.409  -0.012  0.00  0.00    +0.030 A 
ATOM      6  C   LIG    1        1.172   2.086   0.002  0.00  0.00    -0.030 A 
ATOM      7 CL   LIG    1        1.150   3.821   0.011  0.00  0.00    -0.060 Cl
ENDROOT
BRANCH   1   9
ATOM      8  C   LIG    1       -2.135   1.740  -1.228  0.00  0.00    +0.070 C 
ATOM      9  C   LIG    1       -1.332   2.114   0.020  0.00  0.00    -0.020 C 
BRANCH   9  10
ATOM     10  C   LIG    1       -2.111   1.732   1.252  0.00  0.00    +0.450 C 
ATOM     11  O   LIG    1       -2.427   2.579   2.053  0.00  0.00    -0.450 OA
ENDBRANCH   9  10
ENDBRANCH   1   9
TORSDOF 2
