REMARK  Name = ZINCwl0000000jOf.0
REMARK                            x       y       z     vdW  Elec       q    Type
REMARK                         _______ _______ _______ _____ _____    ______ ____
ROOT
ATOM      1  C   LIG    1       -4.122   4.861  -1.563  0.00  0.00    +0.720 C 
ENDROOT
BRANCH   1   2
ATOM      2  N   LIG    1       -4.798   5.350  -0.562  0.00  0.00    -0.660 NA
ATOM      3  H   LIG    1       -5.634   5.816  -0.723  0.00  0.00    +0.440 HD
BRANCH   2   4
ATOM      4  C   LIG    1       -4.297   5.196   0.805  0.00  0.00    +0.290 C 
BRANCH   4   5
ATOM      5  C   LIG    1       -5.205   5.961   1.770  0.00  0.00    +0.040 C 
BRANCH   5   6
ATOM      6  C   LIG    1       -4.681   5.800   3.199  0.00  0.00    +0.190 C 
BRANCH   6   7
ATOM      7  O   LIG    1       -5.529   6.515   4.101  0.00  0.00    -0.390 OA
BRANCH   7   9
ATOM      8  C   LIG    1       -6.101   7.226   6.338  0.00  0.00    +0.060 C 
ATOM      9  C   LIG    1       -5.126   6.429   5.469  0.00  0.00    +0.160 C 
ENDBRANCH   7   9
ENDBRANCH   6   7
ENDBRANCH   5   6
ENDBRANCH   4   5
ENDBRANCH   2   4
ENDBRANCH   1   2
BRANCH   1  10
ATOM     10  N   LIG    1       -2.995   4.108  -1.329  0.00  0.00    -0.690 NA
ATOM     11  H   LIG    1       -2.746   3.877  -0.421  0.00  0.00    +0.430 HD
BRANCH  10  12
ATOM     12  C   LIG    1       -2.171   3.654  -2.452  0.00  0.00    +0.350 C 
BRANCH  12  13
ATOM     13  C   LIG    1       -0.942   2.960  -1.925  0.00  0.00    -0.180 A 
ATOM     14  C   LIG    1        0.206   3.688  -1.670  0.00  0.00    +0.080 A 
ATOM     15  C   LIG    1        1.336   3.053  -1.192  0.00  0.00    -0.010 A 
ATOM     16  C   LIG    1        1.315   1.686  -0.957  0.00  0.00    +0.160 A 
ATOM     17  C   LIG    1        0.160   0.959  -1.208  0.00  0.00    -0.070 A 
ATOM     18  C   LIG    1       -0.965   1.598  -1.692  0.00  0.00    +0.080 A 
BRANCH  16  19
ATOM     19  O   LIG    1        2.423   1.061  -0.480  0.00  0.00    -0.310 OA
ATOM     20  C   LIG    1        2.329  -0.348  -0.262  0.00  0.00    +0.250 C 
ENDBRANCH  16  19
ENDBRANCH  12  13
ENDBRANCH  10  12
ENDBRANCH   1  10
BRANCH   1  21
ATOM     21  N   LIG    1       -4.535   5.097  -2.853  0.00  0.00    -0.690 NA
ATOM     22  H   LIG    1       -4.032   4.733  -3.598  0.00  0.00    +0.440 HD
BRANCH  21  23
ATOM     23  C   LIG    1       -5.735   5.899  -3.103  0.00  0.00    +0.320 C 
BRANCH  23  24
ATOM     24  C   LIG    1       -5.971   6.009  -4.610  0.00  0.00    -0.370 C 
BRANCH  24  25
ATOM     25  S   LIG    1       -7.457   7.002  -4.919  0.00  0.00    +2.610 S 
ATOM     26  O   LIG    1       -7.236   8.358  -4.554  0.00  0.00    -0.930 OA
ATOM     27  O   LIG    1       -8.620   6.308  -4.487  0.00  0.00    -0.930 OA
BRANCH  25  28
ATOM     28  N   LIG    1       -7.593   7.040  -6.569  0.00  0.00    -0.990 NA
ATOM     29  C   LIG    1       -6.955   8.107  -7.357  0.00  0.00    +0.280 C 
ATOM     30  C   LIG    1       -6.144   7.449  -8.485  0.00  0.00    +0.130 C 
ATOM     31  O   LIG    1       -6.988   6.546  -9.205  0.00  0.00    -0.360 OA
ATOM     32  C   LIG    1       -7.486   5.459  -8.420  0.00  0.00    +0.190 C 
ATOM     33  C   LIG    1       -6.313   4.680  -7.824  0.00  0.00    +0.000 C 
ATOM     34  C   LIG    1       -5.624   8.529  -9.435  0.00  0.00    +0.070 C 
ATOM     35  C   LIG    1       -8.361   6.012  -7.290  0.00  0.00    +0.280 C 
ENDBRANCH  25  28
ENDBRANCH  24  25
ENDBRANCH  23  24
ENDBRANCH  21  23
ENDBRANCH   1  21
TORSDOF 15
