REMARK  Name = ZINCrD00000F5Lzg.0
REMARK                            x       y       z     vdW  Elec       q    Type
REMARK                         _______ _______ _______ _____ _____    ______ ____
ROOT
ATOM      1  C   LIG    1       -4.870   1.034   0.242  0.00  0.00    -0.200 A 
ATOM      2  C   LIG    1       -5.049  -0.319   0.250  0.00  0.00    +0.280 A 
ATOM      3  O   LIG    1       -6.355  -0.570   0.369  0.00  0.00    -0.140 OA
ATOM      4  C   LIG    1       -7.062   0.575   0.442  0.00  0.00    -0.040 A 
ATOM      5  C   LIG    1       -8.473   1.097   0.575  0.00  0.00    +0.390 C 
ATOM      6  N   LIG    1       -8.403   2.563   0.578  0.00  0.00    -0.620 N 
ATOM      7  C   LIG    1       -9.436   3.424   0.679  0.00  0.00    +0.630 C 
ATOM      8  O   LIG    1       -9.231   4.623   0.668  0.00  0.00    -0.510 OA
ATOM      9  C   LIG    1       -6.981   2.903   0.449  0.00  0.00    +0.380 C 
ATOM     10  C   LIG    1       -6.215   1.609   0.376  0.00  0.00    -0.140 A 
ENDROOT
BRANCH   7  11
ATOM     11  C   LIG    1      -10.805   2.914   0.802  0.00  0.00    -0.280 A 
ATOM     12  C   LIG    1      -11.929   3.683   0.911  0.00  0.00    -0.010 A 
ATOM     13  C   LIG    1      -13.085   2.944   1.012  0.00  0.00    +0.020 A 
ATOM     14  C   LIG    1      -12.914   1.617   0.987  0.00  0.00    -0.060 A 
ATOM     15  S   LIG    1      -11.263   1.217   0.826  0.00  0.00    +0.210 S 
BRANCH  12  16
ATOM     16  C   LIG    1      -11.906   5.189   0.919  0.00  0.00    +0.270 C 
BRANCH  16  17
ATOM     17  O   LIG    1      -13.240   5.686   1.045  0.00  0.00    -0.570 OA
ATOM     18  H   LIG    1      -13.301   6.651   1.057  0.00  0.00    +0.390 HD
ENDBRANCH  16  17
ENDBRANCH  12  16
ENDBRANCH   7  11
BRANCH   1  20
ATOM     19  O   LIG    1       -3.588   2.980   0.137  0.00  0.00    -0.500 OA
ATOM     20  C   LIG    1       -3.595   1.764   0.130  0.00  0.00    +0.590 C 
ATOM     21  N   LIG    1       -2.436   1.084   0.019  0.00  0.00    -0.670 N 
ATOM     22  H   LIG    1       -2.447   0.118  -0.064  0.00  0.00    +0.410 HD
BRANCH  21  23
ATOM     23  C   LIG    1       -1.218   1.772   0.023  0.00  0.00    +0.110 A 
ATOM     24  C   LIG    1       -1.069   2.939   0.768  0.00  0.00    +0.090 A 
ATOM     25  C   LIG    1        0.158   3.582   0.746  0.00  0.00    +0.040 A 
ATOM     26  C   LIG    1        1.185   3.051  -0.014  0.00  0.00    +0.100 A 
ATOM     27  N   LIG    1        1.009   1.946  -0.714  0.00  0.00    -0.440 NA
ATOM     28 BR   LIG    1        2.864   3.922  -0.052  0.00  0.00    -0.000 Br
ATOM     29  C   LIG    1       -0.142   1.304  -0.720  0.00  0.00    +0.260 A 
ENDBRANCH  21  23
ENDBRANCH   1  20
TORSDOF 5
