REMARK  Name = ZINCrH000004tZcx.0
REMARK                            x       y       z     vdW  Elec       q    Type
REMARK                         _______ _______ _______ _____ _____    ______ ____
ROOT
ATOM      1  N   LIG    1        4.187   7.357  -0.024  0.00  0.00    -0.460 N 
ATOM      2  C   LIG    1        4.157   8.136   1.112  0.00  0.00    +0.120 A 
ATOM      3  C   LIG    1        3.923   7.856   2.454  0.00  0.00    -0.020 A 
ATOM      4  C   LIG    1        3.960   8.873   3.383  0.00  0.00    +0.030 A 
ATOM      5  C   LIG    1        4.230  10.178   2.994  0.00  0.00    -0.030 A 
ATOM      6  C   LIG    1        4.463  10.477   1.682  0.00  0.00    +0.050 A 
ATOM      7  C   LIG    1        4.430   9.461   0.722  0.00  0.00    -0.100 A 
ATOM      8  C   LIG    1        4.627   9.430  -0.726  0.00  0.00    -0.020 A 
ATOM      9  C   LIG    1        4.476   8.140  -1.118  0.00  0.00    +0.120 A 
ENDROOT
BRANCH   9  10
ATOM     10  C   LIG    1        4.598   7.652  -2.508  0.00  0.00    -0.030 A 
ATOM     11  C   LIG    1        5.352   8.367  -3.439  0.00  0.00    +0.030 A 
ATOM     12  C   LIG    1        5.466   7.903  -4.733  0.00  0.00    +0.020 A 
ATOM     13  C   LIG    1        4.826   6.737  -5.112  0.00  0.00    +0.020 A 
ATOM     14  C   LIG    1        4.072   6.026  -4.196  0.00  0.00    +0.020 A 
ATOM     15  C   LIG    1        3.954   6.476  -2.897  0.00  0.00    +0.000 A 
ENDBRANCH   9  10
BRANCH   1  16
ATOM     16  C   LIG    1        3.954   5.912  -0.061  0.00  0.00    +0.330 C 
BRANCH  16  18
ATOM     17  O   LIG    1        1.691   6.569  -0.182  0.00  0.00    -0.510 OA
ATOM     18  C   LIG    1        2.474   5.643  -0.151  0.00  0.00    +0.490 C 
ATOM     19  N   LIG    1        2.021   4.375  -0.198  0.00  0.00    -0.730 N 
ATOM     20  H   LIG    1        2.647   3.635  -0.174  0.00  0.00    +0.400 HD
BRANCH  19  21
ATOM     21  C   LIG    1        0.582   4.114  -0.286  0.00  0.00    +0.260 C 
BRANCH  21  22
ATOM     22  C   LIG    1        0.338   2.604  -0.325  0.00  0.00    +0.030 C 
BRANCH  22  23
ATOM     23  C   LIG    1       -1.164   2.332  -0.417  0.00  0.00    +0.330 C 
BRANCH  23  24
ATOM     24  N   LIG    1       -1.397   0.886  -0.454  0.00  0.00    -0.380 N 
ATOM     25  C   LIG    1       -2.192   0.189   0.384  0.00  0.00    +0.220 A 
ATOM     26  C   LIG    1       -2.137  -1.113   0.018  0.00  0.00    -0.120 A 
ATOM     27  C   LIG    1       -1.278  -1.214  -1.082  0.00  0.00    +0.230 A 
ATOM     28  N   LIG    1       -0.839  -0.015  -1.369  0.00  0.00    -0.300 NA
ENDBRANCH  23  24
ENDBRANCH  22  23
ENDBRANCH  21  22
ENDBRANCH  19  21
ENDBRANCH  16  18
ENDBRANCH   1  16
TORSDOF 7
