REMARK  Name = ZINCvU0000000C39.0
REMARK                            x       y       z     vdW  Elec       q    Type
REMARK                         _______ _______ _______ _____ _____    ______ ____
ROOT
ATOM      1  C   LIG    1        0.002  -0.004   0.009  0.00  0.00    -0.070 A 
ATOM      2  C   LIG    1        0.024  -0.719   1.203  0.00  0.00    -0.080 A 
ATOM      3  C   LIG    1        0.033   0.052   2.496  0.00  0.00    +0.250 C 
ATOM      4  N   LIG    1       -0.355  -0.816   3.613  0.00  0.00    -0.520 NA
ATOM      5  C   LIG    1        0.471  -2.033   3.623  0.00  0.00    +0.180 C 
ATOM      6  C   LIG    1        0.038  -2.917   2.449  0.00  0.00    +0.130 C 
ATOM      7  C   LIG    1        0.034  -2.109   1.173  0.00  0.00    +0.180 A 
ATOM      8  N   LIG    1        0.040  -2.766   0.032  0.00  0.00    -0.460 NA
ATOM      9  C   LIG    1        0.027  -2.148  -1.150  0.00  0.00    +0.140 A 
ATOM     10  C   LIG    1        0.031  -2.878  -2.352  0.00  0.00    +0.050 A 
ATOM     11  C   LIG    1        0.017  -2.219  -3.543  0.00  0.00    +0.040 A 
ATOM     12  C   LIG    1       -0.003  -0.827  -3.593  0.00  0.00    +0.030 A 
ATOM     13  C   LIG    1       -0.008  -0.087  -2.448  0.00  0.00    +0.030 A 
ATOM     14  C   LIG    1        0.007  -0.733  -1.206  0.00  0.00    -0.070 A 
ENDROOT
BRANCH   1  16
ATOM     15  O   LIG    1       -1.079   2.068   0.008  0.00  0.00    -0.490 OA
ATOM     16  C   LIG    1       -0.018   1.474   0.008  0.00  0.00    +0.570 C 
ATOM     17  N   LIG    1        1.140   2.164   0.003  0.00  0.00    -0.660 N 
ATOM     18  H   LIG    1        1.985   1.693   0.067  0.00  0.00    +0.420 HD
BRANCH  17  19
ATOM     19  C   LIG    1        1.122   3.559  -0.095  0.00  0.00    +0.140 A 
ATOM     20  C   LIG    1        2.125   4.220  -0.793  0.00  0.00    +0.010 A 
ATOM     21  C   LIG    1        2.102   5.598  -0.892  0.00  0.00    +0.050 A 
ATOM     22  C   LIG    1        1.087   6.320  -0.289  0.00  0.00    -0.050 A 
ATOM     23  C   LIG    1        0.090   5.664   0.412  0.00  0.00    +0.050 A 
ATOM     24 CL   LIG    1        1.065   8.051  -0.410  0.00  0.00    -0.070 Cl
ATOM     25  C   LIG    1        0.105   4.286   0.510  0.00  0.00    +0.040 A 
ENDBRANCH  17  19
ENDBRANCH   1  16
BRANCH   4  26
ATOM     26  C   LIG    1       -0.255  -0.102   4.893  0.00  0.00    +0.230 C 
BRANCH  26  27
ATOM     27  C   LIG    1       -0.420  -1.080   6.028  0.00  0.00    -0.090 A 
ATOM     28  C   LIG    1       -1.678  -1.338   6.540  0.00  0.00    +0.020 A 
ATOM     29  C   LIG    1       -1.830  -2.238   7.579  0.00  0.00    +0.000 A 
ATOM     30  C   LIG    1       -0.723  -2.873   8.110  0.00  0.00    +0.000 A 
ATOM     31  C   LIG    1        0.535  -2.611   7.601  0.00  0.00    +0.000 A 
ATOM     32  C   LIG    1        0.686  -1.714   6.560  0.00  0.00    +0.000 A 
ENDBRANCH  26  27
ENDBRANCH   4  26
TORSDOF 4
