REMARK  Name = ZINCrH000004kv3h.0
REMARK                            x       y       z     vdW  Elec       q    Type
REMARK                         _______ _______ _______ _____ _____    ______ ____
ROOT
ATOM      1  N   LIG    1       -6.009   1.368   0.228  0.00  0.00    -0.720 N 
ATOM      2  H   LIG    1       -6.161   2.320   0.343  0.00  0.00    +0.400 HD
ATOM      3  C   LIG    1       -4.754   0.878   0.253  0.00  0.00    +0.520 C 
ATOM      4  O   LIG    1       -4.564  -0.311   0.109  0.00  0.00    -0.510 OA
ENDROOT
BRANCH   1   5
ATOM      5  C   LIG    1       -7.145   0.464   0.028  0.00  0.00    +0.330 C 
BRANCH   5   9
ATOM      6  C   LIG    1      -10.780   2.711   0.066  0.00  0.00    +0.170 A 
ATOM      7  C   LIG    1      -10.104   2.502  -1.128  0.00  0.00    +0.020 A 
ATOM      8  C   LIG    1       -8.929   1.776  -1.137  0.00  0.00    +0.050 A 
ATOM      9  C   LIG    1       -8.426   1.257   0.042  0.00  0.00    -0.130 A 
ATOM     10  C   LIG    1       -9.101   1.458   1.232  0.00  0.00    +0.050 A 
ATOM     11  C   LIG    1      -10.273   2.188   1.248  0.00  0.00    -0.010 A 
BRANCH   6  13
ATOM     12  C   LIG    1      -12.809   3.388  -0.975  0.00  0.00    +0.650 C 
ATOM     13  N   LIG    1      -11.971   3.445   0.079  0.00  0.00    -0.650 N 
ATOM     14  H   LIG    1      -12.194   3.996   0.846  0.00  0.00    +0.420 HD
ATOM     15  O   LIG    1      -12.580   2.626  -1.893  0.00  0.00    -0.550 OA
BRANCH  12  17
ATOM     16  C   LIG    1      -14.759   4.061  -2.177  0.00  0.00    +0.300 C 
ATOM     17  O   LIG    1      -13.901   4.176  -1.011  0.00  0.00    -0.370 OA
ENDBRANCH  12  17
ENDBRANCH   6  13
ENDBRANCH   5   9
ENDBRANCH   1   5
BRANCH   3  18
ATOM     18  C   LIG    1       -3.586   1.808   0.459  0.00  0.00    +0.220 C 
BRANCH  18  19
ATOM     19  O   LIG    1       -2.371   1.057   0.446  0.00  0.00    -0.290 OA
BRANCH  19  20
ATOM     20  C   LIG    1       -1.215   1.750   0.620  0.00  0.00    +0.130 A 
ATOM     21  C   LIG    1       -0.023   1.084   0.617  0.00  0.00    -0.010 A 
ATOM     22  C   LIG    1        1.173   1.800   0.791  0.00  0.00    -0.010 A 
ATOM     23  C   LIG    1        2.419   1.150   0.788  0.00  0.00    +0.020 A 
ATOM     24  C   LIG    1        3.558   1.876   0.959  0.00  0.00    +0.020 A 
ATOM     25  C   LIG    1        3.508   3.257   1.139  0.00  0.00    -0.010 A 
ATOM     26  C   LIG    1        2.319   3.920   1.148  0.00  0.00    +0.030 A 
ATOM     27  C   LIG    1        1.123   3.205   0.973  0.00  0.00    -0.080 A 
ATOM     28  C   LIG    1       -0.123   3.857   0.977  0.00  0.00    +0.070 A 
ATOM     29  C   LIG    1       -1.262   3.136   0.805  0.00  0.00    -0.060 A 
ENDBRANCH  19  20
ENDBRANCH  18  19
ENDBRANCH   3  18
TORSDOF 7
