REMARK  Name = ZINCvU00000009Qw.0
REMARK                            x       y       z     vdW  Elec       q    Type
REMARK                         _______ _______ _______ _____ _____    ______ ____
ROOT
ATOM      1  C   LIG    1        1.887  -0.106  -0.580  0.00  0.00    +0.180 A 
ATOM      2  C   LIG    1        0.699  -0.785  -0.802  0.00  0.00    -0.090 A 
ATOM      3  C   LIG    1       -0.456  -0.084  -1.091  0.00  0.00    +0.080 A 
ATOM      4  C   LIG    1       -0.436   1.300  -1.160  0.00  0.00    -0.030 A 
ATOM      5  C   LIG    1        0.737   1.990  -0.942  0.00  0.00    +0.090 A 
ATOM      6  C   LIG    1        1.911   1.294  -0.650  0.00  0.00    -0.160 A 
ENDROOT
BRANCH   6   7
ATOM      7  C   LIG    1        3.170   2.027  -0.415  0.00  0.00    +0.570 C 
ATOM      8  N   LIG    1        3.529   3.030  -1.240  0.00  0.00    -0.610 N 
ATOM      9  C   LIG    1        2.734   3.314  -2.438  0.00  0.00    +0.280 C 
ATOM     10  O   LIG    1        3.883   1.726   0.522  0.00  0.00    -0.500 OA
BRANCH   8  11
ATOM     11  C   LIG    1        4.715   3.837  -0.940  0.00  0.00    +0.390 C 
BRANCH  11  12
ATOM     12  C   LIG    1        5.904   3.275  -1.674  0.00  0.00    -0.210 A 
ATOM     13  C   LIG    1        6.807   2.442  -1.153  0.00  0.00    -0.070 A 
ATOM     14  C   LIG    1        7.813   2.055  -2.021  0.00  0.00    +0.010 A 
ATOM     15  C   LIG    1        7.733   2.581  -3.244  0.00  0.00    -0.040 A 
ATOM     16  C   LIG    1        6.734   1.957   0.272  0.00  0.00    +0.130 C 
ATOM     17  S   LIG    1        6.319   3.622  -3.348  0.00  0.00    +0.080 S 
ENDBRANCH  11  12
ENDBRANCH   8  11
ENDBRANCH   6   7
BRANCH   1  18
ATOM     18  O   LIG    1        3.022  -0.794  -0.297  0.00  0.00    -0.270 OA
BRANCH  18  19
ATOM     19  C   LIG    1        2.921  -2.218  -0.243  0.00  0.00    +0.240 C 
BRANCH  19  22
ATOM     20  N   LIG    1        4.417  -4.141   0.184  0.00  0.00    -0.670 N 
ATOM     21  H   LIG    1        3.641  -4.721   0.121  0.00  0.00    +0.410 HD
ATOM     22  C   LIG    1        4.270  -2.806   0.081  0.00  0.00    +0.520 C 
ATOM     23  O   LIG    1        5.225  -2.076   0.250  0.00  0.00    -0.480 OA
BRANCH  20  27
ATOM     24  C   LIG    1        8.204  -5.784   0.777  0.00  0.00    +0.130 A 
ATOM     25  C   LIG    1        7.873  -4.574   1.367  0.00  0.00    -0.040 A 
ATOM     26  C   LIG    1        6.619  -4.029   1.171  0.00  0.00    +0.080 A 
ATOM     27  C   LIG    1        5.689  -4.694   0.383  0.00  0.00    +0.120 A 
ATOM     28  C   LIG    1        6.018  -5.908  -0.204  0.00  0.00    +0.040 A 
ATOM     29  C   LIG    1        7.274  -6.450  -0.011  0.00  0.00    -0.050 A 
ATOM     30 CL   LIG    1        7.689  -7.966  -0.749  0.00  0.00    -0.050 Cl
BRANCH  24  32
ATOM     31  C   LIG    1       10.344  -5.581   1.793  0.00  0.00    +0.240 C 
ATOM     32  O   LIG    1        9.439  -6.320   0.971  0.00  0.00    -0.300 OA
ENDBRANCH  24  32
ENDBRANCH  20  27
ENDBRANCH  19  22
ENDBRANCH  18  19
ENDBRANCH   1  18
TORSDOF 8
