REMARK  Name = ZINCrD00000l2GPP.0
REMARK                            x       y       z     vdW  Elec       q    Type
REMARK                         _______ _______ _______ _____ _____    ______ ____
ROOT
ATOM      1  N   LIG    1        0.165   5.991  -0.398  0.00  0.00    -0.660 N 
ATOM      2  H   LIG    1        0.031   6.948  -0.314  0.00  0.00    +0.410 HD
ATOM      3  C   LIG    1        0.872   5.497  -1.433  0.00  0.00    +0.560 C 
ATOM      4  O   LIG    1        0.970   4.295  -1.583  0.00  0.00    -0.510 OA
ENDROOT
BRANCH   1   8
ATOM      5  C   LIG    1       -1.455   3.410   2.453  0.00  0.00    +0.090 A 
ATOM      6  C   LIG    1       -0.985   4.656   2.833  0.00  0.00    -0.020 A 
ATOM      7  C   LIG    1       -0.450   5.512   1.888  0.00  0.00    -0.110 A 
ATOM      8  C   LIG    1       -0.378   5.123   0.558  0.00  0.00    +0.150 A 
ATOM      9  C   LIG    1       -0.843   3.872   0.174  0.00  0.00    -0.010 A 
ATOM     10  C   LIG    1        0.055   6.870   2.303  0.00  0.00    +0.090 C 
ATOM     11  C   LIG    1       -1.379   3.014   1.120  0.00  0.00    +0.110 A 
BRANCH   5  13
ATOM     12  C   LIG    1       -2.032   3.042   4.731  0.00  0.00    +0.230 C 
ATOM     13  O   LIG    1       -1.986   2.571   3.382  0.00  0.00    -0.310 OA
ENDBRANCH   5  13
BRANCH  11  14
ATOM     14  O   LIG    1       -1.836   1.789   0.747  0.00  0.00    -0.300 OA
ATOM     15  C   LIG    1       -1.732   1.452  -0.638  0.00  0.00    +0.240 C 
ENDBRANCH  11  14
ENDBRANCH   1   8
BRANCH   3  16
ATOM     16  C   LIG    1        1.528   6.417  -2.386  0.00  0.00    -0.140 A 
ATOM     17  C   LIG    1        1.413   7.798  -2.219  0.00  0.00    +0.050 A 
ATOM     18  C   LIG    1        2.032   8.651  -3.109  0.00  0.00    +0.000 A 
ATOM     19  C   LIG    1        2.757   8.141  -4.171  0.00  0.00    +0.050 A 
ATOM     20  C   LIG    1        2.871   6.772  -4.345  0.00  0.00    -0.120 A 
ATOM     21  C   LIG    1        2.262   5.909  -3.459  0.00  0.00    +0.110 A 
BRANCH  20  22
ATOM     22  C   LIG    1        3.664   6.226  -5.504  0.00  0.00    +0.350 C 
BRANCH  22  23
ATOM     23  N   LIG    1        2.781   6.052  -6.660  0.00  0.00    -0.620 N 
ATOM     24  C   LIG    1        2.533   7.083  -7.675  0.00  0.00    +0.250 C 
ATOM     25  C   LIG    1        1.253   6.634  -8.415  0.00  0.00    +0.040 C 
ATOM     26  C   LIG    1        1.280   5.104  -8.191  0.00  0.00    +0.050 C 
ATOM     27  C   LIG    1        2.099   4.926  -6.931  0.00  0.00    +0.520 C 
ATOM     28  O   LIG    1        2.132   3.915  -6.262  0.00  0.00    -0.520 OA
ENDBRANCH  22  23
ENDBRANCH  20  22
ENDBRANCH   3  16
TORSDOF 6
