REMARK  Name = ZINC650000002wSl.1
REMARK                            x       y       z     vdW  Elec       q    Type
REMARK                         _______ _______ _______ _____ _____    ______ ____
ROOT
ATOM      1  C   LIG    1       -0.019   1.526   0.010  0.00  0.00    +0.170 C 
ATOM      2  C   LIG    1        0.002  -0.004   0.002  0.00  0.00    +0.140 C 
ENDROOT
BRANCH   1   4
ATOM      3  C   LIG    1        2.033   1.648   1.247  0.00  0.00    +0.350 C 
ATOM      4  N   LIG    1        1.359   2.034   0.000  0.00  0.00    -0.520 N 
ATOM      5  H   LIG    1        1.346   3.040  -0.077  0.00  0.00    +0.410 HD
ATOM      6  H   LIG    1        1.856   1.643  -0.786  0.00  0.00    +0.440 HD
ENDBRANCH   1   4
BRANCH   1   7
ATOM      7  C   LIG    1       -0.759   2.033  -1.229  0.00  0.00    +0.310 C 
BRANCH   7   8
ATOM      8  N   LIG    1       -0.675   3.498  -1.284  0.00  0.00    -0.650 N 
ATOM      9  H   LIG    1        0.293   3.779  -1.332  0.00  0.00    +0.420 HD
ATOM     10  H   LIG    1       -1.098   3.890  -0.456  0.00  0.00    +0.450 HD
ATOM     11  H   LIG    1       -1.163   3.833  -2.101  0.00  0.00    +0.460 HD
ENDBRANCH   7   8
ENDBRANCH   1   7
TORSDOF 3
