REMARK  Name = ZINC650000002wSl.0
REMARK                            x       y       z     vdW  Elec       q    Type
REMARK                         _______ _______ _______ _____ _____    ______ ____
ROOT
ATOM      1  C   LIG    1        0.002  -0.004   0.002  0.00  0.00    +0.170 C 
ATOM      2  C   LIG    1       -0.019   1.526   0.010  0.00  0.00    +0.100 C 
ENDROOT
BRANCH   1   4
ATOM      3  C   LIG    1        2.122  -0.083   1.122  0.00  0.00    +0.320 C 
ATOM      4  N   LIG    1        0.713  -0.491   1.192  0.00  0.00    -0.500 N 
ATOM      5  H   LIG    1        0.655  -1.497   1.230  0.00  0.00    +0.440 HD
ATOM      6  H   LIG    1        0.290  -0.099   2.020  0.00  0.00    +0.430 HD
ENDBRANCH   1   4
BRANCH   1   7
ATOM      7  C   LIG    1       -1.433  -0.534   0.013  0.00  0.00    +0.210 C 
BRANCH   7   8
ATOM      8  N   LIG    1       -1.414  -1.998   0.126  0.00  0.00    -0.870 NA
ATOM      9  H   LIG    1       -0.867  -2.411  -0.615  0.00  0.00    +0.350 HD
ATOM     10  H   LIG    1       -2.351  -2.373   0.135  0.00  0.00    +0.370 HD
ENDBRANCH   7   8
ENDBRANCH   1   7
TORSDOF 3
