REMARK  Name = ZINCrD00000hQ5sY.0
REMARK                            x       y       z     vdW  Elec       q    Type
REMARK                         _______ _______ _______ _____ _____    ______ ____
ROOT
ATOM      1  C   LIG    1       -0.968   1.735  -6.020  0.00  0.00    +0.260 C 
ATOM      2  C   LIG    1       -0.233   2.953  -6.613  0.00  0.00    +0.090 C 
ATOM      3  C   LIG    1        0.233   2.472  -7.969  0.00  0.00    +0.140 C 
ATOM      4  N   LIG    1       -0.138   1.251  -8.144  0.00  0.00    -0.240 NA
ATOM      5  N   LIG    1       -0.848   0.713  -7.072  0.00  0.00    -0.460 N 
ATOM      6  C   LIG    1       -1.344  -0.538  -7.010  0.00  0.00    +0.550 C 
ATOM      7  O   LIG    1       -1.949  -0.902  -6.024  0.00  0.00    -0.520 OA
ATOM      8  C   LIG    1       -1.147  -1.485  -8.166  0.00  0.00    +0.120 C 
ENDROOT
BRANCH   1  13
ATOM      9  C   LIG    1       -0.194   1.208  -2.359  0.00  0.00    +0.130 A 
ATOM     10  C   LIG    1        0.951   0.428  -2.431  0.00  0.00    -0.070 A 
ATOM     11  C   LIG    1        1.464   0.067  -3.662  0.00  0.00    +0.060 A 
ATOM     12  C   LIG    1        0.844   0.492  -4.822  0.00  0.00    -0.020 A 
ATOM     13  C   LIG    1       -0.295   1.274  -4.753  0.00  0.00    -0.050 A 
ATOM     14  C   LIG    1       -0.815   1.633  -3.525  0.00  0.00    +0.010 A 
BRANCH   9  15
ATOM     15  O   LIG    1       -0.704   1.559  -1.150  0.00  0.00    -0.290 OA
BRANCH  15  16
ATOM     16  C   LIG    1       -0.013   1.086   0.008  0.00  0.00    +0.290 C 
BRANCH  16  17
ATOM     17  C   LIG    1       -0.718   1.572   1.248  0.00  0.00    +0.460 C 
ATOM     18  O   LIG    1       -1.711   2.254   1.150  0.00  0.00    -0.480 OA
BRANCH  17  19
ATOM     19  O   LIG    1       -0.243   1.247   2.461  0.00  0.00    -0.350 OA
BRANCH  19  21
ATOM     20  C   LIG    1       -0.288   1.281   4.895  0.00  0.00    +0.070 C 
ATOM     21  C   LIG    1       -0.974   1.750   3.611  0.00  0.00    +0.200 C 
ENDBRANCH  19  21
ENDBRANCH  17  19
ENDBRANCH  16  17
ENDBRANCH  15  16
ENDBRANCH   9  15
ENDBRANCH   1  13
BRANCH   3  22
ATOM     22  C   LIG    1        0.996   3.277  -8.941  0.00  0.00    -0.040 A 
ATOM     23  C   LIG    1        1.340   4.598  -8.643  0.00  0.00    +0.040 A 
ATOM     24  C   LIG    1        2.058   5.343  -9.555  0.00  0.00    +0.010 A 
ATOM     25  C   LIG    1        2.429   4.789 -10.767  0.00  0.00    +0.030 A 
ATOM     26  C   LIG    1        2.087   3.483 -11.072  0.00  0.00    +0.010 A 
ATOM     27  C   LIG    1        1.374   2.724 -10.167  0.00  0.00    +0.050 A 
ENDBRANCH   3  22
TORSDOF 7
