REMARK  Name = ZINCpe000000Uzo1.0
REMARK                            x       y       z     vdW  Elec       q    Type
REMARK                         _______ _______ _______ _____ _____    ______ ____
ROOT
ATOM      1  C   LIG    1        2.513   6.803   0.771  0.00  0.00    +0.360 C 
ATOM      2  N   LIG    1        1.702   5.658   0.351  0.00  0.00    -0.360 N 
ATOM      3  C   LIG    1        0.749   5.691  -0.592  0.00  0.00    +0.290 A 
ATOM      4  C   LIG    1        0.214   4.423  -0.700  0.00  0.00    -0.270 A 
ATOM      5  C   LIG    1        0.929   3.590   0.271  0.00  0.00    +0.170 A 
ATOM      6  N   LIG    1        1.799   4.366   0.877  0.00  0.00    -0.280 NA
ENDROOT
BRANCH   5   7
ATOM      7  C   LIG    1        0.707   2.146   0.527  0.00  0.00    -0.010 A 
ATOM      8  C   LIG    1       -0.590   1.638   0.581  0.00  0.00    +0.070 A 
ATOM      9  C   LIG    1       -0.797   0.294   0.818  0.00  0.00    +0.030 A 
ATOM     10  C   LIG    1        0.286  -0.550   1.002  0.00  0.00    +0.080 A 
ATOM     11  O   LIG    1        0.087  -1.880   1.236  0.00  0.00    -0.320 OA
ATOM     12  C   LIG    1        0.432  -2.343   2.543  0.00  0.00    +0.230 C 
ATOM     13  C   LIG    1        1.915  -2.666   2.628  0.00  0.00    -0.020 C 
ATOM     14  C   LIG    1        2.786  -1.432   2.448  0.00  0.00    +0.220 C 
ATOM     15  O   LIG    1        2.638  -0.893   1.133  0.00  0.00    -0.320 OA
ATOM     16  C   LIG    1        1.581  -0.050   0.950  0.00  0.00    +0.060 A 
ATOM     17  C   LIG    1        1.797   1.294   0.713  0.00  0.00    +0.060 A 
ENDBRANCH   5   7
BRANCH   4  18
ATOM     18  C   LIG    1       -0.860   3.993  -1.611  0.00  0.00    +0.600 C 
ATOM     19  N   LIG    1       -1.905   4.809  -1.853  0.00  0.00    -0.600 N 
ATOM     20  C   LIG    1       -1.928   6.159  -1.284  0.00  0.00    +0.290 C 
ATOM     21  O   LIG    1       -0.804   2.902  -2.145  0.00  0.00    -0.520 OA
BRANCH  19  22
ATOM     22  C   LIG    1       -3.019   4.345  -2.684  0.00  0.00    +0.330 C 
BRANCH  22  23
ATOM     23  C   LIG    1       -4.058   3.688  -1.811  0.00  0.00    +0.500 C 
ATOM     24  O   LIG    1       -3.884   3.615  -0.613  0.00  0.00    -0.530 OA
ATOM     25  N   LIG    1       -5.179   3.183  -2.362  0.00  0.00    -0.850 N 
ATOM     26  H   LIG    1       -5.847   2.760  -1.800  0.00  0.00    +0.400 HD
ATOM     27  H   LIG    1       -5.318   3.242  -3.320  0.00  0.00    +0.400 HD
ENDBRANCH  22  23
ENDBRANCH  19  22
ENDBRANCH   4  18
TORSDOF 4
