REMARK  Name = ZINCzw0000000imK.2
REMARK                            x       y       z     vdW  Elec       q    Type
REMARK                         _______ _______ _______ _____ _____    ______ ____
ROOT
ATOM      1  O   LIG    1        0.439  -4.500   0.972  0.00  0.00    -0.520 OA
ATOM      2  C   LIG    1        0.388  -3.895  -0.078  0.00  0.00    +0.500 C 
ATOM      3  N   LIG    1        0.118  -2.574  -0.082  0.00  0.00    -0.590 N 
ATOM      4  C   LIG    1       -0.115  -1.854   1.177  0.00  0.00    +0.300 C 
ATOM      5  C   LIG    1       -1.475  -1.150   1.094  0.00  0.00    +0.310 C 
ATOM      6  N   LIG    1       -1.541  -0.404  -0.170  0.00  0.00    -1.000 NA
ATOM      7  C   LIG    1       -1.313  -1.125  -1.430  0.00  0.00    +0.300 C 
ATOM      8  C   LIG    1        0.053  -1.828  -1.347  0.00  0.00    +0.270 C 
ENDROOT
BRANCH   6   9
ATOM      9  S   LIG    1       -1.873   1.219  -0.175  0.00  0.00    +2.600 S 
ATOM     10  O   LIG    1       -2.617   1.428   1.017  0.00  0.00    -0.930 OA
ATOM     11  O   LIG    1       -2.452   1.454  -1.452  0.00  0.00    -0.940 OA
BRANCH   9  12
ATOM     12  C   LIG    1       -0.246   2.014  -0.059  0.00  0.00    -0.290 C 
BRANCH  12  13
ATOM     13  C   LIG    1       -0.418   3.511  -0.055  0.00  0.00    -0.110 A 
ATOM     14  C   LIG    1       -0.412   4.211  -1.247  0.00  0.00    +0.030 A 
ATOM     15  C   LIG    1       -0.574   5.583  -1.244  0.00  0.00    +0.010 A 
ATOM     16  C   LIG    1       -0.734   6.258  -0.047  0.00  0.00    +0.030 A 
ATOM     17  C   LIG    1       -0.735   5.559   1.145  0.00  0.00    +0.020 A 
ATOM     18  C   LIG    1       -0.577   4.185   1.141  0.00  0.00    +0.030 A 
ENDBRANCH  12  13
ENDBRANCH   9  12
ENDBRANCH   6   9
BRANCH   2  19
ATOM     19  C   LIG    1        0.625  -4.620  -1.378  0.00  0.00    +0.280 C 
BRANCH  19  20
ATOM     20  N   LIG    1        0.896  -6.037  -1.105  0.00  0.00    -0.370 N 
ATOM     21  C   LIG    1       -0.320  -6.681  -0.565  0.00  0.00    +0.260 C 
ATOM     22  C   LIG    1       -0.308  -8.112  -1.159  0.00  0.00    +0.080 C 
ATOM     23  C   LIG    1        0.250  -7.854  -2.584  0.00  0.00    +0.080 C 
ATOM     24  C   LIG    1        1.268  -6.721  -2.358  0.00  0.00    +0.230 C 
ATOM     25  H   LIG    1        1.648  -6.118  -0.438  0.00  0.00    +0.430 HD
BRANCH  24  26
ATOM     26  C   LIG    1        1.216  -5.749  -3.508  0.00  0.00    -0.140 A 
ATOM     27  C   LIG    1        2.386  -5.342  -4.120  0.00  0.00    +0.070 A 
ATOM     28  C   LIG    1        2.345  -4.450  -5.178  0.00  0.00    +0.040 A 
ATOM     29  C   LIG    1        1.126  -3.965  -5.620  0.00  0.00    +0.100 A 
ATOM     30  O   LIG    1        1.072  -3.086  -6.662  0.00  0.00    -0.310 OA
ATOM     31  C   LIG    1        0.658  -1.757  -6.337  0.00  0.00    +0.240 C 
ATOM     32  C   LIG    1       -0.859  -1.655  -6.316  0.00  0.00    -0.010 C 
ATOM     33  C   LIG    1       -1.481  -2.498  -5.215  0.00  0.00    +0.230 C 
ATOM     34  O   LIG    1       -1.245  -3.889  -5.447  0.00  0.00    -0.310 OA
ATOM     35  C   LIG    1       -0.049  -4.373  -5.004  0.00  0.00    +0.080 A 
ATOM     36  C   LIG    1       -0.005  -5.270  -3.950  0.00  0.00    +0.020 A 
ENDBRANCH  24  26
ENDBRANCH  19  20
ENDBRANCH   2  19
TORSDOF 6
