REMARK  Name = ZINCzw0000000imK.1
REMARK                            x       y       z     vdW  Elec       q    Type
REMARK                         _______ _______ _______ _____ _____    ______ ____
ROOT
ATOM      1  O   LIG    1       -3.307  -5.932   1.119  0.00  0.00    -0.520 OA
ATOM      2  C   LIG    1       -3.795  -5.155   1.912  0.00  0.00    +0.500 C 
ATOM      3  N   LIG    1       -5.072  -5.314   2.312  0.00  0.00    -0.590 N 
ATOM      4  C   LIG    1       -5.675  -4.384   3.277  0.00  0.00    +0.270 C 
ATOM      5  C   LIG    1       -6.958  -3.805   2.657  0.00  0.00    +0.300 C 
ATOM      6  N   LIG    1       -7.771  -4.915   2.140  0.00  0.00    -1.000 NA
ATOM      7  C   LIG    1       -7.166  -5.848   1.179  0.00  0.00    +0.300 C 
ATOM      8  C   LIG    1       -5.885  -6.424   1.795  0.00  0.00    +0.300 C 
ENDROOT
BRANCH   6   9
ATOM      9  S   LIG    1       -9.340  -5.111   2.631  0.00  0.00    +2.600 S 
ATOM     10  O   LIG    1       -9.961  -5.801   1.555  0.00  0.00    -0.940 OA
ATOM     11  O   LIG    1       -9.757  -3.803   3.001  0.00  0.00    -0.940 OA
BRANCH   9  12
ATOM     12  C   LIG    1       -9.227  -6.179   4.093  0.00  0.00    -0.290 C 
BRANCH  12  13
ATOM     13  C   LIG    1      -10.610  -6.433   4.638  0.00  0.00    -0.110 A 
ATOM     14  C   LIG    1      -11.143  -5.586   5.591  0.00  0.00    +0.030 A 
ATOM     15  C   LIG    1      -12.412  -5.816   6.088  0.00  0.00    +0.010 A 
ATOM     16  C   LIG    1      -13.145  -6.898   5.638  0.00  0.00    +0.030 A 
ATOM     17  C   LIG    1      -12.610  -7.748   4.688  0.00  0.00    +0.010 A 
ATOM     18  C   LIG    1      -11.342  -7.516   4.188  0.00  0.00    +0.030 A 
ENDBRANCH  12  13
ENDBRANCH   9  12
ENDBRANCH   6   9
BRANCH   2  19
ATOM     19  C   LIG    1       -2.974  -4.012   2.451  0.00  0.00    +0.290 C 
BRANCH  19  20
ATOM     20  N   LIG    1       -1.627  -4.059   1.866  0.00  0.00    -0.380 N 
ATOM     21  C   LIG    1       -0.926  -5.272   2.335  0.00  0.00    +0.270 C 
ATOM     22  C   LIG    1       -0.086  -4.800   3.548  0.00  0.00    +0.080 C 
ATOM     23  C   LIG    1        0.363  -3.385   3.091  0.00  0.00    +0.090 C 
ATOM     24  C   LIG    1       -0.858  -2.876   2.296  0.00  0.00    +0.230 C 
ATOM     25  H   LIG    1       -1.694  -4.073   0.859  0.00  0.00    +0.430 HD
BRANCH  24  26
ATOM     26  C   LIG    1       -0.398  -2.098   1.090  0.00  0.00    -0.140 A 
ATOM     27  C   LIG    1        0.048  -2.769  -0.033  0.00  0.00    +0.010 A 
ATOM     28  C   LIG    1        0.471  -2.061  -1.145  0.00  0.00    +0.050 A 
ATOM     29  C   LIG    1        0.448  -0.677  -1.127  0.00  0.00    +0.100 A 
ATOM     30  O   LIG    1        0.861   0.033  -2.216  0.00  0.00    -0.320 OA
ATOM     31  C   LIG    1        2.071   0.777  -2.055  0.00  0.00    +0.240 C 
ATOM     32  C   LIG    1        1.791   2.129  -1.419  0.00  0.00    +0.000 C 
ATOM     33  C   LIG    1        1.260   2.002   0.001  0.00  0.00    +0.230 C 
ATOM     34  O   LIG    1       -0.016   1.361   0.009  0.00  0.00    -0.320 OA
ATOM     35  C   LIG    1        0.002  -0.004   0.002  0.00  0.00    +0.080 A 
ATOM     36  C   LIG    1       -0.422  -0.715   1.112  0.00  0.00    +0.060 A 
ENDBRANCH  24  26
ENDBRANCH  19  20
ENDBRANCH   2  19
TORSDOF 6
