REMARK  Name = ZINCrH000004uX0E.0
REMARK                            x       y       z     vdW  Elec       q    Type
REMARK                         _______ _______ _______ _____ _____    ______ ____
ROOT
ATOM      1  C   LIG    1        0.498   1.328  -4.802  0.00  0.00    -0.000 A 
ATOM      2  C   LIG    1        0.447   1.923  -6.023  0.00  0.00    +0.090 A 
ATOM      3  C   LIG    1        1.243   1.161  -6.908  0.00  0.00    -0.150 A 
ATOM      4  C   LIG    1        1.563   1.289  -8.271  0.00  0.00    +0.200 A 
ATOM      5  C   LIG    1        2.384   0.354  -8.869  0.00  0.00    -0.120 A 
ATOM      6  C   LIG    1        2.894  -0.707  -8.133  0.00  0.00    +0.090 A 
ATOM      7  C   LIG    1        2.589  -0.847  -6.797  0.00  0.00    -0.060 A 
ATOM      8  C   LIG    1        1.764   0.081  -6.169  0.00  0.00    +0.150 A 
ATOM      9  N   LIG    1        1.296   0.202  -4.881  0.00  0.00    -0.580 N 
ATOM     10  H   LIG    1        1.493  -0.404  -4.149  0.00  0.00    +0.420 HD
ENDROOT
BRANCH   1  12
ATOM     11  O   LIG    1       -0.871   2.809  -3.636  0.00  0.00    -0.520 OA
ATOM     12  C   LIG    1       -0.190   1.802  -3.593  0.00  0.00    +0.590 C 
ATOM     13  N   LIG    1       -0.067   1.120  -2.437  0.00  0.00    -0.730 N 
ATOM     14  H   LIG    1        0.476   0.317  -2.403  0.00  0.00    +0.390 HD
BRANCH  13  15
ATOM     15  C   LIG    1       -0.753   1.593  -1.232  0.00  0.00    +0.250 C 
ATOM     16  C   LIG    1       -2.188   1.063  -1.221  0.00  0.00    +0.000 C 
ATOM     17  C   LIG    1       -2.904   1.556   0.038  0.00  0.00    +0.030 C 
ATOM     18  C   LIG    1       -2.164   1.050   1.278  0.00  0.00    -0.020 C 
ATOM     19  C   LIG    1       -0.729   1.579   1.267  0.00  0.00    +0.170 C 
ATOM     20  C   LIG    1       -0.013   1.086   0.008  0.00  0.00    +0.040 C 
BRANCH  19  21
ATOM     21  O   LIG    1       -0.748   3.008   1.275  0.00  0.00    -0.560 OA
ATOM     22  H   LIG    1       -1.188   3.391   2.046  0.00  0.00    +0.380 HD
ENDBRANCH  19  21
ENDBRANCH  13  15
ENDBRANCH   1  12
BRANCH   4  23
ATOM     23  O   LIG    1        1.068   2.325  -8.995  0.00  0.00    -0.300 OA
BRANCH  23  24
ATOM     24  C   LIG    1        1.437   2.388 -10.374  0.00  0.00    +0.240 C 
BRANCH  24  25
ATOM     25  C   LIG    1        0.797   3.596 -11.010  0.00  0.00    -0.100 A 
ATOM     26  C   LIG    1       -0.451   3.490 -11.593  0.00  0.00    +0.030 A 
ATOM     27  C   LIG    1       -1.040   4.599 -12.172  0.00  0.00    +0.010 A 
ATOM     28  C   LIG    1       -0.374   5.811 -12.177  0.00  0.00    +0.010 A 
ATOM     29  C   LIG    1        0.877   5.915 -11.598  0.00  0.00    +0.010 A 
ATOM     30  C   LIG    1        1.463   4.808 -11.015  0.00  0.00    +0.030 A 
ENDBRANCH  24  25
ENDBRANCH  23  24
ENDBRANCH   4  23
TORSDOF 6
