REMARK  Name = ZINCrH000004sm5p.0
REMARK                            x       y       z     vdW  Elec       q    Type
REMARK                         _______ _______ _______ _____ _____    ______ ____
ROOT
ATOM      1  C   LIG    1        1.229   8.181  -2.580  0.00  0.00    +0.510 C 
ATOM      2  N   LIG    1        1.117   7.513  -1.415  0.00  0.00    -0.740 N 
ATOM      3  H   LIG    1        1.214   7.986  -0.574  0.00  0.00    +0.400 HD
ATOM      4  O   LIG    1        1.109   7.589  -3.632  0.00  0.00    -0.520 OA
ENDROOT
BRANCH   1   5
ATOM      5  C   LIG    1        1.504   9.662  -2.576  0.00  0.00    +0.120 C 
BRANCH   5   9
ATOM      6  C   LIG    1        1.726  11.083  -6.603  0.00  0.00    -0.020 A 
ATOM      7  C   LIG    1        0.505  11.070  -5.932  0.00  0.00    +0.050 A 
ATOM      8  C   LIG    1        0.439  10.610  -4.633  0.00  0.00    +0.010 A 
ATOM      9  C   LIG    1        1.583  10.163  -3.996  0.00  0.00    -0.060 A 
ATOM     10  C   LIG    1        2.799  10.178  -4.655  0.00  0.00    +0.020 A 
ATOM     11  C   LIG    1        2.875  10.630  -5.957  0.00  0.00    +0.020 A 
BRANCH   6  15
ATOM     12  C   LIG    1       -0.131  12.957 -10.787  0.00  0.00    +0.180 C 
ATOM     13  C   LIG    1        0.943  12.422  -9.875  0.00  0.00    +0.050 A 
ATOM     14  N   LIG    1        0.747  12.015  -8.669  0.00  0.00    -0.470 NA
ATOM     15  C   LIG    1        1.803  11.577  -8.000  0.00  0.00    +0.110 A 
ATOM     16  C   LIG    1        2.954  11.614  -8.702  0.00  0.00    -0.080 A 
ATOM     17  S   LIG    1        2.591  12.264 -10.299  0.00  0.00    +0.130 S 
ENDBRANCH   6  15
ENDBRANCH   5   9
ENDBRANCH   1   5
BRANCH   2  18
ATOM     18  C   LIG    1        0.850   6.073  -1.419  0.00  0.00    +0.260 C 
BRANCH  18  19
ATOM     19  C   LIG    1        0.771   5.565   0.022  0.00  0.00    +0.080 C 
BRANCH  19  20
ATOM     20  C   LIG    1        0.496   4.083   0.018  0.00  0.00    -0.070 A 
ATOM     21  C   LIG    1       -0.808   3.624   0.028  0.00  0.00    +0.040 A 
ATOM     22  C   LIG    1       -1.065   2.265   0.019  0.00  0.00    +0.040 A 
ATOM     23  C   LIG    1       -0.016   1.361   0.009  0.00  0.00    +0.030 A 
ATOM     24  O   LIG    1        0.002  -0.004   0.002  0.00  0.00    -0.310 OA
ATOM     25  C   LIG    1        1.336  -0.373   0.399  0.00  0.00    +0.430 C 
ATOM     26  O   LIG    1        2.139   0.749  -0.014  0.00  0.00    -0.310 OA
ATOM     27  C   LIG    1        1.297   1.824  -0.001  0.00  0.00    +0.030 A 
ATOM     28  C   LIG    1        1.548   3.186   0.004  0.00  0.00    +0.050 A 
ENDBRANCH  19  20
ENDBRANCH  18  19
ENDBRANCH   2  18
TORSDOF 6
