REMARK  Name = ZINCrg000013b3gh.0
REMARK                            x       y       z     vdW  Elec       q    Type
REMARK                         _______ _______ _______ _____ _____    ______ ____
ROOT
ATOM      1  C   LIG    1       -5.511  -1.082   4.263  0.00  0.00    +0.080 C 
ATOM      2  C   LIG    1       -4.545  -2.141   3.703  0.00  0.00    +0.270 C 
ATOM      3  N   LIG    1       -5.130  -3.057   4.701  0.00  0.00    -0.640 N 
ATOM      4  C   LIG    1       -4.700  -4.170   5.328  0.00  0.00    +0.540 C 
ATOM      5  O   LIG    1       -5.419  -4.733   6.126  0.00  0.00    -0.530 OA
ATOM      6  C   LIG    1       -6.374  -2.265   4.738  0.00  0.00    +0.310 C 
ENDROOT
BRANCH   1   7
ATOM      7  O   LIG    1       -4.962  -0.305   5.329  0.00  0.00    -0.530 OA
ATOM      8  H   LIG    1       -4.396   0.421   5.036  0.00  0.00    +0.380 HD
ENDBRANCH   1   7
BRANCH   1   9
ATOM      9  C   LIG    1       -6.179  -0.226   3.185  0.00  0.00    +0.300 C 
BRANCH   9  11
ATOM     10  C   LIG    1       -5.187   2.101   3.377  0.00  0.00    +0.300 C 
ATOM     11  N   LIG    1       -5.237   0.794   2.718  0.00  0.00    -0.620 N 
ATOM     12  C   LIG    1       -4.417   0.530   1.681  0.00  0.00    +0.550 C 
ATOM     13  O   LIG    1       -4.459  -0.552   1.135  0.00  0.00    -0.530 OA
BRANCH  12  14
ATOM     14  C   LIG    1       -3.448   1.580   1.201  0.00  0.00    -0.050 C 
ATOM     15  C   LIG    1       -3.702   2.199  -0.175  0.00  0.00    +0.080 C 
ATOM     16  C   LIG    1       -2.544   1.219   0.021  0.00  0.00    +0.100 C 
BRANCH  16  17
ATOM     17  C   LIG    1       -1.146   1.783   0.017  0.00  0.00    -0.200 A 
ATOM     18  C   LIG    1       -0.013   1.076   0.008  0.00  0.00    +0.220 A 
ATOM     19  N   LIG    1        1.086   1.804   0.001  0.00  0.00    -0.470 NA
ATOM     20  C   LIG    1        0.942   3.086   0.009  0.00  0.00    +0.220 A 
ATOM     21  S   LIG    1       -0.719   3.493   0.026  0.00  0.00    +0.120 S 
ENDBRANCH  16  17
ENDBRANCH  12  14
ENDBRANCH   9  11
ENDBRANCH   1   9
BRANCH   4  22
ATOM     22  C   LIG    1       -3.325  -4.716   5.037  0.00  0.00    +0.060 C 
BRANCH  22  23
ATOM     23  C   LIG    1       -3.089  -5.975   5.873  0.00  0.00    -0.020 C 
ATOM     24  C   LIG    1       -1.741  -6.596   5.493  0.00  0.00    +0.010 C 
ATOM     25  C   LIG    1       -1.480  -7.809   6.391  0.00  0.00    -0.020 C 
ATOM     26  C   LIG    1       -1.524  -7.370   7.856  0.00  0.00    +0.200 C 
ATOM     27  O   LIG    1       -2.792  -6.773   8.135  0.00  0.00    -0.380 OA
ATOM     28  C   LIG    1       -3.071  -5.606   7.359  0.00  0.00    +0.210 C 
ENDBRANCH  22  23
ENDBRANCH   4  22
TORSDOF 7
