REMARK  Name = ZINCpk00000xIaFL.0
REMARK                            x       y       z     vdW  Elec       q    Type
REMARK                         _______ _______ _______ _____ _____    ______ ____
ROOT
ATOM      1  N   LIG    1        2.392   0.521   0.001  0.00  0.00    -0.510 N 
ATOM      2  H   LIG    1        2.075   0.390  -0.948  0.00  0.00    +0.420 HD
ATOM      3  H   LIG    1        2.383  -0.364   0.484  0.00  0.00    +0.440 HD
ENDROOT
BRANCH   1   4
ATOM      4  C   LIG    1        3.758   1.061  -0.009  0.00  0.00    +0.190 C 
ATOM      5  C   LIG    1        3.972   1.894  -1.275  0.00  0.00    +0.090 C 
ATOM      6  C   LIG    1        3.215   1.292  -2.447  0.00  0.00    +0.020 C 
ATOM      7  C   LIG    1        3.740  -0.062  -2.889  0.00  0.00    +0.040 C 
ATOM      8  C   LIG    1        3.495  -1.120  -1.812  0.00  0.00    +0.260 C 
ATOM      9  N   LIG    1        4.618  -1.093  -0.861  0.00  0.00    -0.560 N 
ATOM     10  C   LIG    1        4.755  -0.079  -0.006  0.00  0.00    +0.500 C 
ATOM     11  O   LIG    1        5.681  -0.069   0.777  0.00  0.00    -0.500 OA
BRANCH   9  12
ATOM     12  C   LIG    1        5.592  -2.188  -0.854  0.00  0.00    +0.220 C 
BRANCH  12  13
ATOM     13  C   LIG    1        5.136  -3.260   0.102  0.00  0.00    +0.490 C 
ATOM     14  O   LIG    1        5.809  -4.265   0.258  0.00  0.00    -0.680 OA
ATOM     15  O   LIG    1        4.094  -3.123   0.720  0.00  0.00    -0.700 OA
ENDBRANCH  12  13
ENDBRANCH   9  12
ENDBRANCH   1   4
BRANCH   1  20
ATOM     16  C   LIG    1       -1.960   0.890  -0.375  0.00  0.00    +0.210 C 
ATOM     17  N   LIG    1       -0.867   1.691   0.192  0.00  0.00    -0.500 NA
ATOM     18  C   LIG    1       -0.103   2.382  -0.877  0.00  0.00    +0.180 C 
ATOM     19  C   LIG    1        1.249   2.708  -0.193  0.00  0.00    +0.080 C 
ATOM     20  C   LIG    1        1.499   1.464   0.689  0.00  0.00    +0.160 C 
ATOM     21  C   LIG    1        0.110   0.831   0.895  0.00  0.00    +0.180 C 
BRANCH  21  22
ATOM     22  C   LIG    1       -0.215   0.772   2.365  0.00  0.00    -0.100 A 
ATOM     23  C   LIG    1       -0.664   1.904   3.019  0.00  0.00    +0.050 A 
ATOM     24  C   LIG    1       -0.967   1.849   4.367  0.00  0.00    +0.010 A 
ATOM     25  C   LIG    1       -0.811   0.665   5.063  0.00  0.00    +0.030 A 
ATOM     26  C   LIG    1       -0.356  -0.466   4.410  0.00  0.00    +0.010 A 
ATOM     27  C   LIG    1       -0.059  -0.412   3.061  0.00  0.00    +0.010 A 
ENDBRANCH  21  22
ENDBRANCH   1  20
TORSDOF 5
