REMARK  Name = ZINCqH00000028BM.0
REMARK                            x       y       z     vdW  Elec       q    Type
REMARK                         _______ _______ _______ _____ _____    ______ ____
ROOT
ATOM      1  C   LIG    1       -1.737   3.560  -1.485  0.00  0.00    +0.290 C 
ENDROOT
BRANCH   1   2
ATOM      2  N   LIG    1       -1.648   2.212  -0.919  0.00  0.00    -1.100 NA
ATOM      3  H   LIG    1       -1.759   1.437  -1.491  0.00  0.00    +0.430 HD
BRANCH   2   4
ATOM      4  S   LIG    1       -1.357   2.012   0.699  0.00  0.00    +2.700 S 
ATOM      5  O   LIG    1       -0.253   2.849   1.015  0.00  0.00    -0.940 OA
ATOM      6  O   LIG    1       -1.363   0.611   0.938  0.00  0.00    -0.950 OA
BRANCH   4   7
ATOM      7  C   LIG    1       -2.744   2.669   1.564  0.00  0.00    -0.730 A 
ATOM      8  C   LIG    1       -3.556   1.832   2.305  0.00  0.00    +0.210 A 
ATOM      9  C   LIG    1       -4.641   2.347   2.989  0.00  0.00    -0.020 A 
ATOM     10  C   LIG    1       -4.923   3.701   2.922  0.00  0.00    +0.190 A 
ATOM     11  C   LIG    1       -4.113   4.540   2.176  0.00  0.00    -0.050 A 
ATOM     12  F   LIG    1       -5.986   4.204   3.586  0.00  0.00    -0.120 F 
ATOM     13  C   LIG    1       -3.023   4.024   1.496  0.00  0.00    +0.220 A 
ATOM     14  F   LIG    1       -2.233   4.841   0.767  0.00  0.00    -0.110 F 
ENDBRANCH   4   7
ENDBRANCH   2   4
ENDBRANCH   1   2
BRANCH   1  15
ATOM     15  C   LIG    1       -1.634   3.480  -3.010  0.00  0.00    +0.270 C 
BRANCH  15  20
ATOM     16  C   LIG    1       -6.058   0.689  -5.315  0.00  0.00    +0.010 C 
ATOM     17  C   LIG    1       -5.102   1.792  -4.857  0.00  0.00    -0.020 C 
ATOM     18  C   LIG    1       -3.727   1.575  -5.494  0.00  0.00    +0.030 C 
ATOM     19  C   LIG    1       -2.759   2.646  -4.985  0.00  0.00    +0.180 C 
ATOM     20  N   LIG    1       -2.659   2.560  -3.522  0.00  0.00    -0.520 NA
ATOM     21  C   LIG    1       -3.958   2.812  -2.885  0.00  0.00    +0.160 C 
ATOM     22  C   LIG    1       -4.962   1.747  -3.333  0.00  0.00    +0.030 C 
ENDBRANCH  15  20
BRANCH  15  23
ATOM     23  C   LIG    1       -1.849   4.850  -3.600  0.00  0.00    -0.220 A 
ATOM     24  C   LIG    1       -0.904   5.597  -4.173  0.00  0.00    +0.020 A 
ATOM     25  C   LIG    1       -1.338   6.823  -4.648  0.00  0.00    +0.000 A 
ATOM     26  C   LIG    1       -2.633   7.075  -4.452  0.00  0.00    -0.060 A 
ATOM     27  S   LIG    1       -3.382   5.712  -3.632  0.00  0.00    +0.110 S 
ENDBRANCH  15  23
ENDBRANCH   1  15
TORSDOF 6
