REMARK  Name = ZINCnE000001F9zl.0
REMARK                            x       y       z     vdW  Elec       q    Type
REMARK                         _______ _______ _______ _____ _____    ______ ____
ROOT
ATOM      1  C   LIG    1        2.600   5.765  -4.938  0.00  0.00    +0.090 C 
ENDROOT
BRANCH   1   2
ATOM      2  C   LIG    1        2.973   6.713  -6.048  0.00  0.00    +0.390 C 
ATOM      3  O   LIG    1        2.183   6.949  -6.931  0.00  0.00    -0.400 OA
BRANCH   2   4
ATOM      4  C   LIG    1        4.330   7.367  -6.057  0.00  0.00    +0.220 C 
BRANCH   4   5
ATOM      5  C   LIG    1        4.700   7.739  -7.470  0.00  0.00    +0.030 A 
ATOM      6  N   LIG    1        5.737   7.303  -8.101  0.00  0.00    -0.450 NA
ATOM      7  C   LIG    1        5.911   7.726  -9.336  0.00  0.00    +0.060 A 
ATOM      8  C   LIG    1        4.973   8.574  -9.769  0.00  0.00    -0.080 A 
ATOM      9  C   LIG    1        7.075   7.295 -10.190  0.00  0.00    +0.160 C 
ATOM     10  S   LIG    1        3.809   8.805  -8.466  0.00  0.00    +0.200 S 
ENDBRANCH   4   5
BRANCH   4  11
ATOM     11  C   LIG    1        4.296   8.580  -5.223  0.00  0.00    +0.210 C 
ATOM     12  N   LIG    1        4.270   9.516  -4.580  0.00  0.00    -0.380 NA
ENDBRANCH   4  11
ENDBRANCH   2   4
ENDBRANCH   1   2
BRANCH   1  13
ATOM     13  S   LIG    1        0.915   5.149  -5.208  0.00  0.00    +0.020 S 
BRANCH  13  18
ATOM     14  N   LIG    1       -0.721   1.571  -1.179  0.00  0.00    -0.640 NA
ATOM     15  C   LIG    1       -0.135   2.416  -1.992  0.00  0.00    +0.340 A 
ATOM     16  N   LIG    1        1.119   2.943  -1.888  0.00  0.00    -0.510 NA
ATOM     17  N   LIG    1        1.499   3.815  -2.883  0.00  0.00    -0.250 NA
ATOM     18  C   LIG    1        0.660   4.075  -3.835  0.00  0.00    -0.080 A 
ATOM     19  S   LIG    1       -0.793   3.125  -3.480  0.00  0.00    -0.100 S 
BRANCH  14  20
ATOM     20  C   LIG    1       -0.013   1.086   0.008  0.00  0.00    +0.180 C 
BRANCH  20  21
ATOM     21  C   LIG    1       -0.729   1.579   1.267  0.00  0.00    +0.000 C 
BRANCH  21  23
ATOM     22  C   LIG    1       -0.705   1.566   3.765  0.00  0.00    +0.000 C 
ATOM     23  C   LIG    1        0.011   1.072   2.506  0.00  0.00    +0.000 C 
ENDBRANCH  21  23
ENDBRANCH  20  21
ENDBRANCH  14  20
ENDBRANCH  13  18
ENDBRANCH   1  13
TORSDOF 9
