REMARK  Name = ZINCpe00000gMPxc.0
REMARK                            x       y       z     vdW  Elec       q    Type
REMARK                         _______ _______ _______ _____ _____    ______ ____
ROOT
ATOM      1  C   LIG    1       -0.933  10.851  -2.553  0.00  0.00    +0.500 C 
ATOM      2  N   LIG    1       -0.715   9.535  -2.361  0.00  0.00    -0.610 N 
ATOM      3  C   LIG    1       -1.302   8.539  -3.268  0.00  0.00    +0.290 C 
ATOM      4  C   LIG    1       -2.116   7.540  -2.436  0.00  0.00    +0.280 C 
ATOM      5  N   LIG    1       -1.287   7.075  -1.316  0.00  0.00    -0.620 N 
ATOM      6  C   LIG    1       -0.704   8.071  -0.406  0.00  0.00    +0.270 C 
ATOM      7  C   LIG    1       -1.069   5.759  -1.123  0.00  0.00    +0.520 C 
ATOM      8  O   LIG    1       -1.560   4.946  -1.877  0.00  0.00    -0.510 OA
ATOM      9  C   LIG    1        0.115   9.070  -1.240  0.00  0.00    +0.270 C 
ATOM     10  O   LIG    1       -1.620  11.222  -3.482  0.00  0.00    -0.510 OA
ENDROOT
BRANCH   1  11
ATOM     11  C   LIG    1       -0.324  11.861  -1.615  0.00  0.00    +0.370 C 
BRANCH  11  18
ATOM     12  C   LIG    1       -2.846  13.392  -0.663  0.00  0.00    +0.150 C 
ATOM     13  C   LIG    1       -1.801  13.888  -1.629  0.00  0.00    +0.090 A 
ATOM     14  C   LIG    1       -1.792  15.094  -2.244  0.00  0.00    -0.120 A 
ATOM     15  C   LIG    1       -0.653  15.155  -3.054  0.00  0.00    +0.080 A 
ATOM     16  N   LIG    1        0.001  14.029  -2.926  0.00  0.00    -0.290 NA
ATOM     17  C   LIG    1       -0.247  16.319  -3.920  0.00  0.00    +0.160 C 
ATOM     18  N   LIG    1       -0.707  13.211  -2.036  0.00  0.00    -0.360 N 
ENDBRANCH  11  18
ENDBRANCH   1  11
BRANCH   7  19
ATOM     19  C   LIG    1       -0.217   5.298   0.031  0.00  0.00    +0.130 C 
BRANCH  19  20
ATOM     20  C   LIG    1       -0.132   3.793   0.023  0.00  0.00    +0.140 A 
ATOM     21  C   LIG    1        1.106   3.179   0.008  0.00  0.00    -0.040 A 
ATOM     22  C   LIG    1        1.173   1.794   0.001  0.00  0.00    +0.070 A 
ATOM     23  C   LIG    1       -0.013   1.076   0.008  0.00  0.00    -0.030 A 
ATOM     24  C   LIG    1       -1.214   1.759   0.017  0.00  0.00    +0.270 A 
ATOM     25  N   LIG    1       -1.240   3.078   0.030  0.00  0.00    -0.460 NA
ENDBRANCH  19  20
ENDBRANCH   7  19
TORSDOF 4
