REMARK  Name = ZINCrg00001JduMS.0
REMARK                            x       y       z     vdW  Elec       q    Type
REMARK                         _______ _______ _______ _____ _____    ______ ____
ROOT
ATOM      1  C   LIG    1        4.682   6.006   4.571  0.00  0.00    +0.610 C 
ATOM      2  N   LIG    1        3.805   5.429   3.726  0.00  0.00    -0.720 N 
ATOM      3  H   LIG    1        3.646   5.818   2.852  0.00  0.00    +0.410 HD
ATOM      4  O   LIG    1        4.881   5.518   5.667  0.00  0.00    -0.500 OA
ENDROOT
BRANCH   1   8
ATOM      5  C   LIG    1        6.076   8.940   2.970  0.00  0.00    -0.030 A 
ATOM      6  C   LIG    1        6.741   9.000   4.162  0.00  0.00    +0.060 A 
ATOM      7  C   LIG    1        6.306   7.910   4.927  0.00  0.00    +0.050 A 
ATOM      8  C   LIG    1        5.400   7.228   4.167  0.00  0.00    -0.030 A 
ATOM      9  O   LIG    1        5.269   7.863   2.988  0.00  0.00    -0.140 OA
BRANCH   5  10
ATOM     10  C   LIG    1        6.218   9.891   1.856  0.00  0.00    +0.550 C 
ATOM     11  O   LIG    1        6.982  10.832   1.954  0.00  0.00    -0.480 OA
BRANCH  10  12
ATOM     12  O   LIG    1        5.501   9.719   0.728  0.00  0.00    -0.350 OA
BRANCH  12  14
ATOM     13  C   LIG    1        4.801  10.338  -1.521  0.00  0.00    +0.080 C 
ATOM     14  C   LIG    1        5.692  10.696  -0.330  0.00  0.00    +0.220 C 
ENDBRANCH  12  14
ENDBRANCH  10  12
ENDBRANCH   5  10
ENDBRANCH   1   8
BRANCH   2  15
ATOM     15  C   LIG    1        3.091   4.214   4.128  0.00  0.00    +0.430 C 
BRANCH  15  16
ATOM     16  C   LIG    1        2.178   3.776   3.012  0.00  0.00    +0.160 A 
ATOM     17  N   LIG    1        0.933   4.137   2.839  0.00  0.00    -0.270 NA
ATOM     18  N   LIG    1        0.458   3.570   1.783  0.00  0.00    -0.260 NA
ATOM     19  C   LIG    1        1.373   2.827   1.241  0.00  0.00    +0.180 A 
ATOM     20  C   LIG    1        1.280   1.975   0.000  0.00  0.00    +0.150 C 
ATOM     21  C   LIG    1        2.465   0.999  -0.000  0.00  0.00    +0.080 C 
ATOM     22  C   LIG    1        3.757   1.771   0.283  0.00  0.00    +0.060 C 
ATOM     23  C   LIG    1        3.757   2.257   1.737  0.00  0.00    +0.290 C 
ATOM     24  N   LIG    1        2.490   2.937   2.005  0.00  0.00    -0.460 N 
BRANCH  20  25
ATOM     25  C   LIG    1       -0.014   1.204   0.009  0.00  0.00    +0.480 C 
ATOM     26  O   LIG    1        0.002  -0.004   0.002  0.00  0.00    -0.500 OA
BRANCH  25  27
ATOM     27  O   LIG    1       -1.186   1.859   0.018  0.00  0.00    -0.330 OA
ATOM     28  C   LIG    1       -2.393   1.052   0.019  0.00  0.00    +0.270 C 
ENDBRANCH  25  27
ENDBRANCH  20  25
ENDBRANCH  15  16
ENDBRANCH   2  15
TORSDOF 8
