REMARK  Name = ZINCvU0000000A2D.0
REMARK                            x       y       z     vdW  Elec       q    Type
REMARK                         _______ _______ _______ _____ _____    ______ ____
ROOT
ATOM      1  C   LIG    1       -2.655   0.081   0.937  0.00  0.00    +0.180 C 
ATOM      2  C   LIG    1       -2.405   1.560   0.791  0.00  0.00    +0.170 A 
ATOM      3  C   LIG    1       -1.181   2.079   0.466  0.00  0.00    -0.320 A 
ATOM      4  S   LIG    1       -1.342   3.832   0.396  0.00  0.00    +0.230 S 
ATOM      5  C   LIG    1       -2.997   3.708   0.806  0.00  0.00    +0.060 A 
ATOM      6  N   LIG    1       -3.335   2.460   0.967  0.00  0.00    -0.470 NA
ENDROOT
BRANCH   5   7
ATOM      7  C   LIG    1       -3.915   4.856   0.959  0.00  0.00    -0.000 A 
ATOM      8  C   LIG    1       -3.448   6.158   0.770  0.00  0.00    +0.040 A 
ATOM      9  C   LIG    1       -4.312   7.224   0.909  0.00  0.00    +0.080 A 
ATOM     10  C   LIG    1       -5.636   7.007   1.245  0.00  0.00    -0.170 A 
ATOM     11  C   LIG    1       -6.105   5.719   1.439  0.00  0.00    +0.080 A 
ATOM     12  C   LIG    1       -5.253   4.644   1.298  0.00  0.00    +0.080 A 
BRANCH  10  13
ATOM     13  C   LIG    1       -6.573   8.177   1.401  0.00  0.00    +0.510 C 
ATOM     14  F   LIG    1       -7.872   7.783   1.062  0.00  0.00    -0.170 F 
ATOM     15  F   LIG    1       -6.165   9.216   0.557  0.00  0.00    -0.170 F 
ATOM     16  F   LIG    1       -6.550   8.618   2.728  0.00  0.00    -0.170 F 
ENDBRANCH  10  13
ENDBRANCH   5   7
BRANCH   3  17
ATOM     17  C   LIG    1        0.044   1.314   0.215  0.00  0.00    +0.600 C 
ATOM     18  N   LIG    1        1.142   1.935  -0.259  0.00  0.00    -0.610 N 
ATOM     19  C   LIG    1        1.077   3.348  -0.641  0.00  0.00    +0.310 C 
ATOM     20  O   LIG    1        0.068   0.116   0.430  0.00  0.00    -0.520 OA
BRANCH  18  21
ATOM     21  C   LIG    1        2.401   1.198  -0.392  0.00  0.00    +0.340 C 
BRANCH  21  22
ATOM     22  C   LIG    1        2.475   0.561  -1.781  0.00  0.00    +0.120 C 
ATOM     23  C   LIG    1        3.731  -0.314  -1.883  0.00  0.00    +0.240 C 
ATOM     24  O   LIG    1        3.776  -0.883  -3.196  0.00  0.00    -0.300 OA
ATOM     25  C   LIG    1        3.539  -0.038  -4.237  0.00  0.00    +0.050 A 
ATOM     26  C   LIG    1        3.912  -0.415  -5.518  0.00  0.00    +0.030 A 
ATOM     27  C   LIG    1        3.674   0.431  -6.585  0.00  0.00    +0.020 A 
ATOM     28  C   LIG    1        3.064   1.654  -6.378  0.00  0.00    +0.010 A 
ATOM     29  C   LIG    1        2.691   2.036  -5.103  0.00  0.00    +0.020 A 
ATOM     30  C   LIG    1        2.928   1.193  -4.028  0.00  0.00    +0.050 A 
ATOM     31  O   LIG    1        2.560   1.585  -2.778  0.00  0.00    -0.300 OA
ENDBRANCH  21  22
ENDBRANCH  18  21
ENDBRANCH   3  17
TORSDOF 5
