REMARK  Name = ZINCpk00000e93cC.0
REMARK                            x       y       z     vdW  Elec       q    Type
REMARK                         _______ _______ _______ _____ _____    ______ ____
ROOT
ATOM      1  C   LIG    1       -1.049   1.466  -2.113  0.00  0.00    +0.530 C 
ATOM      2  N   LIG    1       -0.939   2.697  -1.576  0.00  0.00    -0.610 N 
ATOM      3  C   LIG    1       -1.577   3.861  -2.212  0.00  0.00    +0.250 C 
ATOM      4  C   LIG    1       -2.388   4.609  -1.148  0.00  0.00    +0.220 C 
ATOM      5  O   LIG    1       -1.548   4.882  -0.023  0.00  0.00    -0.350 OA
ATOM      6  C   LIG    1       -1.054   3.714   0.636  0.00  0.00    +0.140 C 
ATOM      7  C   LIG    1       -0.176   2.919  -0.337  0.00  0.00    +0.270 C 
ATOM      8  O   LIG    1       -0.442   0.536  -1.626  0.00  0.00    -0.530 OA
ENDROOT
BRANCH   1  10
ATOM      9  C   LIG    1       -3.364   1.643  -2.982  0.00  0.00    +0.050 C 
ATOM     10  C   LIG    1       -1.926   1.245  -3.318  0.00  0.00    -0.070 C 
ATOM     11  C   LIG    1       -1.419   2.099  -4.482  0.00  0.00    +0.050 C 
BRANCH  10  12
ATOM     12  C   LIG    1       -1.885  -0.233  -3.714  0.00  0.00    +0.100 C 
BRANCH  12  13
ATOM     13  C   LIG    1       -2.762  -0.454  -4.920  0.00  0.00    -0.090 A 
ATOM     14  C   LIG    1       -4.095  -0.779  -4.753  0.00  0.00    +0.030 A 
ATOM     15  C   LIG    1       -4.902  -0.977  -5.856  0.00  0.00    -0.010 A 
ATOM     16  C   LIG    1       -4.372  -0.860  -7.132  0.00  0.00    +0.100 A 
ATOM     17  C   LIG    1       -3.032  -0.539  -7.297  0.00  0.00    -0.010 A 
ATOM     18  C   LIG    1       -2.230  -0.336  -6.191  0.00  0.00    +0.030 A 
BRANCH  16  19
ATOM     19  O   LIG    1       -5.163  -1.059  -8.219  0.00  0.00    -0.500 OA
ATOM     20  H   LIG    1       -5.185  -1.975  -8.527  0.00  0.00    +0.390 HD
ENDBRANCH  16  19
ENDBRANCH  12  13
ENDBRANCH  10  12
ENDBRANCH   1  10
BRANCH   6  21
ATOM     21  C   LIG    1       -0.224   4.125   1.853  0.00  0.00    +0.360 C 
BRANCH  21  22
ATOM     22  N   LIG    1       -1.090   4.781   2.837  0.00  0.00    -0.380 N 
ATOM     23  C   LIG    1       -1.246   4.439   4.127  0.00  0.00    +0.470 A 
ATOM     24  N   LIG    1       -2.103   5.268   4.666  0.00  0.00    -0.550 NA
ATOM     25  C   LIG    1       -2.514   6.149   3.754  0.00  0.00    +0.410 A 
ATOM     26  N   LIG    1       -1.918   5.894   2.619  0.00  0.00    -0.290 NA
ENDBRANCH  21  22
ENDBRANCH   6  21
TORSDOF 6
