REMARK  Name = ZINCqH0000038Gzt.0
REMARK                            x       y       z     vdW  Elec       q    Type
REMARK                         _______ _______ _______ _____ _____    ______ ____
ROOT
ATOM      1  C   LIG    1       -1.712   0.795  -1.679  0.00  0.00    +0.580 C 
ATOM      2  N   LIG    1       -0.668   1.509  -1.210  0.00  0.00    -0.590 N 
ATOM      3  C   LIG    1       -0.286   2.748  -1.915  0.00  0.00    +0.250 C 
ATOM      4  C   LIG    1        0.054   3.889  -0.939  0.00  0.00    +0.020 C 
ATOM      5  C   LIG    1       -0.917   3.890   0.216  0.00  0.00    +0.030 C 
ATOM      6  C   LIG    1       -0.352   3.044   1.353  0.00  0.00    +0.040 C 
ATOM      7  C   LIG    1       -0.635   1.604   1.235  0.00  0.00    +0.020 C 
ATOM      8  C   LIG    1        0.030   1.028  -0.040  0.00  0.00    +0.280 C 
ATOM      9  O   LIG    1       -1.993  -0.274  -1.172  0.00  0.00    -0.510 OA
ENDROOT
BRANCH   1  20
ATOM     10  C   LIG    1       -4.252   2.133  -1.161  0.00  0.00    +0.150 C 
ATOM     11  C   LIG    1       -3.747   1.963  -2.570  0.00  0.00    +0.240 A 
ATOM     12  N   LIG    1       -4.449   2.422  -3.576  0.00  0.00    -0.470 NA
ATOM     13  C   LIG    1       -4.025   2.279  -4.840  0.00  0.00    +0.270 A 
ATOM     14  C   LIG    1       -4.572   2.662  -6.056  0.00  0.00    -0.090 A 
ATOM     15  C   LIG    1       -3.700   2.256  -7.058  0.00  0.00    +0.300 A 
ATOM     16  N   LIG    1       -2.669   1.655  -6.509  0.00  0.00    -0.310 NA
ATOM     17  N   LIG    1       -2.837   1.650  -5.119  0.00  0.00    -0.320 N 
ATOM     18  C   LIG    1       -2.072   1.162  -4.105  0.00  0.00    +0.240 A 
ATOM     19  C   LIG    1       -0.766   0.469  -4.396  0.00  0.00    +0.160 C 
ATOM     20  C   LIG    1       -2.513   1.312  -2.805  0.00  0.00    -0.240 A 
ENDBRANCH   1  20
BRANCH   6  21
ATOM     21  C   LIG    1       -0.933   3.538   2.652  0.00  0.00    -0.080 A 
ATOM     22  C   LIG    1       -2.302   3.522   2.847  0.00  0.00    +0.010 A 
ATOM     23  C   LIG    1       -2.835   3.971   4.041  0.00  0.00    +0.000 A 
ATOM     24  C   LIG    1       -2.000   4.445   5.036  0.00  0.00    +0.000 A 
ATOM     25  C   LIG    1       -0.632   4.466   4.838  0.00  0.00    +0.000 A 
ATOM     26  C   LIG    1       -0.099   4.012   3.647  0.00  0.00    +0.000 A 
ENDBRANCH   6  21
TORSDOF 2
