REMARK  Name = ZINCnE00000gU1eh.1
REMARK                            x       y       z     vdW  Elec       q    Type
REMARK                         _______ _______ _______ _____ _____    ______ ____
ROOT
ATOM      1  N   LIG    1        2.499   4.091   0.000  0.00  0.00    -0.520 NA
ATOM      2  C   LIG    1        3.174   3.757  -1.262  0.00  0.00    +0.180 C 
ENDROOT
BRANCH   1   3
ATOM      3  C   LIG    1        2.528   5.539   0.246  0.00  0.00    +0.180 C 
ATOM      4  C   LIG    1        1.905   5.837   1.611  0.00  0.00    +0.040 C 
BRANCH   3  10
ATOM      5  C   LIG    1        4.229   7.367   0.021  0.00  0.00    +0.130 A 
ATOM      6  C   LIG    1        5.543   7.810   0.005  0.00  0.00    -0.100 A 
ATOM      7  C   LIG    1        6.576   6.912   0.196  0.00  0.00    +0.030 A 
ATOM      8  C   LIG    1        6.300   5.573   0.402  0.00  0.00    -0.040 A 
ATOM      9  C   LIG    1        4.990   5.130   0.423  0.00  0.00    +0.090 A 
ATOM     10  C   LIG    1        3.954   6.023   0.228  0.00  0.00    -0.100 A 
BRANCH   5  12
ATOM     11  C   LIG    1        3.568   9.617  -0.374  0.00  0.00    +0.230 C 
ATOM     12  O   LIG    1        3.212   8.249  -0.167  0.00  0.00    -0.310 OA
ENDBRANCH   5  12
ENDBRANCH   3  10
ENDBRANCH   1   3
BRANCH   1  13
ATOM     13  C   LIG    1        1.121   3.582   0.011  0.00  0.00    +0.210 C 
BRANCH  13  14
ATOM     14  C   LIG    1        1.141   2.075   0.002  0.00  0.00    +0.460 C 
ATOM     15  N   LIG    1       -0.017   1.386   0.010  0.00  0.00    -0.670 NA
ATOM     16  O   LIG    1        2.200   1.483  -0.011  0.00  0.00    -0.590 OA
BRANCH  15  17
ATOM     17  C   LIG    1        0.002  -0.004   0.002  0.00  0.00    +0.350 A 
ATOM     18  N   LIG    1       -1.050  -0.761   0.008  0.00  0.00    -0.570 NA
ATOM     19  C   LIG    1       -0.848  -2.065  -0.001  0.00  0.00    +0.100 A 
ATOM     20  C   LIG    1        0.436  -2.428  -0.015  0.00  0.00    -0.350 A 
ATOM     21  C   LIG    1        0.956  -3.842  -0.028  0.00  0.00    +0.100 C 
ATOM     22  C   LIG    1       -1.976  -3.064   0.004  0.00  0.00    +0.110 C 
ATOM     23  S   LIG    1        1.417  -0.964  -0.024  0.00  0.00    +0.030 S 
ENDBRANCH  15  17
ENDBRANCH  13  14
ENDBRANCH   1  13
TORSDOF 6
