REMARK  Name = ZINCvU00000005wH.0
REMARK                            x       y       z     vdW  Elec       q    Type
REMARK                         _______ _______ _______ _____ _____    ______ ____
ROOT
ATOM      1  C   LIG    1        2.180   0.371  -0.505  0.00  0.00    +0.160 A 
ATOM      2  N   LIG    1        1.450   1.458  -0.413  0.00  0.00    -0.280 NA
ATOM      3  N   LIG    1        0.217   1.144  -0.228  0.00  0.00    -0.240 NA
ATOM      4  C   LIG    1        0.086  -0.152  -0.191  0.00  0.00    +0.210 A 
ATOM      5  N   LIG    1        1.331  -0.693  -0.366  0.00  0.00    -0.420 N 
ENDROOT
BRANCH   5   6
ATOM      6  C   LIG    1        1.667  -2.055  -0.397  0.00  0.00    +0.090 A 
ATOM      7  C   LIG    1        1.510  -2.836   0.740  0.00  0.00    +0.070 A 
ATOM      8  C   LIG    1        1.836  -4.177   0.707  0.00  0.00    +0.010 A 
ATOM      9  C   LIG    1        2.331  -4.742  -0.457  0.00  0.00    +0.120 A 
ATOM     10  C   LIG    1        2.494  -3.963  -1.591  0.00  0.00    +0.010 A 
ATOM     11  F   LIG    1        2.655  -6.053  -0.486  0.00  0.00    -0.130 F 
ATOM     12  C   LIG    1        2.163  -2.623  -1.562  0.00  0.00    +0.070 A 
ENDBRANCH   5   6
BRANCH   4  13
ATOM     13  C   LIG    1       -1.199  -0.914   0.008  0.00  0.00    +0.230 C 
ATOM     14  C   LIG    1       -1.644  -0.791   1.467  0.00  0.00    +0.070 C 
BRANCH  13  15
ATOM     15  N   LIG    1       -2.239  -0.358  -0.869  0.00  0.00    -0.520 NA
ATOM     16  C   LIG    1       -3.500  -1.095  -0.722  0.00  0.00    +0.160 C 
ATOM     17  C   LIG    1       -4.595  -0.403  -1.537  0.00  0.00    +0.020 C 
ATOM     18  C   LIG    1       -4.177  -0.358  -3.010  0.00  0.00    +0.010 C 
ATOM     19  C   LIG    1       -2.836   0.373  -3.129  0.00  0.00    +0.040 C 
ATOM     20  C   LIG    1       -1.793  -0.342  -2.268  0.00  0.00    +0.160 C 
ENDBRANCH  13  15
ENDBRANCH   4  13
BRANCH   1  21
ATOM     21  S   LIG    1        3.922   0.296  -0.759  0.00  0.00    +0.050 S 
BRANCH  21  22
ATOM     22  C   LIG    1        4.304   2.063  -0.840  0.00  0.00    +0.160 C 
ATOM     23  C   LIG    1        4.011   2.711   0.515  0.00  0.00    +0.110 C 
BRANCH  22  27
ATOM     24  C   LIG    1        7.588   2.900  -2.025  0.00  0.00    +0.180 A 
ATOM     25  N   LIG    1        7.829   1.975  -1.143  0.00  0.00    -0.370 NA
ATOM     26  O   LIG    1        6.792   1.587  -0.648  0.00  0.00    +0.090 OA
ATOM     27  C   LIG    1        5.760   2.247  -1.182  0.00  0.00    +0.190 A 
ATOM     28  N   LIG    1        6.256   3.082  -2.063  0.00  0.00    -0.460 NA
BRANCH  24  29
ATOM     29  C   LIG    1        8.613   3.629  -2.855  0.00  0.00    +0.160 C 
BRANCH  29  31
ATOM     30  C   LIG    1        9.886   3.609  -5.004  0.00  0.00    +0.030 C 
ATOM     31  C   LIG    1        8.846   2.868  -4.161  0.00  0.00    +0.020 C 
ENDBRANCH  29  31
ENDBRANCH  24  29
ENDBRANCH  22  27
ENDBRANCH  21  22
ENDBRANCH   1  21
TORSDOF 8
