REMARK  Name = ZINCvU00000005WH.1
REMARK                            x       y       z     vdW  Elec       q    Type
REMARK                         _______ _______ _______ _____ _____    ______ ____
ROOT
ATOM      1  N   LIG    1       -3.199   3.661   0.944  0.00  0.00    -0.350 NA
ATOM      2  C   LIG    1       -2.176   2.974   0.483  0.00  0.00    +0.360 C 
ATOM      3  N   LIG    1       -1.867   2.767  -0.834  0.00  0.00    -0.670 N 
ATOM      4  H   LIG    1       -2.430   3.146  -1.527  0.00  0.00    +0.420 HD
ATOM      5  C   LIG    1       -0.805   2.054  -1.167  0.00  0.00    +0.530 C 
ATOM      6  C   LIG    1       -0.019   1.526   0.010  0.00  0.00    +0.050 C 
ATOM      7  O   LIG    1       -0.489   1.841  -2.318  0.00  0.00    -0.480 OA
ATOM      8  S   LIG    1       -0.940   2.147   1.456  0.00  0.00    +0.020 S 
ENDROOT
BRANCH   1  10
ATOM      9  C   LIG    1       -5.041   4.898   0.581  0.00  0.00    +0.330 C 
ATOM     10  N   LIG    1       -4.025   4.216   0.124  0.00  0.00    -0.390 NA
BRANCH   9  14
ATOM     11  C   LIG    1       -7.759   6.725  -2.117  0.00  0.00    +0.240 A 
ATOM     12  C   LIG    1       -7.951   6.853  -0.745  0.00  0.00    -0.080 A 
ATOM     13  C   LIG    1       -7.072   6.262   0.134  0.00  0.00    +0.100 A 
ATOM     14  C   LIG    1       -5.983   5.531  -0.354  0.00  0.00    -0.140 A 
ATOM     15  C   LIG    1       -5.790   5.409  -1.735  0.00  0.00    +0.110 A 
ATOM     16  C   LIG    1       -6.678   5.999  -2.607  0.00  0.00    -0.080 A 
BRANCH  11  17
ATOM     17  N   LIG    1       -8.652   7.325  -3.004  0.00  0.00    -0.620 N 
BRANCH  17  19
ATOM     18  C   LIG    1       -9.185   5.947  -4.953  0.00  0.00    +0.020 C 
ATOM     19  C   LIG    1       -8.452   7.191  -4.449  0.00  0.00    +0.270 C 
ENDBRANCH  17  19
BRANCH  17  20
ATOM     20  C   LIG    1       -9.792   8.089  -2.491  0.00  0.00    +0.270 C 
ATOM     21  C   LIG    1       -9.385   9.553  -2.311  0.00  0.00    +0.020 C 
ENDBRANCH  17  20
ENDBRANCH  11  17
ENDBRANCH   9  14
ENDBRANCH   1  10
BRANCH   6  22
ATOM     22  C   LIG    1        0.002  -0.004   0.002  0.00  0.00    +0.140 C 
BRANCH  22  23
ATOM     23  C   LIG    1        0.849  -0.501   1.145  0.00  0.00    -0.090 A 
ATOM     24  C   LIG    1        2.202  -0.717   0.958  0.00  0.00    +0.040 A 
ATOM     25  C   LIG    1        2.982  -1.168   2.005  0.00  0.00    +0.010 A 
ATOM     26  C   LIG    1        2.404  -1.415   3.244  0.00  0.00    -0.090 A 
ATOM     27  C   LIG    1        1.043  -1.202   3.427  0.00  0.00    +0.040 A 
ATOM     28  C   LIG    1        0.270  -0.746   2.377  0.00  0.00    +0.050 A 
BRANCH  26  29
ATOM     29  S   LIG    1        3.394  -1.995   4.581  0.00  0.00    -0.090 S 
BRANCH  29  30
ATOM     30  C   LIG    1        5.048  -2.106   3.845  0.00  0.00    +0.430 C 
ATOM     31  F   LIG    1        5.443  -0.842   3.393  0.00  0.00    -0.180 F 
ATOM     32  F   LIG    1        5.021  -2.999   2.768  0.00  0.00    -0.180 F 
ENDBRANCH  29  30
ENDBRANCH  26  29
ENDBRANCH  22  23
ENDBRANCH   6  22
TORSDOF 9
