REMARK  Name = ZINCrg000000pKWp.0
REMARK                            x       y       z     vdW  Elec       q    Type
REMARK                         _______ _______ _______ _____ _____    ______ ____
ROOT
ATOM      1  C   LIG    1       -5.861   0.476   0.552  0.00  0.00    -0.160 A 
ATOM      2  C   LIG    1       -5.207  -0.670   0.097  0.00  0.00    +0.110 A 
ATOM      3  C   LIG    1       -4.086  -0.551  -0.699  0.00  0.00    +0.000 A 
ATOM      4  C   LIG    1       -3.612   0.700  -1.049  0.00  0.00    +0.160 A 
ATOM      5  C   LIG    1       -4.253   1.841  -0.597  0.00  0.00    -0.680 A 
ATOM      6  C   LIG    1       -5.374   1.736   0.199  0.00  0.00    +0.200 A 
ENDROOT
BRANCH   1   9
ATOM      7  N   LIG    1       -7.529  -0.862   1.744  0.00  0.00    -0.710 N 
ATOM      8  H   LIG    1       -7.077  -1.660   1.429  0.00  0.00    +0.410 HD
ATOM      9  C   LIG    1       -7.063   0.356   1.404  0.00  0.00    +0.570 C 
ATOM     10  O   LIG    1       -7.630   1.356   1.799  0.00  0.00    -0.530 OA
BRANCH   7  11
ATOM     11  CA  LIG    1       -8.721  -0.981   2.588  0.00  0.00    +0.300 C 
BRANCH  11  12
ATOM     12  C   LIG    1       -8.692  -2.302   3.313  0.00  0.00    +0.470 C 
ATOM     13  O   LIG    1       -7.772  -3.065   3.142  0.00  0.00    -0.500 OA
BRANCH  12  15
ATOM     14  C   LIG    1       -9.597  -3.917   4.814  0.00  0.00    +0.290 C 
ATOM     15  O   LIG    1       -9.690  -2.630   4.149  0.00  0.00    -0.350 OA
ENDBRANCH  12  15
ENDBRANCH  11  12
BRANCH  11  16
ATOM     16  C   LIG    1       -9.975  -0.905   1.715  0.00  0.00    +0.220 C 
BRANCH  16  17
ATOM     17  O   LIG    1      -10.016  -2.036   0.842  0.00  0.00    -0.570 OA
ATOM     18  H   LIG    1      -10.786  -2.054   0.257  0.00  0.00    +0.390 HD
ENDBRANCH  16  17
ENDBRANCH  11  16
ENDBRANCH   7  11
ENDBRANCH   1   9
BRANCH   5  19
ATOM     19  S   LIG    1       -3.638   3.430  -1.044  0.00  0.00    +2.690 S 
ATOM     20  O   LIG    1       -2.952   3.263  -2.278  0.00  0.00    -0.940 OA
ATOM     21  O   LIG    1       -4.715   4.340  -0.872  0.00  0.00    -0.950 OA
BRANCH  19  22
ATOM     22  N   LIG    1       -2.491   3.845   0.076  0.00  0.00    -1.060 N 
ATOM     23  H   LIG    1       -2.630   4.613   0.651  0.00  0.00    +0.430 HD
BRANCH  22  24
ATOM     24  C   LIG    1       -1.322   3.089   0.192  0.00  0.00    +0.120 A 
ATOM     25  C   LIG    1       -0.321   3.205  -0.764  0.00  0.00    +0.030 A 
ATOM     26  C   LIG    1        0.831   2.451  -0.649  0.00  0.00    +0.020 A 
ATOM     27  C   LIG    1        0.992   1.590   0.421  0.00  0.00    +0.020 A 
ATOM     28  C   LIG    1       -0.001   1.476   1.377  0.00  0.00    -0.080 A 
ATOM     29  C   LIG    1        0.179   0.536   2.541  0.00  0.00    +0.090 C 
ATOM     30  C   LIG    1       -1.157   2.223   1.265  0.00  0.00    +0.020 A 
ENDBRANCH  22  24
ENDBRANCH  19  22
ENDBRANCH   5  19
TORSDOF 9
