REMARK  Name = ZINCtV000002EJpz.0
REMARK                            x       y       z     vdW  Elec       q    Type
REMARK                         _______ _______ _______ _____ _____    ______ ____
ROOT
ATOM      1  N   LIG    1       -3.711   1.571  -0.632  0.00  0.00    -0.600 N 
ATOM      2  C   LIG    1       -2.491   1.356  -0.100  0.00  0.00    +0.520 C 
ATOM      3  O   LIG    1       -2.383   0.741   0.940  0.00  0.00    -0.530 OA
ATOM      4  C   LIG    1       -3.842   2.314  -1.887  0.00  0.00    +0.290 C 
ENDROOT
BRANCH   1   6
ATOM      5  C   LIG    1       -5.644   0.093  -0.881  0.00  0.00    +0.060 C 
ATOM      6  C   LIG    1       -4.906   1.061   0.046  0.00  0.00    +0.330 C 
BRANCH   6   7
ATOM      7  C   LIG    1       -5.814   2.212   0.396  0.00  0.00    +0.080 A 
ATOM      8  N   LIG    1       -6.099   3.171  -0.400  0.00  0.00    -0.460 NA
ATOM      9  C   LIG    1       -6.930   4.133   0.047  0.00  0.00    +0.080 A 
ATOM     10  C   LIG    1       -7.409   5.285  -0.609  0.00  0.00    +0.080 A 
ATOM     11  C   LIG    1       -8.248   6.145   0.032  0.00  0.00    +0.030 A 
ATOM     12  C   LIG    1       -8.648   5.905   1.339  0.00  0.00    +0.040 A 
ATOM     13  C   LIG    1       -8.196   4.788   2.004  0.00  0.00    +0.060 A 
ATOM     14  C   LIG    1       -7.337   3.897   1.365  0.00  0.00    -0.180 A 
ATOM     15  S   LIG    1       -6.583   2.401   1.908  0.00  0.00    +0.120 S 
ENDBRANCH   6   7
ENDBRANCH   1   6
BRANCH   2  16
ATOM     16  C   LIG    1       -1.262   1.881  -0.796  0.00  0.00    +0.070 C 
BRANCH  16  17
ATOM     17  C   LIG    1       -0.018   1.503   0.010  0.00  0.00    +0.100 C 
BRANCH  17  18
ATOM     18  C   LIG    1        1.198   2.131  -0.619  0.00  0.00    -0.070 A 
ATOM     19  C   LIG    1        1.451   1.949  -1.966  0.00  0.00    +0.010 A 
ATOM     20  C   LIG    1        2.565   2.528  -2.545  0.00  0.00    +0.000 A 
ATOM     21  C   LIG    1        3.431   3.281  -1.774  0.00  0.00    +0.000 A 
ATOM     22  C   LIG    1        3.181   3.459  -0.426  0.00  0.00    +0.000 A 
ATOM     23  C   LIG    1        2.065   2.883   0.151  0.00  0.00    +0.010 A 
ENDBRANCH  17  18
BRANCH  17  24
ATOM     24  C   LIG    1        0.138   0.004   0.020  0.00  0.00    -0.060 A 
ATOM     25  C   LIG    1        0.303  -0.666   1.218  0.00  0.00    +0.030 A 
ATOM     26  C   LIG    1        0.442  -2.041   1.228  0.00  0.00    +0.000 A 
ATOM     27  C   LIG    1        0.425  -2.746   0.039  0.00  0.00    +0.000 A 
ATOM     28  C   LIG    1        0.265  -2.075  -1.160  0.00  0.00    +0.000 A 
ATOM     29  C   LIG    1        0.121  -0.701  -1.169  0.00  0.00    +0.000 A 
ENDBRANCH  17  24
ENDBRANCH  16  17
ENDBRANCH   2  16
TORSDOF 6
