REMARK  Name = ZINCkj000005iB9x.0
REMARK                            x       y       z     vdW  Elec       q    Type
REMARK                         _______ _______ _______ _____ _____    ______ ____
ROOT
ATOM      1  C   LIG    1       -5.112   3.432  -3.386  0.00  0.00    +0.620 C 
ATOM      2  N   LIG    1       -3.770   3.549  -3.432  0.00  0.00    -0.720 N 
ATOM      3  H   LIG    1       -3.341   3.892  -4.232  0.00  0.00    +0.420 HD
ATOM      4  O   LIG    1       -5.650   3.003  -2.383  0.00  0.00    -0.490 OA
ENDROOT
BRANCH   1   8
ATOM      5  C   LIG    1       -7.549   4.251  -5.963  0.00  0.00    +0.210 A 
ATOM      6  N   LIG    1       -6.389   4.540  -6.487  0.00  0.00    -0.380 NA
ATOM      7  O   LIG    1       -5.480   4.311  -5.724  0.00  0.00    +0.120 OA
ATOM      8  C   LIG    1       -5.928   3.823  -4.551  0.00  0.00    -0.090 A 
ATOM      9  C   LIG    1       -7.289   3.758  -4.659  0.00  0.00    +0.070 A 
BRANCH   5  11
ATOM     10  C   LIG    1       -8.784   4.904  -7.885  0.00  0.00    +0.260 C 
ATOM     11  O   LIG    1       -8.764   4.389  -6.552  0.00  0.00    -0.280 OA
ENDBRANCH   5  11
ENDBRANCH   1   8
BRANCH   2  12
ATOM     12  C   LIG    1       -2.960   3.161  -2.275  0.00  0.00    +0.300 C 
BRANCH  12  13
ATOM     13  C   LIG    1       -1.480   3.392  -2.588  0.00  0.00    +0.260 C 
BRANCH  13  14
ATOM     14  N   LIG    1       -0.666   3.001  -1.424  0.00  0.00    -0.380 N 
ATOM     15  C   LIG    1        0.735   3.338  -1.690  0.00  0.00    +0.260 C 
ATOM     16  C   LIG    1        1.615   3.010  -0.492  0.00  0.00    +0.000 C 
ATOM     17  C   LIG    1        1.428   1.585  -0.003  0.00  0.00    +0.040 C 
ATOM     18  C   LIG    1       -0.013   1.105   0.008  0.00  0.00    +0.000 C 
ATOM     19  C   LIG    1       -0.733   1.533   1.286  0.00  0.00    +0.040 C 
ATOM     20  C   LIG    1        1.392   4.019   0.635  0.00  0.00    +0.040 C 
ATOM     21  C   LIG    1       -0.788   1.555  -1.223  0.00  0.00    +0.250 C 
ATOM     22  H   LIG    1       -1.001   3.499  -0.617  0.00  0.00    +0.420 HD
ENDBRANCH  13  14
ENDBRANCH  12  13
ENDBRANCH   2  12
TORSDOF 5
