REMARK  Name = ZINCkj000005iB9x.1
REMARK                            x       y       z     vdW  Elec       q    Type
REMARK                         _______ _______ _______ _____ _____    ______ ____
ROOT
ATOM      1  C   LIG    1        3.503   0.994  -0.026  0.00  0.00    +0.620 C 
ATOM      2  N   LIG    1        4.021   2.238  -0.025  0.00  0.00    -0.720 N 
ATOM      3  H   LIG    1        3.431   3.009  -0.015  0.00  0.00    +0.420 HD
ATOM      4  O   LIG    1        4.242   0.028  -0.039  0.00  0.00    -0.490 OA
ENDROOT
BRANCH   1   8
ATOM      5  C   LIG    1        0.002  -0.004   0.002  0.00  0.00    +0.210 A 
ATOM      6  N   LIG    1       -0.016   1.301   0.009  0.00  0.00    -0.380 NA
ATOM      7  O   LIG    1        1.100   1.767   0.001  0.00  0.00    +0.120 OA
ATOM      8  C   LIG    1        2.040   0.803  -0.013  0.00  0.00    -0.090 A 
ATOM      9  C   LIG    1        1.368  -0.387  -0.013  0.00  0.00    +0.070 A 
BRANCH   5  11
ATOM     10  C   LIG    1       -2.364  -0.218   0.023  0.00  0.00    +0.260 C 
ATOM     11  O   LIG    1       -1.074  -0.832   0.008  0.00  0.00    -0.280 OA
ENDBRANCH   5  11
ENDBRANCH   1   8
BRANCH   2  12
ATOM     12  C   LIG    1        5.473   2.427  -0.038  0.00  0.00    +0.300 C 
BRANCH  12  13
ATOM     13  C   LIG    1        5.793   3.924  -0.033  0.00  0.00    +0.260 C 
BRANCH  13  14
ATOM     14  N   LIG    1        7.250   4.113  -0.046  0.00  0.00    -0.380 N 
ATOM     15  C   LIG    1        7.554   5.545  -0.162  0.00  0.00    +0.260 C 
ATOM     16  C   LIG    1        9.068   5.742  -0.258  0.00  0.00    -0.020 C 
ATOM     17  C   LIG    1        9.732   5.177   1.002  0.00  0.00    +0.050 C 
ATOM     18  C   LIG    1        9.347   3.703   1.153  0.00  0.00    -0.010 C 
ATOM     19  C   LIG    1        9.941   3.150   2.450  0.00  0.00    +0.070 C 
ATOM     20  C   LIG    1        9.383   7.234  -0.376  0.00  0.00    +0.070 C 
ATOM     21  C   LIG    1        7.822   3.581   1.196  0.00  0.00    +0.250 C 
ATOM     22  H   LIG    1        7.644   3.622  -0.834  0.00  0.00    +0.430 HD
ENDBRANCH  13  14
ENDBRANCH  12  13
ENDBRANCH   2  12
TORSDOF 5
