REMARK  Name = ZINCvU0000000Djf.0
REMARK                            x       y       z     vdW  Elec       q    Type
REMARK                         _______ _______ _______ _____ _____    ______ ____
ROOT
ATOM      1  C   LIG    1       -2.182   2.068   1.012  0.00  0.00    +0.160 A 
ATOM      2  N   LIG    1       -3.168   2.840   0.614  0.00  0.00    -0.280 NA
ATOM      3  N   LIG    1       -2.913   3.322  -0.549  0.00  0.00    -0.250 NA
ATOM      4  C   LIG    1       -1.742   2.893  -0.967  0.00  0.00    +0.270 A 
ATOM      5  N   LIG    1       -1.239   2.070   0.019  0.00  0.00    -0.410 N 
ENDROOT
BRANCH   5   6
ATOM      6  C   LIG    1       -0.017   1.384   0.010  0.00  0.00    +0.100 A 
ATOM      7  C   LIG    1        1.178   2.092   0.002  0.00  0.00    +0.050 A 
ATOM      8  C   LIG    1        2.381   1.413  -0.014  0.00  0.00    +0.030 A 
ATOM      9  C   LIG    1        2.396   0.031  -0.021  0.00  0.00    +0.030 A 
ATOM     10  C   LIG    1        1.208  -0.677  -0.013  0.00  0.00    +0.030 A 
ATOM     11  C   LIG    1        0.002  -0.004   0.002  0.00  0.00    +0.040 A 
ENDBRANCH   5   6
BRANCH   4  12
ATOM     12  C   LIG    1       -1.094   3.225  -2.245  0.00  0.00    +0.030 A 
ATOM     13  C   LIG    1       -1.700   3.788  -3.328  0.00  0.00    +0.030 A 
ATOM     14  C   LIG    1       -0.709   3.930  -4.318  0.00  0.00    -0.050 A 
ATOM     15  C   LIG    1        0.438   3.444  -3.804  0.00  0.00    +0.200 A 
ATOM     16  O   LIG    1        0.203   3.019  -2.552  0.00  0.00    -0.170 OA
ENDBRANCH   4  12
BRANCH   1  17
ATOM     17  S   LIG    1       -2.090   1.194   2.539  0.00  0.00    +0.100 S 
BRANCH  17  18
ATOM     18  C   LIG    1       -3.667   1.687   3.279  0.00  0.00    +0.110 C 
BRANCH  18  21
ATOM     19  C   LIG    1       -5.973   2.138   4.862  0.00  0.00    +0.300 C 
ATOM     20  N   LIG    1       -4.914   1.264   5.373  0.00  0.00    -0.600 N 
ATOM     21  C   LIG    1       -3.811   1.039   4.632  0.00  0.00    +0.530 C 
ATOM     22  O   LIG    1       -2.933   0.316   5.055  0.00  0.00    -0.500 OA
BRANCH  20  23
ATOM     23  C   LIG    1       -5.054   0.635   6.688  0.00  0.00    +0.370 C 
BRANCH  23  24
ATOM     24  C   LIG    1       -4.469   1.539   7.742  0.00  0.00    -0.140 A 
ATOM     25  C   LIG    1       -5.267   2.483   8.366  0.00  0.00    +0.120 A 
ATOM     26  C   LIG    1       -4.728   3.313   9.335  0.00  0.00    -0.010 A 
ATOM     27  C   LIG    1       -3.395   3.199   9.679  0.00  0.00    +0.070 A 
ATOM     28  C   LIG    1       -2.598   2.257   9.056  0.00  0.00    +0.010 A 
ATOM     29  F   LIG    1       -6.571   2.594   8.030  0.00  0.00    -0.130 F 
ATOM     30  C   LIG    1       -3.135   1.423   8.092  0.00  0.00    +0.000 A 
ATOM     31 CL   LIG    1       -2.135   0.235   7.316  0.00  0.00    -0.010 Cl
ENDBRANCH  23  24
ENDBRANCH  20  23
ENDBRANCH  18  21
ENDBRANCH  17  18
ENDBRANCH   1  17
TORSDOF 7
