REMARK  Name = ZINCqH0000034t5G.0
REMARK                            x       y       z     vdW  Elec       q    Type
REMARK                         _______ _______ _______ _____ _____    ______ ____
ROOT
ATOM      1  C   LIG    1       -3.236   1.948  -1.107  0.00  0.00    +0.300 C 
ATOM      2  N   LIG    1       -2.076   1.067  -1.263  0.00  0.00    -0.590 N 
ATOM      3  C   LIG    1       -2.243  -0.270  -1.278  0.00  0.00    +0.560 C 
ATOM      4  O   LIG    1       -1.278  -1.002  -1.382  0.00  0.00    -0.500 OA
ENDROOT
BRANCH   3   5
ATOM      5  C   LIG    1       -3.602  -0.849  -1.167  0.00  0.00    +0.110 A 
ATOM      6  N   LIG    1       -4.635  -0.052  -0.918  0.00  0.00    -0.430 NA
ATOM      7  C   LIG    1       -5.859  -0.517  -0.816  0.00  0.00    +0.330 A 
ATOM      8  C   LIG    1       -6.119  -1.884  -0.958  0.00  0.00    -0.040 A 
ATOM      9  C   LIG    1       -5.055  -2.756  -1.216  0.00  0.00    +0.140 A 
ATOM     10  C   LIG    1       -3.780  -2.224  -1.321  0.00  0.00    -0.040 A 
ATOM     11 CL   LIG    1       -2.421  -3.256  -1.640  0.00  0.00    +0.010 Cl
BRANCH   8  12
ATOM     12  C   LIG    1       -7.455  -2.385  -0.840  0.00  0.00    +0.250 C 
ATOM     13  N   LIG    1       -8.515  -2.783  -0.747  0.00  0.00    -0.380 NA
ENDBRANCH   8  12
ENDBRANCH   3   5
BRANCH   2  14
ATOM     14  C   LIG    1       -0.735   1.639  -1.402  0.00  0.00    +0.240 C 
ATOM     15  C   LIG    1        0.154   1.149  -0.255  0.00  0.00    +0.000 C 
ATOM     16  C   LIG    1       -0.416   1.652   1.074  0.00  0.00    +0.220 C 
ATOM     17  O   LIG    1       -0.500   3.078   1.045  0.00  0.00    -0.370 OA
ATOM     18  C   LIG    1       -1.355   3.593   0.022  0.00  0.00    +0.200 C 
ATOM     19  C   LIG    1       -0.822   3.168  -1.348  0.00  0.00    +0.030 C 
BRANCH  18  20
ATOM     20  C   LIG    1       -1.388   5.097   0.105  0.00  0.00    -0.100 A 
ATOM     21  C   LIG    1       -0.230   5.799   0.382  0.00  0.00    +0.080 A 
ATOM     22  C   LIG    1       -0.258   7.179   0.452  0.00  0.00    -0.020 A 
ATOM     23  C   LIG    1       -1.449   7.858   0.256  0.00  0.00    +0.100 A 
ATOM     24  C   LIG    1       -2.610   7.153  -0.016  0.00  0.00    -0.010 A 
ATOM     25  F   LIG    1       -1.479   9.206   0.331  0.00  0.00    -0.140 F 
ATOM     26  C   LIG    1       -2.578   5.773  -0.092  0.00  0.00    +0.050 A 
ENDBRANCH  18  20
ENDBRANCH   2  14
TORSDOF 4
