REMARK  Name = ZINCrH00000tj1e6.0
REMARK                            x       y       z     vdW  Elec       q    Type
REMARK                         _______ _______ _______ _____ _____    ______ ____
ROOT
ATOM      1  C   LIG    1        0.729  -0.113  -1.656  0.00  0.00    -0.030 C 
ATOM      2  C   LIG    1       -0.053   0.182  -0.375  0.00  0.00    +0.040 C 
ATOM      3  C   LIG    1       -0.062   1.694  -0.123  0.00  0.00    +0.280 C 
ATOM      4  N   LIG    1        1.324   2.179  -0.109  0.00  0.00    -0.600 N 
ATOM      5  C   LIG    1        2.192   1.871  -1.254  0.00  0.00    +0.280 C 
ATOM      6  C   LIG    1        1.791   2.893   0.934  0.00  0.00    +0.550 C 
ATOM      7  O   LIG    1        1.043   3.208   1.839  0.00  0.00    -0.500 OA
ATOM      8  C   LIG    1        2.176   0.358  -1.493  0.00  0.00    +0.050 C 
ENDROOT
BRANCH   6   9
ATOM      9  C   LIG    1        3.213   3.294   0.978  0.00  0.00    -0.100 A 
ATOM     10  C   LIG    1        3.772   4.012  -0.081  0.00  0.00    +0.050 A 
ATOM     11  C   LIG    1        5.100   4.383  -0.034  0.00  0.00    +0.040 A 
ATOM     12  C   LIG    1        5.878   4.044   1.059  0.00  0.00    +0.040 A 
ATOM     13  C   LIG    1        5.331   3.332   2.112  0.00  0.00    +0.050 A 
ATOM     14  C   LIG    1        4.003   2.960   2.080  0.00  0.00    -0.070 A 
ATOM     15  I   LIG    1        3.174   1.889   3.679  0.00  0.00    -0.020 I 
ENDBRANCH   6   9
BRANCH   1  17
ATOM     16  O   LIG    1        0.556  -2.376  -1.009  0.00  0.00    -0.440 OA
ATOM     17  C   LIG    1        0.711  -1.596  -1.925  0.00  0.00    +0.410 C 
BRANCH  17  18
ATOM     18  C   LIG    1        0.882  -2.096  -3.295  0.00  0.00    -0.170 A 
ATOM     19  C   LIG    1        1.055  -1.198  -4.354  0.00  0.00    +0.070 A 
ATOM     20  C   LIG    1        1.219  -1.671  -5.637  0.00  0.00    +0.010 A 
ATOM     21  C   LIG    1        1.202  -3.038  -5.887  0.00  0.00    +0.090 A 
ATOM     22  O   LIG    1        1.356  -3.481  -7.163  0.00  0.00    -0.300 OA
ATOM     23  C   LIG    1        1.711  -4.858  -7.329  0.00  0.00    +0.230 C 
ATOM     24  C   LIG    1        0.805  -5.700  -6.421  0.00  0.00    +0.230 C 
ATOM     25  O   LIG    1        1.012  -5.281  -5.068  0.00  0.00    -0.300 OA
ATOM     26  C   LIG    1        1.026  -3.939  -4.838  0.00  0.00    +0.040 A 
ATOM     27  C   LIG    1        0.866  -3.473  -3.548  0.00  0.00    +0.100 A 
ENDBRANCH  17  18
ENDBRANCH   1  17
TORSDOF 3
