REMARK  Name = ZINCpk00000xI30n.0
REMARK                            x       y       z     vdW  Elec       q    Type
REMARK                         _______ _______ _______ _____ _____    ______ ____
ROOT
ATOM      1  C   LIG    1        2.910   1.665   3.704  0.00  0.00    +0.210 C 
ENDROOT
BRANCH   1   4
ATOM      2  N   LIG    1        2.872   1.356   1.250  0.00  0.00    -0.740 N 
ATOM      3  H   LIG    1        2.321   0.570   1.389  0.00  0.00    +0.410 HD
ATOM      4  C   LIG    1        3.294   2.079   2.306  0.00  0.00    +0.520 C 
ATOM      5  O   LIG    1        3.983   3.062   2.132  0.00  0.00    -0.500 OA
BRANCH   2   7
ATOM      6  C   LIG    1        4.769   1.789  -0.246  0.00  0.00    +0.070 C 
ATOM      7  C   LIG    1        3.245   1.758  -0.109  0.00  0.00    +0.180 C 
ATOM      8  C   LIG    1        2.644   0.779  -1.132  0.00  0.00    +0.090 C 
ATOM      9  C   LIG    1        1.123   1.016  -1.209  0.00  0.00    -0.320 C 
ATOM     10  S   LIG    1        0.892   2.775  -0.764  0.00  0.00    +2.380 S 
ATOM     11  O   LIG    1        0.155   2.862   0.448  0.00  0.00    -0.930 OA
ATOM     12  O   LIG    1        0.463   3.498  -1.909  0.00  0.00    -0.940 OA
ATOM     13  C   LIG    1        2.654   3.155  -0.431  0.00  0.00    -0.300 C 
ENDBRANCH   2   7
ENDBRANCH   1   4
BRANCH   1  14
ATOM     14  N   LIG    1        3.490   2.607   4.670  0.00  0.00    -0.500 NA
BRANCH  14  15
ATOM     15  C   LIG    1        3.340   2.111   6.044  0.00  0.00    +0.180 C 
BRANCH  15  16
ATOM     16  C   LIG    1        4.353   0.991   6.295  0.00  0.00    +0.170 C 
ATOM     17  C   LIG    1        4.201   0.462   7.737  0.00  0.00    +0.010 C 
ATOM     18  C   LIG    1        5.677   0.224   8.158  0.00  0.00    +0.000 C 
ATOM     19  C   LIG    1        6.386   1.378   7.406  0.00  0.00    +0.190 C 
ATOM     20  O   LIG    1        5.684   1.501   6.159  0.00  0.00    -0.350 OA
ENDBRANCH  15  16
ENDBRANCH  14  15
BRANCH  14  21
ATOM     21  C   LIG    1        2.895   3.943   4.525  0.00  0.00    +0.270 C 
BRANCH  21  22
ATOM     22  C   LIG    1        3.758   4.957   5.230  0.00  0.00    -0.160 A 
ATOM     23  C   LIG    1        4.833   5.548   4.707  0.00  0.00    +0.030 A 
ATOM     24  C   LIG    1        5.469   6.448   5.545  0.00  0.00    +0.010 A 
ATOM     25  C   LIG    1        4.911   6.587   6.748  0.00  0.00    -0.050 A 
ATOM     26  S   LIG    1        3.498   5.547   6.867  0.00  0.00    +0.070 S 
ENDBRANCH  21  22
ENDBRANCH  14  21
ENDBRANCH   1  14
TORSDOF 7
