REMARK  Name = ZINCrH000004tzoM.0
REMARK                            x       y       z     vdW  Elec       q    Type
REMARK                         _______ _______ _______ _____ _____    ______ ____
ROOT
ATOM      1  C   LIG    1        1.468  -2.013  -0.023  0.00  0.00    +0.610 C 
ATOM      2  N   LIG    1        2.728  -2.477  -0.139  0.00  0.00    -0.600 N 
ATOM      3  C   LIG    1        3.949  -1.651  -0.158  0.00  0.00    +0.270 C 
ATOM      4  C   LIG    1        4.998  -2.512  -0.904  0.00  0.00    +0.060 C 
ATOM      5  C   LIG    1        4.649  -3.937  -0.398  0.00  0.00    +0.060 C 
ATOM      6  C   LIG    1        3.113  -3.890  -0.262  0.00  0.00    +0.320 C 
ATOM      7  O   LIG    1        0.536  -2.792   0.042  0.00  0.00    -0.520 OA
ENDROOT
BRANCH   6   8
ATOM      8  C   LIG    1        2.681  -4.647   0.968  0.00  0.00    +0.170 A 
ATOM      9  N   LIG    1        2.804  -4.250   2.207  0.00  0.00    -0.280 NA
ATOM     10  N   LIG    1        2.324  -5.144   2.999  0.00  0.00    -0.290 NA
ATOM     11  C   LIG    1        1.871  -6.147   2.301  0.00  0.00    +0.180 A 
ATOM     12  C   LIG    1        1.208  -7.394   2.825  0.00  0.00    +0.150 C 
ATOM     13  C   LIG    1        1.808  -8.613   2.130  0.00  0.00    +0.020 C 
ATOM     14  C   LIG    1        1.048  -8.898   0.838  0.00  0.00    +0.020 C 
ATOM     15  C   LIG    1        0.560  -7.596   0.205  0.00  0.00    +0.030 C 
ATOM     16  C   LIG    1        1.760  -6.712  -0.148  0.00  0.00    +0.280 C 
ATOM     17  N   LIG    1        2.089  -5.862   0.996  0.00  0.00    -0.460 N 
ENDBRANCH   6   8
BRANCH   1  23
ATOM     18  C   LIG    1       -0.937   3.638   0.122  0.00  0.00    +0.210 A 
ATOM     19  C   LIG    1        0.351   4.173   0.182  0.00  0.00    -0.020 A 
ATOM     20  C   LIG    1        1.443   3.341   0.183  0.00  0.00    +0.090 A 
ATOM     21  C   LIG    1        1.278   1.953   0.124  0.00  0.00    -0.190 A 
ATOM     22  S   LIG    1        2.472   0.661   0.111  0.00  0.00    +0.130 S 
ATOM     23  C   LIG    1        1.219  -0.565   0.025  0.00  0.00    -0.220 A 
ATOM     24  C   LIG    1        0.007  -0.000   0.010  0.00  0.00    +0.110 A 
ATOM     25  C   LIG    1       -0.009   1.403   0.064  0.00  0.00    -0.040 A 
ATOM     26  C   LIG    1       -1.122   2.276   0.069  0.00  0.00    -0.030 A 
BRANCH  18  27
ATOM     27  N   LIG    1       -2.045   4.492   0.122  0.00  0.00    -0.880 N 
ATOM     28  H   LIG    1       -2.942   4.123   0.080  0.00  0.00    +0.400 HD
ATOM     29  H   LIG    1       -1.917   5.453   0.163  0.00  0.00    +0.400 HD
ENDBRANCH  18  27
ENDBRANCH   1  23
TORSDOF 3
