REMARK  Name = ZINCrg000000oDX7.0
REMARK                            x       y       z     vdW  Elec       q    Type
REMARK                         _______ _______ _______ _____ _____    ______ ____
ROOT
ATOM      1  C   LIG    1       -0.010   1.218   0.024  0.00  0.00    +0.510 C 
ATOM      2  N   LIG    1        1.151   1.902   0.001  0.00  0.00    -0.590 N 
ATOM      3  O   LIG    1        0.000   0.005   0.011  0.00  0.00    -0.510 OA
ENDROOT
BRANCH   2   4
ATOM      4  C   LIG    1        1.138   3.363  -0.102  0.00  0.00    +0.230 C 
ATOM      5  C   LIG    1        1.799   3.790  -1.416  0.00  0.00    +0.000 C 
ATOM      6  C   LIG    1        1.852   5.319  -1.479  0.00  0.00    +0.220 C 
ATOM      7  O   LIG    1        2.566   5.816  -0.345  0.00  0.00    -0.380 OA
ATOM      8  C   LIG    1        1.969   5.488   0.910  0.00  0.00    +0.220 C 
ATOM      9  C   LIG    1        1.920   3.966   1.069  0.00  0.00    -0.000 C 
ENDBRANCH   2   4
BRANCH   1  10
ATOM     10  C   LIG    1       -1.321   1.960   0.058  0.00  0.00    +0.370 C 
BRANCH  10  13
ATOM     11  N   LIG    1       -3.939  -0.312   1.094  0.00  0.00    -0.540 N 
ATOM     12  C   LIG    1       -2.945   0.558   1.349  0.00  0.00    +0.690 A 
ATOM     13  N   LIG    1       -2.421   1.002   0.191  0.00  0.00    -0.530 N 
ATOM     14  C   LIG    1       -3.108   0.399  -0.860  0.00  0.00    +0.100 A 
ATOM     15  C   LIG    1       -3.003   0.485  -2.240  0.00  0.00    +0.030 A 
ATOM     16  C   LIG    1       -3.849  -0.255  -3.042  0.00  0.00    +0.020 A 
ATOM     17  C   LIG    1       -4.802  -1.083  -2.474  0.00  0.00    +0.020 A 
ATOM     18  C   LIG    1       -4.909  -1.182  -1.101  0.00  0.00    +0.020 A 
ATOM     19  O   LIG    1       -2.574   0.893   2.459  0.00  0.00    -0.550 OA
ATOM     20  C   LIG    1       -4.067  -0.439  -0.287  0.00  0.00    +0.100 A 
BRANCH  11  22
ATOM     21  C   LIG    1       -5.979  -0.163   2.435  0.00  0.00    +0.030 C 
ATOM     22  C   LIG    1       -4.749  -1.008   2.097  0.00  0.00    +0.310 C 
ENDBRANCH  11  22
ENDBRANCH  10  13
ENDBRANCH   1  10
BRANCH   2  23
ATOM     23  C   LIG    1        2.426   1.184   0.079  0.00  0.00    +0.380 C 
BRANCH  23  24
ATOM     24  C   LIG    1        2.894   0.838  -1.311  0.00  0.00    +0.440 C 
ATOM     25  O   LIG    1        2.231   1.159  -2.269  0.00  0.00    -0.490 OA
BRANCH  24  26
ATOM     26  O   LIG    1        4.047   0.174  -1.485  0.00  0.00    -0.360 OA
ATOM     27  C   LIG    1        4.436  -0.125  -2.851  0.00  0.00    +0.260 C 
ENDBRANCH  24  26
ENDBRANCH  23  24
ENDBRANCH   2  23
TORSDOF 7
