REMARK  Name = ZINCkj000005ldgj.0
REMARK                            x       y       z     vdW  Elec       q    Type
REMARK                         _______ _______ _______ _____ _____    ______ ____
ROOT
ATOM      1  N   LIG    1       -0.216   5.538   0.034  0.00  0.00    -0.460 N 
ATOM      2  C   LIG    1        0.534   6.101   1.164  0.00  0.00    +0.200 C 
ATOM      3  C   LIG    1        0.548   7.628   1.059  0.00  0.00    +0.070 C 
ATOM      4  C   LIG    1       -0.892   8.148   1.069  0.00  0.00    +0.050 C 
ATOM      5  C   LIG    1       -1.666   7.509  -0.088  0.00  0.00    +0.060 C 
ATOM      6  C   LIG    1       -1.615   5.986   0.050  0.00  0.00    +0.230 C 
ENDROOT
BRANCH   1  10
ATOM      7  C   LIG    1       -0.017   1.428   0.010  0.00  0.00    -0.060 A 
ATOM      8  C   LIG    1       -1.229   2.119   0.019  0.00  0.00    +0.360 A 
ATOM      9  N   LIG    1       -1.252   3.436   0.033  0.00  0.00    -0.500 NA
ATOM     10  C   LIG    1       -0.138   4.153   0.026  0.00  0.00    +0.310 A 
ATOM     11  C   LIG    1        1.113   3.535   0.011  0.00  0.00    +0.040 A 
ATOM     12  F   LIG    1        2.242   4.276   0.004  0.00  0.00    -0.110 F 
ATOM     13  C   LIG    1        1.183   2.156   0.002  0.00  0.00    +0.130 A 
BRANCH   7  15
ATOM     14  N   LIG    1        0.018  -1.140  -0.004  0.00  0.00    -0.380 NA
ATOM     15  C   LIG    1        0.002  -0.004   0.002  0.00  0.00    +0.240 C 
ENDBRANCH   7  15
ENDBRANCH   1  10
BRANCH   5  16
ATOM     16  C   LIG    1       -3.100   7.971  -0.051  0.00  0.00    +0.520 C 
ATOM     17  N   LIG    1       -4.030   7.325   0.612  0.00  0.00    -0.630 NA
ATOM     18  C   LIG    1       -5.315   8.026   0.454  0.00  0.00    +0.320 C 
ATOM     19  C   LIG    1       -4.954   9.222  -0.452  0.00  0.00    +0.320 C 
ATOM     20  H   LIG    1       -3.893   6.515   1.127  0.00  0.00    +0.460 HD
ATOM     21  N   LIG    1       -3.511   9.044  -0.684  0.00  0.00    -0.630 NA
ATOM     22  H   LIG    1       -2.953   9.628  -1.221  0.00  0.00    +0.460 HD
ENDBRANCH   5  16
TORSDOF 3
