REMARK  Name = ZINCnE000001IQmH.0
REMARK                            x       y       z     vdW  Elec       q    Type
REMARK                         _______ _______ _______ _____ _____    ______ ____
ROOT
ATOM      1  C   LIG    1       -1.932  -3.170   2.464  0.00  0.00    +0.290 C 
ATOM      2  N   LIG    1       -1.013  -3.763   1.489  0.00  0.00    -0.620 N 
ATOM      3  C   LIG    1       -0.220  -4.791   1.850  0.00  0.00    +0.580 C 
ATOM      4  O   LIG    1        0.612  -5.219   1.073  0.00  0.00    -0.550 OA
ENDROOT
BRANCH   3   5
ATOM      5  C   LIG    1       -0.360  -5.396   3.187  0.00  0.00    -0.310 A 
ATOM      6  C   LIG    1       -1.557  -5.261   3.896  0.00  0.00    +0.100 A 
ATOM      7  C   LIG    1       -1.684  -5.828   5.144  0.00  0.00    -0.140 A 
ATOM      8  C   LIG    1       -0.626  -6.535   5.702  0.00  0.00    +0.290 A 
ATOM      9  C   LIG    1        0.568  -6.674   5.004  0.00  0.00    -0.100 A 
ATOM     10  F   LIG    1        1.594  -7.362   5.550  0.00  0.00    -0.150 F 
ATOM     11  O   LIG    1       -0.758  -7.091   6.934  0.00  0.00    -0.680 OA
ATOM     12  C   LIG    1        0.704  -6.113   3.748  0.00  0.00    +0.170 A 
ATOM     13  F   LIG    1        1.861  -6.253   3.066  0.00  0.00    -0.130 F 
ENDBRANCH   3   5
BRANCH   2  14
ATOM     14  C   LIG    1       -0.957  -3.238   0.123  0.00  0.00    +0.370 C 
BRANCH  14  15
ATOM     15  C   LIG    1        0.073  -2.140   0.048  0.00  0.00    +0.080 A 
ATOM     16  C   LIG    1       -0.189  -0.829   0.168  0.00  0.00    -0.060 A 
ATOM     17  C   LIG    1        1.088  -0.124   0.034  0.00  0.00    -0.110 A 
ATOM     18  C   LIG    1        1.462   1.221   0.067  0.00  0.00    +0.050 A 
ATOM     19  C   LIG    1        2.775   1.564  -0.095  0.00  0.00    -0.030 A 
ATOM     20  C   LIG    1        3.740   0.586  -0.293  0.00  0.00    +0.020 A 
ATOM     21  C   LIG    1        3.393  -0.747  -0.330  0.00  0.00    -0.010 A 
ATOM     22  C   LIG    1        2.063  -1.119  -0.167  0.00  0.00    +0.100 A 
ATOM     23  N   LIG    1        1.413  -2.333  -0.153  0.00  0.00    -0.580 N 
ATOM     24  H   LIG    1        1.841  -3.195  -0.267  0.00  0.00    +0.420 HD
ENDBRANCH  14  15
ENDBRANCH   2  14
TORSDOF 3
