REMARK  Name = ZINCvU00000008Jd.0
REMARK                            x       y       z     vdW  Elec       q    Type
REMARK                         _______ _______ _______ _____ _____    ______ ____
ROOT
ATOM      1  C   LIG    1        7.557   0.976   0.226  0.00  0.00    +0.370 A 
ATOM      2  N   LIG    1        7.319  -0.236  -0.212  0.00  0.00    -0.530 NA
ATOM      3  C   LIG    1        8.307  -1.152  -0.333  0.00  0.00    +0.160 A 
ATOM      4  C   LIG    1        8.054  -2.443  -0.806  0.00  0.00    +0.030 A 
ATOM      5  C   LIG    1        9.087  -3.346  -0.909  0.00  0.00    +0.070 A 
ATOM      6  C   LIG    1       10.381  -2.992  -0.550  0.00  0.00    +0.000 A 
ATOM      7  C   LIG    1       10.657  -1.726  -0.082  0.00  0.00    +0.100 A 
ATOM      8  C   LIG    1        9.626  -0.795   0.032  0.00  0.00    -0.200 A 
ATOM      9  C   LIG    1        9.865   0.568   0.525  0.00  0.00    +0.560 A 
ATOM     10  O   LIG    1       10.978   0.934   0.854  0.00  0.00    -0.490 OA
ATOM     11  N   LIG    1        8.802   1.402   0.600  0.00  0.00    -0.480 N 
ENDROOT
BRANCH  11  12
ATOM     12  C   LIG    1        8.978   2.712   1.064  0.00  0.00    +0.100 A 
ATOM     13  C   LIG    1        8.849   2.994   2.417  0.00  0.00    +0.060 A 
ATOM     14  C   LIG    1        9.029   4.286   2.873  0.00  0.00    +0.030 A 
ATOM     15  C   LIG    1        9.326   5.300   1.981  0.00  0.00    +0.060 A 
ATOM     16  C   LIG    1        9.449   5.025   0.632  0.00  0.00    +0.050 A 
ATOM     17  C   LIG    1        9.276   3.734   0.170  0.00  0.00    -0.010 A 
ATOM     18 CL   LIG    1        9.431   3.389  -1.524  0.00  0.00    -0.050 Cl
ENDBRANCH  11  12
BRANCH   1  19
ATOM     19  S   LIG    1        6.211   2.107   0.345  0.00  0.00    +0.080 S 
BRANCH  19  21
ATOM     20  C   LIG    1        5.107   0.703  -1.722  0.00  0.00    +0.090 C 
ATOM     21  C   LIG    1        4.864   1.056  -0.253  0.00  0.00    +0.020 C 
BRANCH  21  22
ATOM     22  C   LIG    1        3.556   1.794  -0.124  0.00  0.00    +0.540 C 
ATOM     23  N   LIG    1        2.403   1.106  -0.015  0.00  0.00    -0.660 N 
ATOM     24  H   LIG    1        2.419   0.138   0.048  0.00  0.00    +0.420 HD
ATOM     25  O   LIG    1        3.542   3.006  -0.117  0.00  0.00    -0.500 OA
BRANCH  23  26
ATOM     26  C   LIG    1        1.181   1.788   0.008  0.00  0.00    +0.150 A 
ATOM     27  C   LIG    1        0.059   1.225  -0.586  0.00  0.00    +0.010 A 
ATOM     28  C   LIG    1       -1.145   1.902  -0.567  0.00  0.00    +0.050 A 
ATOM     29  C   LIG    1       -1.236   3.135   0.054  0.00  0.00    -0.050 A 
ATOM     30  C   LIG    1       -0.119   3.699   0.647  0.00  0.00    +0.050 A 
ATOM     31 CL   LIG    1       -2.752   3.981   0.083  0.00  0.00    -0.070 Cl
ATOM     32  C   LIG    1        1.088   3.028   0.626  0.00  0.00    +0.040 A 
ENDBRANCH  23  26
ENDBRANCH  21  22
ENDBRANCH  19  21
ENDBRANCH   1  19
TORSDOF 5
