REMARK  Name = ZINCpk00000e9cEN.0
REMARK                            x       y       z     vdW  Elec       q    Type
REMARK                         _______ _______ _______ _____ _____    ______ ____
ROOT
ATOM      1  C   LIG    1       -0.654   4.804   2.311  0.00  0.00    +0.500 C 
ATOM      2  N   LIG    1        0.208   4.037   1.614  0.00  0.00    -0.730 N 
ATOM      3  H   LIG    1        1.117   3.917   1.933  0.00  0.00    +0.400 HD
ATOM      4  O   LIG    1       -1.770   5.005   1.881  0.00  0.00    -0.510 OA
ENDROOT
BRANCH   1   5
ATOM      5  C   LIG    1       -0.231   5.412   3.623  0.00  0.00    +0.160 C 
BRANCH   5   6
ATOM      6  N   LIG    1       -0.764   6.777   3.725  0.00  0.00    -0.510 NA
ATOM      7  C   LIG    1       -1.882   6.977   2.791  0.00  0.00    +0.190 C 
ATOM      8  C   LIG    1       -2.445   8.389   2.972  0.00  0.00    +0.210 C 
ATOM      9  O   LIG    1       -1.397   9.343   2.775  0.00  0.00    -0.390 OA
ATOM     10  C   LIG    1       -0.292   9.178   3.668  0.00  0.00    +0.230 C 
ATOM     11  C   LIG    1        0.292   7.774   3.494  0.00  0.00    +0.140 C 
ENDBRANCH   5   6
BRANCH   5  12
ATOM     12  C   LIG    1       -0.774   4.565   4.776  0.00  0.00    +0.010 C 
BRANCH  12  14
ATOM     13  C   LIG    1        1.006   5.298   6.368  0.00  0.00    +0.000 C 
ATOM     14  C   LIG    1       -0.500   5.275   6.103  0.00  0.00    +0.030 C 
ENDBRANCH  12  14
BRANCH  12  15
ATOM     15  C   LIG    1       -2.282   4.374   4.602  0.00  0.00    +0.010 C 
ATOM     16  C   LIG    1       -2.542   3.177   3.685  0.00  0.00    -0.010 C 
ENDBRANCH  12  15
ENDBRANCH   5  12
ENDBRANCH   1   5
BRANCH   2  17
ATOM     17  C   LIG    1       -0.226   3.385   0.377  0.00  0.00    +0.420 C 
BRANCH  17  18
ATOM     18  C   LIG    1        0.918   2.593  -0.202  0.00  0.00    +0.110 A 
ATOM     19  N   LIG    1        1.810   3.031  -1.052  0.00  0.00    -0.220 NA
ATOM     20  N   LIG    1        2.647   2.098  -1.342  0.00  0.00    -0.280 NA
ATOM     21  C   LIG    1        2.326   0.997  -0.682  0.00  0.00    +0.200 A 
ATOM     22  C   LIG    1        2.884  -0.295  -0.623  0.00  0.00    +0.080 A 
ATOM     23  C   LIG    1        2.304  -1.233   0.174  0.00  0.00    +0.070 A 
ATOM     24  C   LIG    1        1.163  -0.901   0.924  0.00  0.00    +0.030 A 
ATOM     25  C   LIG    1        0.640   0.341   0.859  0.00  0.00    +0.230 A 
ATOM     26  N   LIG    1        1.210   1.291   0.064  0.00  0.00    -0.380 N 
ENDBRANCH  17  18
ENDBRANCH   2  17
TORSDOF 7
