REMARK  Name = ZINCkj000005kur1.0
REMARK                            x       y       z     vdW  Elec       q    Type
REMARK                         _______ _______ _______ _____ _____    ______ ____
ROOT
ATOM      1  C   UNK A  0        4.393  -0.183   2.118  0.00  0.00    +0.220 C 
ENDROOT
BRANCH   1   8
ATOM      2  C   UNK A  0        4.761   0.508   4.899  0.00  0.00    +0.090 C 
ATOM      3  C   UNK A  0        5.224  -0.832   4.389  0.00  0.00    -0.060 A 
ATOM      4  C   UNK A  0        5.820  -1.732   5.252  0.00  0.00    +0.030 A 
ATOM      5  C   UNK A  0        6.248  -2.960   4.782  0.00  0.00    +0.050 A 
ATOM      6  C   UNK A  0        6.077  -3.289   3.450  0.00  0.00    +0.030 A 
ATOM      7  C   UNK A  0        5.477  -2.390   2.588  0.00  0.00    +0.010 A 
ATOM      8  C   UNK A  0        5.048  -1.163   3.058  0.00  0.00    -0.140 A 
ENDBRANCH   1   8
BRANCH   1   9
ATOM      9  N   ALA A  1        4.990  -0.313   0.782  0.00  0.00    -0.500 N 
ATOM     10  H1  ALA A  1        4.401   0.147   0.104  0.00  0.00    +0.430 HD
ATOM     11  H2  ALA A  1        5.075  -1.290   0.545  0.00  0.00    +0.430 HD
BRANCH   9  12
ATOM     12  CA  ALA A  1        6.321   0.309   0.777  0.00  0.00    +0.170 C 
ATOM     13  CB  ALA A  1        7.265  -0.499   1.670  0.00  0.00    +0.100 C 
BRANCH  12  14
ATOM     14  C   ALA A  1        6.867   0.335  -0.651  0.00  0.00    +0.210 C 
BRANCH  14  15
ATOM     15  O   ALA A  1        7.074  -1.004  -1.106  0.00  0.00    -0.580 OA
ATOM     16  H   ALA A  1        7.421  -1.065  -2.007  0.00  0.00    +0.410 HD
ENDBRANCH  14  15
ENDBRANCH  12  14
ENDBRANCH   9  12
ENDBRANCH   1   9
BRANCH   1  17
ATOM     17  C   UNK A  0        2.894  -0.477   2.038  0.00  0.00    +0.230 C 
BRANCH  17  18
ATOM     18  N   UNK A  0        2.277   0.398   1.032  0.00  0.00    -0.560 NA
ATOM     19  C   UNK A  0        0.892  -0.012   0.756  0.00  0.00    +0.180 C 
ATOM     20  C   UNK A  0        0.308   0.887  -0.337  0.00  0.00    +0.230 C 
ATOM     21  O   UNK A  0        0.395   2.253   0.079  0.00  0.00    -0.380 OA
ATOM     22  C   UNK A  0        1.730   2.686   0.357  0.00  0.00    +0.230 C 
ATOM     23  C   UNK A  0        2.328   1.805   1.456  0.00  0.00    +0.140 C 
ENDBRANCH  17  18
ENDBRANCH   1  17
TORSDOF 7
