REMARK  Name = ZINCrg000000rFWm.0
REMARK                            x       y       z     vdW  Elec       q    Type
REMARK                         _______ _______ _______ _____ _____    ______ ____
ROOT
ATOM      1  C   LIG    1       -0.042   0.967   2.460  0.00  0.00    +0.520 C 
ATOM      2  N   LIG    1        0.098  -0.371   2.544  0.00  0.00    -0.610 N 
ATOM      3  C   LIG    1       -0.320  -1.245   1.437  0.00  0.00    +0.290 C 
ATOM      4  C   LIG    1        0.848  -2.183   1.096  0.00  0.00    +0.200 C 
ATOM      5  N   LIG    1        1.276  -2.886   2.313  0.00  0.00    -0.480 N 
ATOM      6  C   LIG    1        1.791  -1.946   3.318  0.00  0.00    +0.200 C 
ATOM      7  C   LIG    1        0.667  -0.997   3.747  0.00  0.00    +0.320 C 
ATOM      8  O   LIG    1        0.388   1.678   3.343  0.00  0.00    -0.530 OA
ENDROOT
BRANCH   5   9
ATOM      9  C   LIG    1        2.223  -3.869   2.016  0.00  0.00    +0.110 A 
ATOM     10  C   LIG    1        1.938  -4.868   1.089  0.00  0.00    +0.070 A 
ATOM     11  C   LIG    1        2.911  -5.818   0.825  0.00  0.00    +0.100 A 
ATOM     12  C   LIG    1        4.120  -5.751   1.492  0.00  0.00    +0.140 A 
ATOM     13  N   LIG    1        4.357  -4.795   2.369  0.00  0.00    -0.400 NA
ATOM     14  C   LIG    1        3.462  -3.869   2.646  0.00  0.00    +0.250 A 
BRANCH  12  15
ATOM     15  N   LIG    1        5.162  -6.765   1.219  0.00  0.00    +0.030 N 
ATOM     16  O   LIG    1        4.952  -7.652   0.411  0.00  0.00    -0.160 OA
ATOM     17  O   LIG    1        6.230  -6.714   1.802  0.00  0.00    -0.120 OA
ENDBRANCH  12  15
ENDBRANCH   5   9
BRANCH   1  19
ATOM     18  C   LIG    1        0.284   1.790   0.144  0.00  0.00    +0.060 C 
ATOM     19  C   LIG    1       -0.732   1.579   1.268  0.00  0.00    +0.240 C 
BRANCH  19  20
ATOM     20  N   LIG    1       -1.312   2.869   1.650  0.00  0.00    -0.720 N 
ATOM     21  H   LIG    1       -0.940   3.367   2.394  0.00  0.00    +0.410 HD
ATOM     22  C   LIG    1       -2.365   3.362   0.967  0.00  0.00    +0.600 C 
ATOM     23  O   LIG    1       -2.832   2.737   0.035  0.00  0.00    -0.530 OA
BRANCH  22  24
ATOM     24  C   LIG    1       -2.949   4.660   1.351  0.00  0.00    -0.240 A 
ATOM     25  C   LIG    1       -2.549   5.476   2.369  0.00  0.00    +0.240 A 
ATOM     26  O   LIG    1       -3.337   6.555   2.378  0.00  0.00    -0.170 OA
ATOM     27  C   LIG    1       -4.258   6.484   1.405  0.00  0.00    +0.170 A 
ATOM     28  C   LIG    1       -4.089   5.342   0.722  0.00  0.00    +0.000 A 
ENDBRANCH  22  24
ENDBRANCH  19  20
ENDBRANCH   1  19
TORSDOF 5
