REMARK  Name = ZINCpk00000eaExf.1
REMARK                            x       y       z     vdW  Elec       q    Type
REMARK                         _______ _______ _______ _____ _____    ______ ____
ROOT
ATOM      1  N   LIG    1        3.900  -1.183  -1.232  0.00  0.00    -0.660 NA
ATOM      2  H   LIG    1        3.684  -0.381  -1.804  0.00  0.00    +0.350 HD
ENDROOT
BRANCH   1   4
ATOM      3  C   LIG    1        6.187  -0.366  -1.546  0.00  0.00    +0.030 C 
ATOM      4  C   LIG    1        5.295  -1.603  -1.419  0.00  0.00    +0.170 C 
BRANCH   4   5
ATOM      5  C   LIG    1        5.406  -2.433  -2.672  0.00  0.00    +0.520 C 
ATOM      6  N   LIG    1        6.515  -3.163  -2.900  0.00  0.00    -0.610 N 
ATOM      7  C   LIG    1        7.579  -3.215  -1.894  0.00  0.00    +0.280 C 
ATOM      8  O   LIG    1        4.497  -2.443  -3.475  0.00  0.00    -0.510 OA
BRANCH   6   9
ATOM      9  C   LIG    1        6.658  -3.906  -4.155  0.00  0.00    +0.330 C 
BRANCH   9  10
ATOM     10  C   LIG    1        7.327  -3.032  -5.184  0.00  0.00    -0.110 A 
ATOM     11  C   LIG    1        6.564  -2.236  -6.017  0.00  0.00    +0.030 A 
ATOM     12  C   LIG    1        7.178  -1.430  -6.957  0.00  0.00    +0.000 A 
ATOM     13  C   LIG    1        8.556  -1.427  -7.071  0.00  0.00    +0.000 A 
ATOM     14  C   LIG    1        9.319  -2.228  -6.241  0.00  0.00    +0.000 A 
ATOM     15  C   LIG    1        8.705  -3.030  -5.297  0.00  0.00    +0.010 A 
ENDBRANCH   9  10
ENDBRANCH   6   9
ENDBRANCH   4   5
ENDBRANCH   1   4
BRANCH   1  16
ATOM     16  C   LIG    1        3.617  -0.912   0.184  0.00  0.00    +0.230 C 
BRANCH  16  17
ATOM     17  C   LIG    1        2.180  -0.486   0.337  0.00  0.00    -0.020 A 
ATOM     18  C   LIG    1        1.198  -1.432   0.561  0.00  0.00    +0.020 A 
ATOM     19  C   LIG    1       -0.120  -1.041   0.701  0.00  0.00    +0.120 A 
ATOM     20  C   LIG    1       -0.457   0.297   0.616  0.00  0.00    -0.670 A 
ATOM     21  C   LIG    1        0.525   1.244   0.392  0.00  0.00    +0.120 A 
ATOM     22  C   LIG    1        1.843   0.853   0.252  0.00  0.00    +0.000 A 
BRANCH  20  23
ATOM     23  S   LIG    1       -2.139   0.795   0.786  0.00  0.00    +2.700 S 
ATOM     24  O   LIG    1       -2.928  -0.336   0.445  0.00  0.00    -0.960 OA
ATOM     25  O   LIG    1       -2.254   2.050   0.129  0.00  0.00    -0.960 OA
BRANCH  23  26
ATOM     26  N   LIG    1       -2.404   1.084   2.395  0.00  0.00    -1.250 NA
ATOM     27  H   LIG    1       -3.279   1.371   2.698  0.00  0.00    +0.420 HD
ATOM     28  H   LIG    1       -1.684   0.965   3.034  0.00  0.00    +0.420 HD
ENDBRANCH  23  26
ENDBRANCH  20  23
ENDBRANCH  16  17
ENDBRANCH   1  16
TORSDOF 8
