REMARK  Name = ZINCkj000005lono.0
REMARK                            x       y       z     vdW  Elec       q    Type
REMARK                         _______ _______ _______ _____ _____    ______ ____
ROOT
ATOM      1  C   LIG    1       -0.842   5.908   0.042  0.00  0.00    -0.080 A 
ATOM      2  C   LIG    1       -1.213   6.237   1.332  0.00  0.00    +0.050 A 
ATOM      3  C   LIG    1       -1.375   5.243   2.279  0.00  0.00    +0.060 A 
ATOM      4  C   LIG    1       -1.165   3.921   1.936  0.00  0.00    +0.040 A 
ATOM      5  C   LIG    1       -0.794   3.592   0.646  0.00  0.00    +0.040 A 
ATOM      6  C   LIG    1       -0.638   4.585  -0.303  0.00  0.00    -0.140 A 
ENDROOT
BRANCH   1   7
ATOM      7  C   LIG    1       -0.666   6.991  -0.991  0.00  0.00    +0.320 C 
BRANCH   7   8
ATOM      8  N   LIG    1       -1.895   7.119  -1.779  0.00  0.00    -1.140 NA
ATOM      9  H   LIG    1       -2.570   6.424  -1.741  0.00  0.00    +0.410 HD
BRANCH   8  10
ATOM     10  S   LIG    1       -2.129   8.448  -2.739  0.00  0.00    +2.790 S 
ATOM     11  O   LIG    1       -1.840   9.582  -1.932  0.00  0.00    -0.960 OA
ATOM     12  O   LIG    1       -3.376   8.257  -3.393  0.00  0.00    -0.970 OA
BRANCH  10  13
ATOM     13  N   LIG    1       -0.970   8.408  -3.921  0.00  0.00    -1.260 NA
ATOM     14  H   LIG    1       -0.107   8.003  -3.742  0.00  0.00    +0.410 HD
ATOM     15  H   LIG    1       -1.154   8.790  -4.794  0.00  0.00    +0.430 HD
ENDBRANCH  10  13
ENDBRANCH   8  10
ENDBRANCH   7   8
ENDBRANCH   1   7
BRANCH   6  16
ATOM     16  C   LIG    1       -0.239   4.226  -1.711  0.00  0.00    +0.310 C 
BRANCH  16  17
ATOM     17  N   LIG    1       -1.437   4.170  -2.560  0.00  0.00    -0.390 N 
ATOM     18  C   LIG    1       -2.358   3.153  -2.009  0.00  0.00    +0.250 C 
ATOM     19  C   LIG    1       -3.419   2.727  -2.987  0.00  0.00    +0.050 C 
ATOM     20  C   LIG    1       -2.923   1.456  -3.711  0.00  0.00    +0.030 C 
ATOM     21  C   LIG    1       -1.956   1.761  -4.757  0.00  0.00    +0.030 C 
ATOM     22  C   LIG    1       -0.692   2.452  -4.199  0.00  0.00    +0.060 C 
ATOM     23  C   LIG    1       -1.017   3.900  -3.952  0.00  0.00    +0.250 C 
ATOM     24  H   LIG    1       -1.894   5.069  -2.530  0.00  0.00    +0.410 HD
ENDBRANCH  16  17
ENDBRANCH   6  16
TORSDOF 6
