REMARK  Name = ZINCpk00000y6yfy.0
REMARK                            x       y       z     vdW  Elec       q    Type
REMARK                         _______ _______ _______ _____ _____    ______ ____
ROOT
ATOM      1  C   LIG    1       -3.153   4.146  -0.947  0.00  0.00    +0.520 C 
ATOM      2  N   LIG    1       -4.343   4.775  -1.017  0.00  0.00    -0.610 N 
ATOM      3  C   LIG    1       -5.092   5.098   0.205  0.00  0.00    +0.280 C 
ATOM      4  C   LIG    1       -5.423   6.598   0.193  0.00  0.00    +0.020 C 
ATOM      5  C   LIG    1       -6.159   6.942  -1.104  0.00  0.00    +0.280 C 
ATOM      6  C   LIG    1       -5.255   6.639  -2.301  0.00  0.00    +0.020 C 
ATOM      7  C   LIG    1       -4.920   5.144  -2.317  0.00  0.00    +0.290 C 
ATOM      8  O   LIG    1       -2.547   3.881  -1.963  0.00  0.00    -0.530 OA
ENDROOT
BRANCH   5   9
ATOM      9  N   LIG    1       -6.509   8.364  -1.104  0.00  0.00    -0.630 N 
ATOM     10  C   LIG    1       -7.873   8.907  -1.192  0.00  0.00    +0.250 C 
ATOM     11  C   LIG    1       -7.667  10.433  -1.147  0.00  0.00    +0.250 C 
ATOM     12  N   LIG    1       -6.208  10.589  -1.048  0.00  0.00    -0.740 N 
ATOM     13  H   LIG    1       -5.735  11.435  -1.003  0.00  0.00    +0.430 HD
ATOM     14  C   LIG    1       -5.636   9.378  -1.030  0.00  0.00    +0.700 C 
ATOM     15  O   LIG    1       -4.434   9.214  -0.952  0.00  0.00    -0.580 OA
ENDBRANCH   5   9
BRANCH   1  16
ATOM     16  C   LIG    1       -2.575   3.774   0.394  0.00  0.00    +0.110 C 
BRANCH  16  19
ATOM     17  C   LIG    1       -0.167   5.343   0.102  0.00  0.00    +0.130 C 
ATOM     18  C   LIG    1       -0.096   3.838   0.057  0.00  0.00    -0.000 A 
ATOM     19  C   LIG    1       -1.248   3.088   0.197  0.00  0.00    -0.070 A 
ATOM     20  C   LIG    1       -1.184   1.707   0.149  0.00  0.00    +0.080 A 
ATOM     21  C   LIG    1        0.034   1.078  -0.026  0.00  0.00    +0.030 A 
ATOM     22  C   LIG    1        1.186   1.829  -0.166  0.00  0.00    +0.090 A 
ATOM     23  C   LIG    1        1.121   3.209  -0.124  0.00  0.00    -0.040 A 
BRANCH  23  24
ATOM     24  N   LIG    1        2.355   4.012  -0.274  0.00  0.00    +0.020 N 
ATOM     25  O   LIG    1        3.400   3.620   0.214  0.00  0.00    -0.160 OA
ATOM     26  O   LIG    1        2.325   5.066  -0.885  0.00  0.00    -0.150 OA
ENDBRANCH  23  24
ENDBRANCH  16  19
ENDBRANCH   1  16
TORSDOF 4
