REMARK  Name = ZINCvU0000000HA6.0
REMARK                            x       y       z     vdW  Elec       q    Type
REMARK                         _______ _______ _______ _____ _____    ______ ____
ROOT
ATOM      1  C   LIG    1       -2.536  -0.146   0.163  0.00  0.00    +0.220 C 
ATOM      2  C   LIG    1       -3.535  -1.307   0.422  0.00  0.00    +0.070 C 
ATOM      3  C   LIG    1       -2.633  -2.351   1.101  0.00  0.00    -0.010 C 
ATOM      4  C   LIG    1       -3.075  -3.795   0.932  0.00  0.00    +0.030 C 
ATOM      5  C   LIG    1       -1.987  -4.681   1.561  0.00  0.00    +0.010 C 
ATOM      6  C   LIG    1       -0.627  -4.442   0.911  0.00  0.00    +0.010 C 
ATOM      7  C   LIG    1       -0.237  -2.955   0.959  0.00  0.00    +0.040 C 
ATOM      8  C   LIG    1       -1.336  -2.178   0.259  0.00  0.00    +0.220 C 
ATOM      9  N   LIG    1       -1.177  -0.737   0.151  0.00  0.00    -0.590 N 
ATOM     10  C   LIG    1       -0.013  -0.066   0.052  0.00  0.00    +0.590 C 
ATOM     11  O   LIG    1        1.034  -0.675  -0.047  0.00  0.00    -0.520 OA
ENDROOT
BRANCH  10  12
ATOM     12  C   LIG    1       -0.009   1.413   0.065  0.00  0.00    -0.120 A 
ATOM     13  C   LIG    1       -1.173   2.119  -0.241  0.00  0.00    +0.000 A 
ATOM     14  C   LIG    1       -1.164   3.499  -0.221  0.00  0.00    +0.000 A 
ATOM     15  C   LIG    1       -0.001   4.182   0.089  0.00  0.00    +0.030 A 
ATOM     16  C   LIG    1        1.158   3.487   0.387  0.00  0.00    +0.010 A 
ATOM     17  C   LIG    1        1.161   2.108   0.377  0.00  0.00    +0.070 A 
ENDBRANCH  10  12
BRANCH   1  19
ATOM     18  O   LIG    1       -1.836   0.881   2.169  0.00  0.00    -0.490 OA
ATOM     19  C   LIG    1       -2.639   0.881   1.260  0.00  0.00    +0.510 C 
ATOM     20  N   LIG    1       -3.625   1.800   1.232  0.00  0.00    -0.670 N 
ATOM     21  H   LIG    1       -4.306   1.760   0.543  0.00  0.00    +0.420 HD
BRANCH  20  22
ATOM     22  C   LIG    1       -3.665   2.814   2.198  0.00  0.00    +0.120 A 
ATOM     23  C   LIG    1       -3.231   2.559   3.491  0.00  0.00    +0.110 A 
ATOM     24  C   LIG    1       -3.271   3.561   4.442  0.00  0.00    -0.170 A 
ATOM     25  C   LIG    1       -3.743   4.817   4.107  0.00  0.00    +0.090 A 
ATOM     26  C   LIG    1       -4.176   5.075   2.819  0.00  0.00    +0.020 A 
ATOM     27  C   LIG    1       -4.134   4.079   1.861  0.00  0.00    +0.110 A 
ATOM     28  F   LIG    1       -4.552   4.333   0.602  0.00  0.00    -0.130 F 
BRANCH  24  29
ATOM     29  C   LIG    1       -2.800   3.285   5.847  0.00  0.00    +0.510 C 
ATOM     30  F   LIG    1       -3.021   1.938   6.156  0.00  0.00    -0.170 F 
ATOM     31  F   LIG    1       -3.509   4.092   6.743  0.00  0.00    -0.170 F 
ATOM     32  F   LIG    1       -1.434   3.568   5.944  0.00  0.00    -0.170 F 
ENDBRANCH  24  29
ENDBRANCH  20  22
ENDBRANCH   1  19
TORSDOF 4
