REMARK  Name = ZINCrD00000hQ6YK.0
REMARK                            x       y       z     vdW  Elec       q    Type
REMARK                         _______ _______ _______ _____ _____    ______ ____
ROOT
ATOM      1  N   LIG    1        2.210  -3.530  -1.845  0.00  0.00    -0.730 N 
ATOM      2  H   LIG    1        2.738  -3.973  -1.162  0.00  0.00    +0.400 HD
ATOM      3  C   LIG    1        2.543  -3.659  -3.144  0.00  0.00    +0.720 C 
ATOM      4  N   LIG    1        3.610  -4.403  -3.496  0.00  0.00    -0.570 N 
ATOM      5  C   LIG    1        4.485  -5.112  -2.558  0.00  0.00    +0.260 C 
ATOM      6  C   LIG    1        5.537  -5.808  -3.437  0.00  0.00    +0.100 C 
ATOM      7  C   LIG    1        5.170  -5.419  -4.851  0.00  0.00    -0.140 A 
ATOM      8  C   LIG    1        5.757  -5.741  -6.060  0.00  0.00    +0.060 A 
ATOM      9  C   LIG    1        5.226  -5.253  -7.240  0.00  0.00    -0.110 A 
ATOM     10  C   LIG    1        4.107  -4.442  -7.208  0.00  0.00    -0.060 A 
ATOM     11  C   LIG    1        3.518  -4.120  -6.004  0.00  0.00    +0.010 A 
ATOM     12  C   LIG    1        3.528  -3.910  -8.494  0.00  0.00    +0.090 C 
ATOM     13  C   LIG    1        5.867  -5.604  -8.558  0.00  0.00    +0.090 C 
ATOM     14  C   LIG    1        4.048  -4.608  -4.808  0.00  0.00    +0.160 A 
ATOM     15  O   LIG    1        1.881  -3.104  -4.000  0.00  0.00    -0.560 OA
ENDROOT
BRANCH   1  20
ATOM     16  C   LIG    1        1.205  -2.203  -0.020  0.00  0.00    +0.210 C 
ATOM     17  O   LIG    1        0.088  -2.701   0.736  0.00  0.00    -0.360 OA
ATOM     18  C   LIG    1       -0.345  -3.919   0.093  0.00  0.00    +0.200 C 
ATOM     19  C   LIG    1       -0.228  -3.593  -1.417  0.00  0.00    +0.010 C 
ATOM     20  C   LIG    1        1.050  -2.720  -1.463  0.00  0.00    +0.250 C 
BRANCH  16  24
ATOM     21  C   LIG    1        1.101   2.024   0.002  0.00  0.00    +0.330 A 
ATOM     22  C   LIG    1        2.339   1.395  -0.013  0.00  0.00    -0.040 A 
ATOM     23  C   LIG    1        2.391   0.012  -0.020  0.00  0.00    +0.110 A 
ATOM     24  C   LIG    1        1.197  -0.696  -0.013  0.00  0.00    -0.190 A 
ATOM     25  C   LIG    1        0.002  -0.004   0.002  0.00  0.00    +0.330 A 
ATOM     26  N   LIG    1       -0.016   1.315   0.009  0.00  0.00    -0.540 NA
BRANCH  21  28
ATOM     27  C   LIG    1       -0.267   3.967   0.026  0.00  0.00    +0.260 C 
ATOM     28  O   LIG    1        1.036   3.380   0.010  0.00  0.00    -0.310 OA
ENDBRANCH  21  28
ENDBRANCH  16  24
ENDBRANCH   1  20
TORSDOF 3
