REMARK  Name = ZINCtV00001bB3GG.0
REMARK                            x       y       z     vdW  Elec       q    Type
REMARK                         _______ _______ _______ _____ _____    ______ ____
ROOT
ATOM      1  P   LIG    1       -1.442   1.766   0.018  0.00  0.00    +2.650 P 
ATOM      2  C   LIG    1       -1.595   2.770   1.538  0.00  0.00    -0.720 C 
ATOM      3  C   LIG    1       -2.751   2.648   2.205  0.00  0.00    +0.220 C 
ATOM      4  O   LIG    1       -3.770   1.876   1.820  0.00  0.00    -0.270 OA
ATOM      5  C   LIG    1       -3.778   0.831   0.989  0.00  0.00    +0.230 C 
ATOM      6  O   LIG    1       -1.556   2.629  -1.179  0.00  0.00    -1.010 OA
ATOM      7  C   LIG    1       -2.831   0.580   0.078  0.00  0.00    -0.740 C 
ENDROOT
BRANCH   5   8
ATOM      8  C   LIG    1       -4.912  -0.116   1.083  0.00  0.00    -0.080 A 
ATOM      9  C   LIG    1       -4.974  -1.222   0.236  0.00  0.00    +0.050 A 
ATOM     10  C   LIG    1       -6.031  -2.103   0.333  0.00  0.00    +0.010 A 
ATOM     11  C   LIG    1       -7.034  -1.886   1.259  0.00  0.00    +0.040 A 
ATOM     12  C   LIG    1       -6.982  -0.787   2.099  0.00  0.00    +0.010 A 
ATOM     13  C   LIG    1       -5.927   0.098   2.016  0.00  0.00    +0.050 A 
ENDBRANCH   5   8
BRANCH   3  14
ATOM     14  C   LIG    1       -2.911   3.427   3.454  0.00  0.00    -0.080 A 
ATOM     15  C   LIG    1       -1.876   4.246   3.905  0.00  0.00    +0.050 A 
ATOM     16  C   LIG    1       -2.034   4.974   5.067  0.00  0.00    +0.010 A 
ATOM     17  C   LIG    1       -3.210   4.885   5.789  0.00  0.00    +0.030 A 
ATOM     18  C   LIG    1       -4.238   4.070   5.349  0.00  0.00    +0.010 A 
ATOM     19  C   LIG    1       -4.095   3.341   4.186  0.00  0.00    +0.040 A 
ENDBRANCH   3  14
BRANCH   1  20
ATOM     20  N   LIG    1       -0.011   0.966   0.007  0.00  0.00    -1.100 N 
ATOM     21  H   LIG    1        0.002  -0.004   0.002  0.00  0.00    +0.420 HD
BRANCH  20  25
ATOM     22  C   LIG    1        3.555   3.090  -0.016  0.00  0.00    -0.210 A 
ATOM     23  C   LIG    1        3.572   1.689  -0.023  0.00  0.00    +0.120 A 
ATOM     24  C   LIG    1        2.397   0.995  -0.015  0.00  0.00    -0.050 A 
ATOM     25  C   LIG    1        1.182   1.677  -0.000  0.00  0.00    +0.230 A 
ATOM     26  C   LIG    1        1.161   3.070   0.002  0.00  0.00    -0.070 A 
ATOM     27  C   LIG    1        2.332   3.772  -0.001  0.00  0.00    +0.120 A 
BRANCH  22  29
ATOM     28  C   LIG    1        4.796   5.348  -0.017  0.00  0.00    +0.070 C 
ATOM     29  C   LIG    1        4.816   3.841  -0.025  0.00  0.00    +0.400 C 
ATOM     30  O   LIG    1        5.875   3.249  -0.039  0.00  0.00    -0.460 OA
ENDBRANCH  22  29
ENDBRANCH  20  25
ENDBRANCH   1  20
TORSDOF 5
