REMARK  Name = ZINCpe000027pHfA.0
REMARK                            x       y       z     vdW  Elec       q    Type
REMARK                         _______ _______ _______ _____ _____    ______ ____
ROOT
ATOM      1  C   LIG    1       -0.695   6.637  -2.629  0.00  0.00    +0.590 C 
ATOM      2  N   LIG    1       -0.280   5.811  -1.649  0.00  0.00    -0.610 N 
ATOM      3  C   LIG    1        0.226   6.229  -0.329  0.00  0.00    +0.250 C 
ATOM      4  C   LIG    1        1.112   5.051   0.147  0.00  0.00    +0.190 C 
ATOM      5  C   LIG    1        0.315   3.829  -0.381  0.00  0.00    +0.190 C 
ATOM      6  C   LIG    1       -0.259   4.342  -1.718  0.00  0.00    +0.260 C 
ATOM      7  O   LIG    1       -1.004   6.186  -3.716  0.00  0.00    -0.530 OA
ENDROOT
BRANCH   1  13
ATOM      8  C   LIG    1       -0.395   9.004  -3.381  0.00  0.00    +0.460 A 
ATOM      9  N   LIG    1       -0.473  10.307  -3.158  0.00  0.00    -0.540 NA
ATOM     10  C   LIG    1       -0.895  10.790  -2.006  0.00  0.00    +0.340 A 
ATOM     11  C   LIG    1       -1.282   9.951  -0.975  0.00  0.00    -0.110 A 
ATOM     12  C   LIG    1       -1.226   8.581  -1.155  0.00  0.00    +0.140 A 
ATOM     13  C   LIG    1       -0.775   8.089  -2.385  0.00  0.00    -0.260 A 
BRANCH   8  14
ATOM     14  N   LIG    1        0.059   8.542  -4.603  0.00  0.00    -0.700 N 
ATOM     15  H   LIG    1        0.190   7.591  -4.743  0.00  0.00    +0.420 HD
BRANCH  14  17
ATOM     16  C   LIG    1        1.365   8.876  -6.643  0.00  0.00    +0.030 C 
ATOM     17  C   LIG    1        0.342   9.488  -5.685  0.00  0.00    +0.230 C 
ATOM     18  C   LIG    1       -0.950   9.793  -6.446  0.00  0.00    +0.030 C 
ENDBRANCH  14  17
ENDBRANCH   8  14
ENDBRANCH   1  13
BRANCH   4  19
ATOM     19  O   LIG    1        1.205   5.024   1.573  0.00  0.00    -0.550 OA
ATOM     20  H   LIG    1        1.694   5.769   1.949  0.00  0.00    +0.390 HD
ENDBRANCH   4  19
BRANCH   5  21
ATOM     21  O   LIG    1        1.184   2.715  -0.598  0.00  0.00    -0.280 OA
BRANCH  21  22
ATOM     22  C   LIG    1        0.623   1.474  -0.548  0.00  0.00    -0.030 A 
ATOM     23  C   LIG    1        1.272   0.297  -0.726  0.00  0.00    +0.210 A 
ATOM     24  N   LIG    1        0.357  -0.699  -0.597  0.00  0.00    -0.370 N 
ATOM     25  N   LIG    1       -0.885  -0.110  -0.333  0.00  0.00    -0.270 NA
ATOM     26  C   LIG    1        0.624  -2.135  -0.714  0.00  0.00    +0.370 C 
ATOM     27  C   LIG    1       -0.727   1.189  -0.304  0.00  0.00    +0.180 A 
ENDBRANCH  21  22
ENDBRANCH   5  21
TORSDOF 6
