REMARK  Name = ZINCqH0000051Jmt.0
REMARK                            x       y       z     vdW  Elec       q    Type
REMARK                         _______ _______ _______ _____ _____    ______ ____
ROOT
ATOM      1  C   LIG    1        1.222  -0.681  -0.013  0.00  0.00    +0.010 A 
ATOM      2  C   LIG    1        2.408   0.036  -0.021  0.00  0.00    +0.010 A 
ATOM      3  C   LIG    1        2.380   1.419  -0.013  0.00  0.00    -0.050 A 
ATOM      4  C   LIG    1        1.172   2.090   0.002  0.00  0.00    +0.050 A 
ATOM      5  C   LIG    1       -0.017   1.382   0.010  0.00  0.00    -0.080 A 
ATOM      6  C   LIG    1        0.002  -0.004   0.002  0.00  0.00    +0.250 A 
ENDROOT
BRANCH   1  10
ATOM      7  C   LIG    1        2.444  -4.709  -0.005  0.00  0.00    +0.150 C 
ATOM      8  C   LIG    1        1.814  -4.113  -1.267  0.00  0.00    +0.050 C 
ATOM      9  C   LIG    1        1.932  -2.587  -1.218  0.00  0.00    +0.180 C 
ATOM     10  N   LIG    1        1.248  -2.081  -0.021  0.00  0.00    -0.490 N 
ATOM     11  C   LIG    1        1.865  -2.603   1.204  0.00  0.00    +0.190 C 
ATOM     12  C   LIG    1        1.746  -4.128   1.227  0.00  0.00    +0.000 C 
BRANCH   7  13
ATOM     13  O   LIG    1        2.287  -6.129  -0.019  0.00  0.00    -0.570 OA
ATOM     14  H   LIG    1        2.664  -6.574   0.753  0.00  0.00    +0.380 HD
ENDBRANCH   7  13
ENDBRANCH   1  10
BRANCH   6  15
ATOM     15  N   LIG    1       -1.200  -0.723   0.009  0.00  0.00    -0.730 N 
ATOM     16  H   LIG    1       -1.185  -1.692   0.004  0.00  0.00    +0.410 HD
BRANCH  15  17
ATOM     17  C   LIG    1       -2.479  -0.010   0.025  0.00  0.00    +0.320 C 
BRANCH  17  18
ATOM     18  C   LIG    1       -3.610  -1.006   0.030  0.00  0.00    -0.120 A 
ATOM     19  C   LIG    1       -4.276  -1.301  -1.144  0.00  0.00    +0.090 A 
ATOM     20  C   LIG    1       -5.314  -2.216  -1.139  0.00  0.00    -0.070 A 
ATOM     21  C   LIG    1       -5.686  -2.836   0.039  0.00  0.00    +0.080 A 
ATOM     22  C   LIG    1       -5.022  -2.543   1.216  0.00  0.00    -0.190 A 
ATOM     23  C   LIG    1       -5.442  -3.219   2.497  0.00  0.00    +0.300 C 
ATOM     24  O   LIG    1       -4.401  -3.070   3.472  0.00  0.00    -0.380 OA
ATOM     25  C   LIG    1       -3.940  -1.719   3.589  0.00  0.00    +0.440 C 
ATOM     26  O   LIG    1       -3.308  -1.345   2.361  0.00  0.00    -0.320 OA
ATOM     27 CL   LIG    1       -6.149  -2.586  -2.615  0.00  0.00    -0.060 Cl
ATOM     28  C   LIG    1       -3.978  -1.633   1.213  0.00  0.00    +0.160 A 
ENDBRANCH  17  18
ENDBRANCH  15  17
ENDBRANCH   6  15
TORSDOF 5
