REMARK  Name = ZINCrH000004juph.0
REMARK                            x       y       z     vdW  Elec       q    Type
REMARK                         _______ _______ _______ _____ _____    ______ ____
ROOT
ATOM      1  C   LIG    1       -1.017  -1.162   0.422  0.00  0.00    +0.290 C 
ATOM      2  N   LIG    1        0.043  -0.220   0.057  0.00  0.00    -0.600 N 
ATOM      3  C   LIG    1       -0.274   1.015  -0.381  0.00  0.00    +0.520 C 
ATOM      4  O   LIG    1        0.604   1.795  -0.683  0.00  0.00    -0.520 OA
ENDROOT
BRANCH   2   5
ATOM      5  C   LIG    1        1.449  -0.619   0.167  0.00  0.00    +0.370 C 
BRANCH   5   6
ATOM      6  C   LIG    1        1.730  -1.738  -0.802  0.00  0.00    +0.120 A 
ATOM      7  C   LIG    1        3.018  -1.934  -1.263  0.00  0.00    -0.020 A 
ATOM      8  C   LIG    1        3.267  -2.967  -2.155  0.00  0.00    +0.070 A 
ATOM      9  C   LIG    1        2.206  -3.766  -2.551  0.00  0.00    -0.030 A 
ATOM     10  C   LIG    1        0.945  -3.509  -2.048  0.00  0.00    +0.260 A 
ATOM     11  N   LIG    1        0.746  -2.522  -1.197  0.00  0.00    -0.470 NA
ENDBRANCH   5   6
BRANCH   5  12
ATOM     12  C   LIG    1        1.728  -1.089   1.571  0.00  0.00    -0.090 A 
ATOM     13  C   LIG    1        1.116  -0.467   2.643  0.00  0.00    +0.020 A 
ATOM     14  C   LIG    1        1.369  -0.900   3.931  0.00  0.00    +0.000 A 
ATOM     15  C   LIG    1        2.243  -1.950   4.148  0.00  0.00    +0.000 A 
ATOM     16  C   LIG    1        2.859  -2.568   3.076  0.00  0.00    +0.000 A 
ATOM     17  C   LIG    1        2.602  -2.138   1.788  0.00  0.00    +0.010 A 
ENDBRANCH   5  12
ENDBRANCH   2   5
BRANCH   3  18
ATOM     18  C   LIG    1       -1.720   1.424  -0.500  0.00  0.00    +0.220 C 
BRANCH  18  19
ATOM     19  N   LIG    1       -1.799   2.805  -0.995  0.00  0.00    -0.510 NA
ATOM     20  C   LIG    1       -3.180   3.159  -1.349  0.00  0.00    +0.240 C 
ATOM     21  C   LIG    1       -4.099   2.842  -0.163  0.00  0.00    +0.080 C 
ATOM     22  C   LIG    1       -3.478   3.435   1.084  0.00  0.00    -0.190 A 
ATOM     23  C   LIG    1       -2.197   3.846   1.165  0.00  0.00    -0.140 A 
ATOM     24  C   LIG    1       -1.852   4.358   2.410  0.00  0.00    +0.020 A 
ATOM     25  C   LIG    1       -2.823   4.362   3.320  0.00  0.00    -0.050 A 
ATOM     26  S   LIG    1       -4.290   3.692   2.620  0.00  0.00    +0.100 S 
ATOM     27  C   LIG    1       -1.240   3.747  -0.016  0.00  0.00    +0.310 C 
ENDBRANCH  18  19
ENDBRANCH   3  18
TORSDOF 5
