REMARK  Name = ZINCrH00000No4z8.0
REMARK                            x       y       z     vdW  Elec       q    Type
REMARK                         _______ _______ _______ _____ _____    ______ ____
ROOT
ATOM      1  O   LIG    1        3.601   9.871  -0.165  0.00  0.00    -0.510 OA
ATOM      2  C   LIG    1        2.438   9.597   0.065  0.00  0.00    +0.600 C 
ATOM      3  N   LIG    1        1.913   8.445  -0.397  0.00  0.00    -0.670 N 
ATOM      4  H   LIG    1        0.970   8.257  -0.270  0.00  0.00    +0.410 HD
ENDROOT
BRANCH   2   5
ATOM      5  C   LIG    1        1.609  10.519   0.846  0.00  0.00    -0.300 A 
ATOM      6  C   LIG    1        2.012  11.753   1.394  0.00  0.00    +0.130 A 
ATOM      7  C   LIG    1        3.229  12.450   1.380  0.00  0.00    +0.110 A 
ATOM      8  C   LIG    1        3.313  13.656   2.018  0.00  0.00    +0.050 A 
ATOM      9  C   LIG    1        2.184  14.169   2.671  0.00  0.00    +0.040 A 
ATOM     10  C   LIG    1        1.022  13.479   2.670  0.00  0.00    +0.280 A 
ATOM     11  F   LIG    1        4.305  11.936   0.745  0.00  0.00    -0.090 F 
ATOM     12  N   LIG    1        0.927  12.276   2.037  0.00  0.00    -0.250 N 
ATOM     13  N   LIG    1       -0.136  11.376   1.889  0.00  0.00    -0.300 NA
ATOM     14  C   LIG    1        0.256  10.345   1.187  0.00  0.00    +0.320 A 
ENDBRANCH   2   5
BRANCH   3  15
ATOM     15  C   LIG    1        2.727   7.522  -1.061  0.00  0.00    +0.180 A 
ATOM     16  C   LIG    1        3.768   7.966  -1.867  0.00  0.00    +0.040 A 
ATOM     17  C   LIG    1        4.570   7.052  -2.521  0.00  0.00    +0.040 A 
ATOM     18  C   LIG    1        4.338   5.697  -2.375  0.00  0.00    +0.020 A 
ATOM     19  C   LIG    1        3.303   5.251  -1.575  0.00  0.00    -0.080 A 
ATOM     20  C   LIG    1        2.821   3.858  -1.235  0.00  0.00    +0.280 C 
ATOM     21  N   LIG    1        1.980   4.010  -0.026  0.00  0.00    -0.410 N 
ATOM     22  C   LIG    1        1.462   5.393  -0.126  0.00  0.00    +0.270 C 
ATOM     23  C   LIG    1        2.496   6.161  -0.917  0.00  0.00    -0.140 A 
BRANCH  21  24
ATOM     24  C   LIG    1        0.944   3.090  -0.023  0.00  0.00    +0.220 A 
ATOM     25  N   LIG    1        1.094   1.802  -0.041  0.00  0.00    -0.490 NA
ATOM     26  C   LIG    1       -0.007   1.072  -0.035  0.00  0.00    +0.240 A 
ATOM     27  C   LIG    1       -1.139   1.777  -0.016  0.00  0.00    -0.090 A 
ATOM     28  S   LIG    1       -0.719   3.487   0.005  0.00  0.00    +0.100 S 
ENDBRANCH  21  24
ENDBRANCH   3  15
TORSDOF 3
