REMARK  Name = ZINCpe00000bTIOw.0
REMARK                            x       y       z     vdW  Elec       q    Type
REMARK                         _______ _______ _______ _____ _____    ______ ____
ROOT
ATOM      1  C   LIG    1       -1.397   8.556   0.491  0.00  0.00    +0.300 C 
ENDROOT
BRANCH   1   2
ATOM      2  N   LIG    1       -0.418   7.522   0.146  0.00  0.00    -0.610 N 
ATOM      3  C   LIG    1       -0.833   6.277  -0.161  0.00  0.00    +0.600 C 
ATOM      4  O   LIG    1       -2.023   6.033  -0.237  0.00  0.00    -0.530 OA
ATOM      5  C   LIG    1        1.012   7.841   0.136  0.00  0.00    +0.280 C 
BRANCH   3   6
ATOM      6  C   LIG    1        0.150   5.216  -0.404  0.00  0.00    -0.290 A 
ATOM      7  C   LIG    1        0.024   3.860  -0.046  0.00  0.00    +0.320 A 
ATOM      8  N   LIG    1       -0.941   3.176   0.570  0.00  0.00    -0.440 NA
ATOM      9  C   LIG    1       -0.819   1.885   0.788  0.00  0.00    +0.380 A 
ATOM     10  C   LIG    1        0.338   1.210   0.382  0.00  0.00    -0.050 A 
ATOM     11  C   LIG    1        1.324   1.900  -0.247  0.00  0.00    +0.360 A 
ATOM     12  N   LIG    1        1.166   3.236  -0.463  0.00  0.00    -0.310 N 
ATOM     13  N   LIG    1        1.988   4.193  -1.069  0.00  0.00    -0.310 NA
ATOM     14  C   LIG    1        1.397   5.359  -1.038  0.00  0.00    +0.330 A 
ENDBRANCH   3   6
ENDBRANCH   1   2
BRANCH   1  16
ATOM     15  C   LIG    1       -2.756   9.534   2.345  0.00  0.00    +0.030 C 
ATOM     16  C   LIG    1       -1.644   8.541   2.001  0.00  0.00    +0.210 C 
BRANCH  16  17
ATOM     17  N   LIG    1       -2.045   7.195   2.417  0.00  0.00    -0.710 N 
ATOM     18  H   LIG    1       -2.462   6.594   1.780  0.00  0.00    +0.420 HD
ATOM     19  C   LIG    1       -1.835   6.792   3.686  0.00  0.00    +0.530 C 
ATOM     20  O   LIG    1       -1.315   7.543   4.483  0.00  0.00    -0.540 OA
BRANCH  19  21
ATOM     21  C   LIG    1       -2.248   5.407   4.114  0.00  0.00    +0.090 C 
ATOM     22  C   LIG    1       -2.499   5.382   5.634  0.00  0.00    +0.030 C 
ATOM     23  C   LIG    1       -3.971   4.920   5.768  0.00  0.00    +0.000 C 
ATOM     24  C   LIG    1       -4.218   4.225   4.405  0.00  0.00    +0.210 C 
ATOM     25  C   LIG    1       -1.153   4.403   3.752  0.00  0.00    +0.050 C 
ATOM     26  O   LIG    1       -3.481   5.044   3.471  0.00  0.00    -0.360 OA
ENDBRANCH  19  21
ENDBRANCH  16  17
ENDBRANCH   1  16
TORSDOF 5
