REMARK  Name = ZINCb70000003XY6.0
REMARK                            x       y       z     vdW  Elec       q    Type
REMARK                         _______ _______ _______ _____ _____    ______ ____
ROOT
ATOM      1  C   LIG    1       -0.217   1.542   2.377  0.00  0.00    +0.140 C 
ATOM      2  C   LIG    1        1.069   2.378   2.386  0.00  0.00    +0.030 C 
ATOM      3  C   LIG    1        2.034   1.762   1.370  0.00  0.00    +0.060 C 
ATOM      4  C   LIG    1        1.406   1.691  -0.002  0.00  0.00    -0.060 C 
ATOM      5  C   LIG    1        1.150   3.086  -0.603  0.00  0.00    +0.220 C 
ATOM      6  O   LIG    1        0.138   2.868  -1.603  0.00  0.00    -0.380 OA
ATOM      7  C   LIG    1       -0.603   1.679  -1.300  0.00  0.00    +0.230 C 
ATOM      8  C   LIG    1       -0.013   1.086   0.008  0.00  0.00    +0.170 C 
ATOM      9  O   LIG    1       -0.786   1.608   1.088  0.00  0.00    -0.390 OA
ENDROOT
BRANCH   1  10
ATOM     10  C   LIG    1       -1.200   2.095   3.411  0.00  0.00    +0.290 C 
BRANCH  10  11
ATOM     11  N   LIG    1       -2.379   1.222   3.483  0.00  0.00    -0.640 N 
ATOM     12  H   LIG    1       -3.027   1.587   4.165  0.00  0.00    +0.440 HD
ATOM     13  H   LIG    1       -2.093   0.293   3.755  0.00  0.00    +0.430 HD
ATOM     14  H   LIG    1       -2.826   1.186   2.580  0.00  0.00    +0.440 HD
ENDBRANCH  10  11
ENDBRANCH   1  10
TORSDOF 2
