REMARK  Name = ZINCrD00000F5LCW.0
REMARK                            x       y       z     vdW  Elec       q    Type
REMARK                         _______ _______ _______ _____ _____    ______ ____
ROOT
ATOM      1  N   LIG    1        0.747   5.057   6.693  0.00  0.00    -0.620 N 
ATOM      2  C   LIG    1       -0.009   4.319   5.857  0.00  0.00    +0.710 C 
ATOM      3  N   LIG    1        0.495   3.908   4.677  0.00  0.00    -0.680 N 
ATOM      4  H   LIG    1        1.426   4.077   4.462  0.00  0.00    +0.410 HD
ATOM      5  O   LIG    1       -1.147   4.023   6.168  0.00  0.00    -0.560 OA
ENDROOT
BRANCH   3   6
ATOM      6  C   LIG    1       -0.324   3.237   3.760  0.00  0.00    +0.140 A 
ATOM      7  C   LIG    1        0.211   2.254   2.939  0.00  0.00    +0.070 A 
ATOM      8  C   LIG    1       -0.599   1.593   2.036  0.00  0.00    +0.010 A 
ATOM      9  C   LIG    1       -1.944   1.912   1.949  0.00  0.00    +0.170 A 
ATOM     10  C   LIG    1       -2.479   2.893   2.766  0.00  0.00    -0.680 A 
ATOM     11  F   LIG    1       -2.734   1.265   1.064  0.00  0.00    -0.120 F 
ATOM     12  C   LIG    1       -1.672   3.559   3.667  0.00  0.00    +0.170 A 
BRANCH  10  13
ATOM     13  S   LIG    1       -4.191   3.296   2.652  0.00  0.00    +2.500 S 
ATOM     14  O   LIG    1       -4.853   2.043   2.748  0.00  0.00    -0.920 OA
ATOM     15  O   LIG    1       -4.380   4.302   3.637  0.00  0.00    -0.930 OA
ATOM     16  C   LIG    1       -4.382   3.991   0.987  0.00  0.00    -0.250 C 
ENDBRANCH  10  13
ENDBRANCH   3   6
BRANCH   1  17
ATOM     17  C   LIG    1        0.199   5.503   7.976  0.00  0.00    +0.300 C 
BRANCH  17  18
ATOM     18  C   LIG    1        0.492   4.452   9.049  0.00  0.00    +0.080 C 
BRANCH  18  22
ATOM     19  C   LIG    1       -3.212   3.487  11.445  0.00  0.00    +0.090 C 
ATOM     20  C   LIG    1       -1.729   3.377  11.687  0.00  0.00    +0.000 C 
ATOM     21  C   LIG    1       -0.901   4.144  11.028  0.00  0.00    -0.160 C 
ATOM     22  C   LIG    1       -0.072   4.911  10.369  0.00  0.00    +0.000 C 
ENDBRANCH  18  22
ENDBRANCH  17  18
ENDBRANCH   1  17
BRANCH   1  23
ATOM     23  C   LIG    1        2.118   5.413   6.319  0.00  0.00    +0.390 C 
BRANCH  23  24
ATOM     24  C   LIG    1        2.111   6.723   5.574  0.00  0.00    -0.020 A 
ATOM     25  N   LIG    1        1.905   6.894   4.300  0.00  0.00    -0.350 NA
ATOM     26  O   LIG    1        1.961   8.062   3.994  0.00  0.00    +0.110 OA
ATOM     27  C   LIG    1        2.219   8.839   5.055  0.00  0.00    +0.170 A 
ATOM     28  C   LIG    1        2.322   8.009   6.121  0.00  0.00    -0.050 A 
ENDBRANCH  23  24
ENDBRANCH   1  23
TORSDOF 7
