REMARK  Name = ZINCrH000004ry7y.0
REMARK                            x       y       z     vdW  Elec       q    Type
REMARK                         _______ _______ _______ _____ _____    ______ ____
ROOT
ATOM      1  N   LIG    1       -6.726   1.344   1.706  0.00  0.00    -0.720 N 
ATOM      2  H   LIG    1       -7.332   1.163   0.970  0.00  0.00    +0.400 HD
ATOM      3  C   LIG    1       -5.460   1.733   1.456  0.00  0.00    +0.510 C 
ATOM      4  O   LIG    1       -4.703   1.959   2.376  0.00  0.00    -0.510 OA
ENDROOT
BRANCH   1   5
ATOM      5  C   LIG    1       -7.187   1.194   3.088  0.00  0.00    +0.380 C 
BRANCH   5  10
ATOM      6  C   LIG    1      -11.578  -2.559   3.259  0.00  0.00    +0.090 C 
ATOM      7  C   LIG    1      -10.433  -1.581   3.214  0.00  0.00    -0.080 A 
ATOM      8  C   LIG    1       -9.469  -1.598   4.205  0.00  0.00    +0.010 A 
ATOM      9  C   LIG    1       -8.419  -0.701   4.165  0.00  0.00    +0.040 A 
ATOM     10  C   LIG    1       -8.332   0.215   3.133  0.00  0.00    -0.100 A 
ATOM     11  C   LIG    1       -9.298   0.236   2.144  0.00  0.00    +0.020 A 
ATOM     12  C   LIG    1      -10.346  -0.665   2.182  0.00  0.00    +0.020 A 
ENDBRANCH   5  10
BRANCH   5  13
ATOM     13  C   LIG    1       -7.648   2.530   3.612  0.00  0.00    -0.190 A 
ATOM     14  C   LIG    1       -7.423   2.992   4.843  0.00  0.00    +0.020 A 
ATOM     15  C   LIG    1       -7.943   4.249   5.098  0.00  0.00    +0.010 A 
ATOM     16  C   LIG    1       -8.590   4.808   4.074  0.00  0.00    -0.040 A 
ATOM     17  S   LIG    1       -8.557   3.721   2.691  0.00  0.00    +0.100 S 
ENDBRANCH   5  13
ENDBRANCH   1   5
BRANCH   3  18
ATOM     18  C   LIG    1       -4.986   1.888   0.034  0.00  0.00    +0.340 C 
BRANCH  18  19
ATOM     19  N   LIG    1       -3.586   2.317   0.030  0.00  0.00    -0.520 N 
ATOM     20  C   LIG    1       -3.285   3.641   0.036  0.00  0.00    +0.600 A 
ATOM     21  N   LIG    1       -2.057   4.066   0.044  0.00  0.00    -0.500 NA
ATOM     22  C   LIG    1       -1.010   3.212   0.029  0.00  0.00    +0.070 A 
ATOM     23  C   LIG    1       -1.244   1.840   0.018  0.00  0.00    -0.230 A 
ATOM     24  C   LIG    1       -0.013   1.076   0.008  0.00  0.00    +0.080 A 
ATOM     25  C   LIG    1        1.090   1.802   0.001  0.00  0.00    -0.050 A 
ATOM     26  S   LIG    1        0.722   3.517   0.014  0.00  0.00    +0.200 S 
ATOM     27  C   LIG    1       -2.603   1.395   0.021  0.00  0.00    +0.570 A 
ATOM     28  O   LIG    1       -2.867   0.205   0.015  0.00  0.00    -0.520 OA
ENDBRANCH  18  19
ENDBRANCH   3  18
TORSDOF 5
