REMARK  Name = ZINCrH000004qNzn.0
REMARK                            x       y       z     vdW  Elec       q    Type
REMARK                         _______ _______ _______ _____ _____    ______ ____
ROOT
ATOM      1  N   LIG    1       -4.204   2.373  -3.757  0.00  0.00    -0.680 N 
ATOM      2  H   LIG    1       -3.603   2.426  -4.516  0.00  0.00    +0.410 HD
ATOM      3  C   LIG    1       -5.524   2.590  -3.927  0.00  0.00    +0.710 C 
ATOM      4  N   LIG    1       -6.022   2.776  -5.165  0.00  0.00    -0.730 N 
ATOM      5  H   LIG    1       -5.431   2.754  -5.934  0.00  0.00    +0.400 HD
ATOM      6  O   LIG    1       -6.264   2.618  -2.963  0.00  0.00    -0.550 OA
ENDROOT
BRANCH   4   7
ATOM      7  C   LIG    1       -7.456   3.012  -5.350  0.00  0.00    +0.360 C 
ATOM      8  C   LIG    1       -7.888   2.627  -6.783  0.00  0.00    +0.090 C 
ATOM      9  C   LIG    1       -7.771   3.983  -7.518  0.00  0.00    +0.230 C 
ATOM     10  N   LIG    1       -7.943   5.010  -6.481  0.00  0.00    -0.470 N 
ATOM     11  C   LIG    1       -8.224   6.344  -6.324  0.00  0.00    +0.140 A 
ATOM     12  C   LIG    1       -8.207   6.593  -5.002  0.00  0.00    +0.160 A 
ATOM     13  N   LIG    1       -7.925   5.447  -4.367  0.00  0.00    -0.460 NA
ATOM     14  C   LIG    1       -6.394   4.115  -8.171  0.00  0.00    +0.050 C 
ATOM     15  C   LIG    1       -7.767   4.492  -5.249  0.00  0.00    +0.170 A 
ENDBRANCH   4   7
BRANCH   1  19
ATOM     16  C   LIG    1       -4.734   0.300   0.690  0.00  0.00    +0.110 C 
ATOM     17  C   LIG    1       -3.938   1.074  -0.329  0.00  0.00    -0.080 A 
ATOM     18  C   LIG    1       -4.474   1.350  -1.573  0.00  0.00    +0.070 A 
ATOM     19  C   LIG    1       -3.702   2.071  -2.483  0.00  0.00    +0.120 A 
ATOM     20  C   LIG    1       -2.431   2.484  -2.114  0.00  0.00    +0.230 A 
ATOM     21  N   LIG    1       -1.953   2.207  -0.916  0.00  0.00    -0.490 NA
ATOM     22  C   LIG    1       -2.655   1.521  -0.028  0.00  0.00    +0.280 A 
BRANCH  22  23
ATOM     23  N   LIG    1       -2.107   1.249   1.222  0.00  0.00    -0.480 N 
ATOM     24  C   LIG    1       -1.890   2.487   1.983  0.00  0.00    +0.180 C 
ATOM     25  C   LIG    1       -1.425   2.142   3.399  0.00  0.00    +0.020 C 
ATOM     26  C   LIG    1       -0.127   1.334   3.322  0.00  0.00    +0.010 C 
ATOM     27  C   LIG    1       -0.366   0.075   2.485  0.00  0.00    +0.030 C 
ATOM     28  C   LIG    1       -0.862   0.480   1.095  0.00  0.00    +0.140 C 
ATOM     29  C   LIG    1       -1.123  -0.776   0.261  0.00  0.00    +0.020 C 
ENDBRANCH  22  23
ENDBRANCH   1  19
TORSDOF 3
