REMARK  Name = ZINCvU0000000A0X.0
REMARK                            x       y       z     vdW  Elec       q    Type
REMARK                         _______ _______ _______ _____ _____    ______ ____
ROOT
ATOM      1  C   LIG    1        2.029   8.275   1.494  0.00  0.00    +0.630 A 
ATOM      2  N   LIG    1        1.192   7.258   1.682  0.00  0.00    -0.620 NA
ATOM      3  C   LIG    1        1.611   6.157   2.282  0.00  0.00    +0.440 A 
ATOM      4  N   LIG    1        2.861   6.064   2.701  0.00  0.00    -0.620 NA
ATOM      5  C   LIG    1        3.706   7.076   2.512  0.00  0.00    +0.630 A 
ATOM      6  N   LIG    1        3.288   8.184   1.909  0.00  0.00    -0.630 NA
ENDROOT
BRANCH   5   7
ATOM      7  N   LIG    1        5.012   6.976   2.945  0.00  0.00    -0.800 N 
ATOM      8  H   LIG    1        5.316   6.166   3.385  0.00  0.00    +0.420 HD
ATOM      9  H   LIG    1        5.626   7.715   2.810  0.00  0.00    +0.420 HD
ENDBRANCH   5   7
BRANCH   1  10
ATOM     10  N   LIG    1        1.590   9.425   0.867  0.00  0.00    -0.620 N 
ATOM     11  H   LIG    1        0.696   9.462   0.492  0.00  0.00    +0.430 HD
BRANCH  10  16
ATOM     12  C   LIG    1        5.014  13.931   0.482  0.00  0.00    +0.100 C 
ATOM     13  C   LIG    1        4.104  12.734   0.584  0.00  0.00    -0.100 A 
ATOM     14  C   LIG    1        3.200  12.466  -0.427  0.00  0.00    +0.030 A 
ATOM     15  C   LIG    1        2.365  11.370  -0.337  0.00  0.00    -0.010 A 
ATOM     16  C   LIG    1        2.434  10.536   0.772  0.00  0.00    +0.150 A 
ATOM     17  C   LIG    1        3.340  10.810   1.788  0.00  0.00    +0.020 A 
ATOM     18  C   LIG    1        4.176  11.905   1.689  0.00  0.00    +0.020 A 
ENDBRANCH  10  16
ENDBRANCH   1  10
BRANCH   3  19
ATOM     19  C   LIG    1        0.660   5.008   2.493  0.00  0.00    +0.220 C 
BRANCH  19  20
ATOM     20  S   LIG    1        0.731   3.896   1.067  0.00  0.00    +0.050 S 
BRANCH  20  21
ATOM     21  C   LIG    1       -0.443   2.681   1.567  0.00  0.00    +0.270 A 
ATOM     22  N   LIG    1       -1.116   2.702   2.692  0.00  0.00    -0.490 NA
ATOM     23  C   LIG    1       -1.926   1.613   2.760  0.00  0.00    +0.070 A 
ATOM     24  C   LIG    1       -2.832   1.150   3.717  0.00  0.00    +0.080 A 
ATOM     25  C   LIG    1       -3.524  -0.021   3.494  0.00  0.00    -0.040 A 
ATOM     26  C   LIG    1       -3.327  -0.743   2.325  0.00  0.00    +0.050 A 
ATOM     27  C   LIG    1       -2.436  -0.297   1.370  0.00  0.00    +0.040 A 
ATOM     28 CL   LIG    1       -4.650  -0.597   4.683  0.00  0.00    -0.060 Cl
ATOM     29  C   LIG    1       -1.732   0.878   1.578  0.00  0.00    +0.060 A 
ATOM     30  N   LIG    1       -0.791   1.578   0.840  0.00  0.00    -0.470 N 
BRANCH  30  31
ATOM     31  C   LIG    1       -0.262   1.202  -0.474  0.00  0.00    +0.310 C 
BRANCH  31  32
ATOM     32  C   LIG    1       -1.135   1.817  -1.570  0.00  0.00    -0.030 C 
ATOM     33  C   LIG    1       -0.659   1.324  -2.938  0.00  0.00    +0.040 C 
ATOM     34  C   LIG    1       -1.026   3.342  -1.512  0.00  0.00    +0.030 C 
ENDBRANCH  31  32
ENDBRANCH  30  31
ENDBRANCH  20  21
ENDBRANCH  19  20
ENDBRANCH   3  19
TORSDOF 8
