REMARK  Name = ZINCrD000000Buyn.0
REMARK                            x       y       z     vdW  Elec       q    Type
REMARK                         _______ _______ _______ _____ _____    ______ ____
ROOT
ATOM      1  O   LIG    1        0.002  -0.004   0.002  0.00  0.00    -0.510 OA
ATOM      2  C   LIG    1       -0.014   1.211   0.009  0.00  0.00    +0.600 C 
ATOM      3  N   LIG    1        1.143   1.900   0.001  0.00  0.00    -0.710 N 
ATOM      4  H   LIG    1        1.130   2.870   0.007  0.00  0.00    +0.410 HD
ENDROOT
BRANCH   2   5
ATOM      5  C   LIG    1       -1.309   1.935   0.019  0.00  0.00    -0.020 A 
ATOM      6  N   LIG    1       -1.483   3.234   0.026  0.00  0.00    -0.330 NA
ATOM      7  O   LIG    1       -2.655   3.530   0.033  0.00  0.00    +0.130 OA
ATOM      8  C   LIG    1       -3.443   2.440   0.031  0.00  0.00    +0.020 A 
ATOM      9  C   LIG    1       -2.606   1.359   0.016  0.00  0.00    +0.030 A 
BRANCH   8  10
ATOM     10  C   LIG    1       -4.921   2.416   0.038  0.00  0.00    -0.080 A 
ATOM     11  C   LIG    1       -5.652   3.609   0.048  0.00  0.00    +0.100 A 
ATOM     12  C   LIG    1       -7.034   3.532   0.053  0.00  0.00    -0.020 A 
ATOM     13  C   LIG    1       -7.643   2.290   0.049  0.00  0.00    +0.280 A 
ATOM     14  N   LIG    1       -6.928   1.181   0.039  0.00  0.00    -0.480 NA
ATOM     15  C   LIG    1       -5.612   1.203   0.028  0.00  0.00    +0.300 A 
ENDBRANCH   8  10
ENDBRANCH   2   5
BRANCH   3  16
ATOM     16  C   LIG    1        2.422   1.185  -0.015  0.00  0.00    +0.340 C 
BRANCH  16  17
ATOM     17  C   LIG    1        3.554   2.180  -0.020  0.00  0.00    -0.030 A 
ATOM     18  C   LIG    1        4.098   2.642   1.170  0.00  0.00    -0.050 A 
ATOM     19  C   LIG    1        5.135   3.553   1.129  0.00  0.00    +0.300 A 
ATOM     20  N   LIG    1        5.611   3.986  -0.023  0.00  0.00    -0.530 NA
ATOM     21  C   LIG    1        5.118   3.569  -1.177  0.00  0.00    +0.330 A 
ATOM     22  C   LIG    1        4.078   2.649  -1.212  0.00  0.00    -0.030 A 
BRANCH  21  23
ATOM     23  O   LIG    1        5.637   4.041  -2.339  0.00  0.00    -0.300 OA
BRANCH  23  24
ATOM     24  C   LIG    1        6.709   4.980  -2.236  0.00  0.00    +0.170 C 
ATOM     25  C   LIG    1        6.154   6.420  -2.255  0.00  0.00    +0.000 C 
ATOM     26  C   LIG    1        7.202   7.221  -3.066  0.00  0.00    +0.020 C 
ATOM     27  C   LIG    1        7.619   6.219  -4.171  0.00  0.00    +0.020 C 
ATOM     28  C   LIG    1        7.640   4.853  -3.454  0.00  0.00    +0.030 C 
ENDBRANCH  23  24
ENDBRANCH  21  23
ENDBRANCH  16  17
ENDBRANCH   3  16
TORSDOF 6
