REMARK  Name = ZINCqH00000029Wh.0
REMARK                            x       y       z     vdW  Elec       q    Type
REMARK                         _______ _______ _______ _____ _____    ______ ____
ROOT
ATOM      1  C   LIG    1       -1.792   0.974   5.886  0.00  0.00    +0.530 C 
ATOM      2  N   LIG    1       -2.938   1.684   5.904  0.00  0.00    -0.730 N 
ATOM      3  H   LIG    1       -3.393   1.891   5.073  0.00  0.00    +0.400 HD
ATOM      4  O   LIG    1       -1.223   0.715   6.925  0.00  0.00    -0.520 OA
ENDROOT
BRANCH   1  10
ATOM      5  C   LIG    1       -0.718   1.572   1.248  0.00  0.00    +0.510 C 
ATOM      6  N   LIG    1       -0.242   1.246   2.466  0.00  0.00    -0.610 N 
ATOM      7  C   LIG    1        0.961   0.413   2.601  0.00  0.00    +0.260 C 
ATOM      8  C   LIG    1        0.643  -0.778   3.504  0.00  0.00    +0.010 C 
ATOM      9  C   LIG    1        0.077  -0.270   4.832  0.00  0.00    +0.050 C 
ATOM     10  C   LIG    1       -1.219   0.503   4.575  0.00  0.00    -0.020 C 
ATOM     11  C   LIG    1       -0.918   1.712   3.684  0.00  0.00    +0.290 C 
ATOM     12  O   LIG    1       -1.714   2.256   1.150  0.00  0.00    -0.540 OA
BRANCH   5  14
ATOM     13  C   LIG    1       -0.753   1.593  -1.232  0.00  0.00    +0.040 C 
ATOM     14  C   LIG    1       -0.013   1.086   0.008  0.00  0.00    +0.040 C 
ENDBRANCH   5  14
ENDBRANCH   1  10
BRANCH   2  15
ATOM     15  C   LIG    1       -3.495   2.142   7.179  0.00  0.00    +0.380 C 
BRANCH  15  16
ATOM     16  C   LIG    1       -4.353   3.359   6.944  0.00  0.00    -0.110 A 
ATOM     17  C   LIG    1       -5.169   3.425   5.830  0.00  0.00    +0.050 A 
ATOM     18  C   LIG    1       -5.959   4.538   5.616  0.00  0.00    -0.010 A 
ATOM     19  C   LIG    1       -5.925   5.593   6.512  0.00  0.00    +0.110 A 
ATOM     20  C   LIG    1       -5.103   5.529   7.625  0.00  0.00    -0.010 A 
ATOM     21  F   LIG    1       -6.693   6.684   6.301  0.00  0.00    -0.140 F 
ATOM     22  C   LIG    1       -4.317   4.412   7.839  0.00  0.00    +0.070 A 
ENDBRANCH  15  16
BRANCH  15  23
ATOM     23  C   LIG    1       -4.334   1.046   7.784  0.00  0.00    -0.190 A 
ATOM     24  C   LIG    1       -4.368   0.728   9.079  0.00  0.00    +0.020 A 
ATOM     25  C   LIG    1       -5.218  -0.315   9.402  0.00  0.00    +0.010 A 
ATOM     26  C   LIG    1       -5.868  -0.851   8.367  0.00  0.00    -0.050 A 
ATOM     27  S   LIG    1       -5.414  -0.015   6.888  0.00  0.00    +0.110 S 
ENDBRANCH  15  23
ENDBRANCH   2  15
TORSDOF 5
