REMARK  Name = ZINCpk00000y6w3x.0
REMARK                            x       y       z     vdW  Elec       q    Type
REMARK                         _______ _______ _______ _____ _____    ______ ____
ROOT
ATOM      1  C   LIG    1        3.153   1.536   1.816  0.00  0.00    +0.620 C 
ATOM      2  N   LIG    1        1.872   1.588   1.401  0.00  0.00    -0.600 N 
ATOM      3  C   LIG    1        1.426   1.661  -0.003  0.00  0.00    +0.250 C 
ATOM      4  C   LIG    1       -0.013   1.086   0.008  0.00  0.00    +0.170 C 
ATOM      5  C   LIG    1       -0.555   1.627   1.357  0.00  0.00    +0.060 C 
ATOM      6  C   LIG    1        0.688   1.581   2.272  0.00  0.00    +0.270 C 
ATOM      7  O   LIG    1        3.405   1.478   3.004  0.00  0.00    -0.510 OA
ENDROOT
BRANCH   6   8
ATOM      8  C   LIG    1        0.707   2.791   3.171  0.00  0.00    -0.050 A 
ATOM      9  C   LIG    1        1.148   4.007   2.684  0.00  0.00    -0.020 A 
ATOM     10  C   LIG    1        1.161   5.119   3.505  0.00  0.00    +0.040 A 
ATOM     11  C   LIG    1        0.744   5.015   4.818  0.00  0.00    -0.080 A 
ATOM     12  C   LIG    1        0.306   3.795   5.311  0.00  0.00    +0.130 A 
ATOM     13  C   LIG    1        0.288   2.681   4.484  0.00  0.00    +0.000 A 
BRANCH  12  14
ATOM     14  O   LIG    1       -0.105   3.690   6.602  0.00  0.00    -0.320 OA
ATOM     15  C   LIG    1       -0.059   4.877   7.396  0.00  0.00    +0.250 C 
ENDBRANCH  12  14
ENDBRANCH   6   8
BRANCH   1  19
ATOM     16  N   LIG    1        5.285   1.603  -1.037  0.00  0.00    -0.280 N 
ATOM     17  C   LIG    1        6.252   1.537  -0.097  0.00  0.00    +0.180 A 
ATOM     18  C   LIG    1        5.637   1.501   1.109  0.00  0.00    -0.020 A 
ATOM     19  C   LIG    1        4.251   1.550   0.828  0.00  0.00    -0.010 A 
ATOM     20  N   LIG    1        4.125   1.604  -0.483  0.00  0.00    -0.260 NA
BRANCH  16  21
ATOM     21  C   LIG    1        5.523   1.659  -2.482  0.00  0.00    +0.340 C 
BRANCH  21  22
ATOM     22  C   LIG    1        4.758   0.526  -3.169  0.00  0.00    +0.180 C 
BRANCH  22  24
ATOM     23  C   LIG    1        4.318  -0.440  -5.318  0.00  0.00    +0.210 C 
ATOM     24  O   LIG    1        4.990   0.581  -4.578  0.00  0.00    -0.390 OA
ENDBRANCH  22  24
ENDBRANCH  21  22
ENDBRANCH  16  21
ENDBRANCH   1  19
BRANCH   4  25
ATOM     25  O   LIG    1       -0.774   1.591  -1.091  0.00  0.00    -0.550 OA
ATOM     26  H   LIG    1       -0.443   1.319  -1.957  0.00  0.00    +0.380 HD
ENDBRANCH   4  25
TORSDOF 7
