REMARK  Name = ZINCpe000000VaLc.0
REMARK                            x       y       z     vdW  Elec       q    Type
REMARK                         _______ _______ _______ _____ _____    ______ ____
ROOT
ATOM      1  C   LIG    1        2.583   4.175   0.036  0.00  0.00    +0.290 C 
ENDROOT
BRANCH   1   2
ATOM      2  C   LIG    1        2.696   5.666  -0.151  0.00  0.00    +0.510 C 
ATOM      3  N   LIG    1        3.902   6.263  -0.086  0.00  0.00    -0.610 N 
ATOM      4  C   LIG    1        5.105   5.429   0.067  0.00  0.00    +0.260 C 
ATOM      5  C   LIG    1        6.321   5.828  -0.817  0.00  0.00    +0.040 C 
ATOM      6  C   LIG    1        5.953   6.155  -2.229  0.00  0.00    -0.290 C 
ATOM      7  S   LIG    1        5.549   7.933  -2.387  0.00  0.00    +1.270 S 
ATOM      8  C   LIG    1        3.973   8.089  -1.647  0.00  0.00    -0.250 C 
ATOM      9  O   LIG    1        6.494   8.700  -1.654  0.00  0.00    -0.840 OA
ATOM     10  C   LIG    1        7.128   5.819  -3.150  0.00  0.00    +0.070 C 
ATOM     11  C   LIG    1        3.975   7.688  -0.161  0.00  0.00    +0.310 C 
ATOM     12  O   LIG    1        1.702   6.328  -0.360  0.00  0.00    -0.490 OA
ENDBRANCH   1   2
BRANCH   1  13
ATOM     13  N   LIG    1        1.261   3.726  -0.408  0.00  0.00    -0.690 N 
ATOM     14  H   LIG    1        0.522   4.354  -0.445  0.00  0.00    +0.420 HD
ATOM     15  C   LIG    1        1.071   2.440  -0.766  0.00  0.00    +0.660 C 
ATOM     16  O   LIG    1        2.013   1.674  -0.803  0.00  0.00    -0.570 OA
BRANCH  15  17
ATOM     17  O   LIG    1       -0.163   2.005  -1.083  0.00  0.00    -0.360 OA
BRANCH  17  18
ATOM     18  C   LIG    1       -0.293   0.609  -1.460  0.00  0.00    +0.140 C 
ATOM     19  C   LIG    1        0.570   0.330  -2.692  0.00  0.00    +0.040 C 
ATOM     20  C   LIG    1       -1.757   0.302  -1.782  0.00  0.00    +0.080 C 
ATOM     21  C   LIG    1        0.170  -0.277  -0.301  0.00  0.00    +0.040 C 
ENDBRANCH  17  18
ENDBRANCH  15  17
ENDBRANCH   1  13
BRANCH   1  22
ATOM     22  C   LIG    1        2.768   3.830   1.515  0.00  0.00    +0.120 C 
BRANCH  22  23
ATOM     23  C   LIG    1        1.686   4.497   2.325  0.00  0.00    +0.450 C 
ATOM     24  O   LIG    1        0.792   5.089   1.768  0.00  0.00    -0.480 OA
BRANCH  23  26
ATOM     25  C   LIG    1        0.642   5.099   4.381  0.00  0.00    +0.260 C 
ATOM     26  O   LIG    1        1.716   4.434   3.666  0.00  0.00    -0.360 OA
ENDBRANCH  23  26
ENDBRANCH  22  23
ENDBRANCH   1  22
TORSDOF 7
