REMARK  Name = ZINCrH000004lhQz.0
REMARK                            x       y       z     vdW  Elec       q    Type
REMARK                         _______ _______ _______ _____ _____    ______ ____
ROOT
ATOM      1  C   LIG    1       -0.572  -8.152   3.013  0.00  0.00    -0.100 A 
ATOM      2  C   LIG    1       -1.428  -8.177   1.909  0.00  0.00    +0.090 A 
ATOM      3  C   LIG    1       -1.734  -9.376   1.303  0.00  0.00    +0.060 A 
ATOM      4  C   LIG    1       -1.190 -10.563   1.792  0.00  0.00    -0.010 A 
ATOM      5  C   LIG    1       -0.340 -10.540   2.897  0.00  0.00    +0.070 A 
ATOM      6  C   LIG    1       -0.029  -9.342   3.501  0.00  0.00    +0.030 A 
ENDROOT
BRANCH   4   7
ATOM      7  C   LIG    1       -1.521 -11.854   1.139  0.00  0.00    +0.220 A 
ATOM      8  N   LIG    1       -2.304 -12.023   0.104  0.00  0.00    -0.340 NA
ATOM      9  O   LIG    1       -2.361 -13.199  -0.187  0.00  0.00    +0.130 OA
ATOM     10  C   LIG    1       -1.613 -13.917   0.656  0.00  0.00    +0.090 A 
ATOM     11  N   LIG    1       -1.071 -13.076   1.502  0.00  0.00    -0.410 NA
BRANCH  10  12
ATOM     12  C   LIG    1       -1.425 -15.412   0.634  0.00  0.00    +0.590 C 
ATOM     13  F   LIG    1       -0.155 -15.729   1.129  0.00  0.00    -0.140 F 
ATOM     14  F   LIG    1       -1.543 -15.878  -0.679  0.00  0.00    -0.150 F 
ATOM     15  F   LIG    1       -2.401 -16.017   1.433  0.00  0.00    -0.140 F 
ENDBRANCH  10  12
ENDBRANCH   4   7
BRANCH   1  17
ATOM     16  N   LIG    1        0.043  -6.832   4.980  0.00  0.00    -0.590 N 
ATOM     17  C   LIG    1       -0.243  -6.866   3.664  0.00  0.00    +0.550 C 
ATOM     18  O   LIG    1       -0.231  -5.840   3.012  0.00  0.00    -0.510 OA
BRANCH  16  19
ATOM     19  C   LIG    1        0.229  -5.545   5.656  0.00  0.00    +0.250 C 
ATOM     20  C   LIG    1       -1.038  -4.679   5.500  0.00  0.00    +0.010 C 
ATOM     21  C   LIG    1       -0.494  -3.238   5.329  0.00  0.00    +0.010 C 
ATOM     22  C   LIG    1        0.772  -3.451   4.462  0.00  0.00    +0.010 C 
ATOM     23  C   LIG    1        1.380  -4.765   4.997  0.00  0.00    +0.010 C 
ENDBRANCH  16  19
BRANCH  16  24
ATOM     24  C   LIG    1        0.168  -8.080   5.736  0.00  0.00    +0.290 C 
BRANCH  24  25
ATOM     25  C   LIG    1        1.647  -8.442   5.882  0.00  0.00    +0.160 C 
BRANCH  25  27
ATOM     26  C   LIG    1        3.697  -7.696   6.875  0.00  0.00    +0.200 C 
ATOM     27  O   LIG    1        2.304  -7.452   6.677  0.00  0.00    -0.380 OA
ENDBRANCH  25  27
ENDBRANCH  24  25
ENDBRANCH  16  24
ENDBRANCH   1  17
TORSDOF 7
