REMARK  Name = ZINCqH0000037Nc8.0
REMARK                            x       y       z     vdW  Elec       q    Type
REMARK                         _______ _______ _______ _____ _____    ______ ____
ROOT
ATOM      1  C   LIG    1        2.079   4.385   0.651  0.00  0.00    +0.160 A 
ATOM      2  C   LIG    1        1.544   3.739  -0.444  0.00  0.00    +0.120 A 
ATOM      3  N   LIG    1        0.494   4.457  -0.878  0.00  0.00    -0.470 NA
ATOM      4  C   LIG    1        0.347   5.525  -0.111  0.00  0.00    +0.240 A 
ATOM      5  C   LIG    1       -0.586   6.583  -0.138  0.00  0.00    -0.040 A 
ATOM      6  C   LIG    1       -0.501   7.571   0.793  0.00  0.00    +0.040 A 
ATOM      7  C   LIG    1        0.512   7.527   1.767  0.00  0.00    +0.020 A 
ATOM      8  C   LIG    1        1.398   6.511   1.783  0.00  0.00    +0.210 A 
ATOM      9  C   LIG    1       -1.667   6.618  -1.187  0.00  0.00    +0.120 C 
ATOM     10  N   LIG    1        1.326   5.510   0.854  0.00  0.00    -0.350 N 
ENDROOT
BRANCH   2  11
ATOM     11  C   LIG    1        2.037   2.472  -1.034  0.00  0.00    -0.010 A 
ATOM     12  C   LIG    1        1.137   1.555  -1.574  0.00  0.00    +0.050 A 
ATOM     13  C   LIG    1        1.602   0.377  -2.123  0.00  0.00    +0.010 A 
ATOM     14  C   LIG    1        2.958   0.105  -2.137  0.00  0.00    +0.010 A 
ATOM     15  C   LIG    1        3.856   1.012  -1.602  0.00  0.00    +0.010 A 
ATOM     16  C   LIG    1        3.403   2.192  -1.050  0.00  0.00    +0.020 A 
ENDBRANCH   2  11
BRANCH   1  18
ATOM     17  C   LIG    1        4.316   4.693   1.390  0.00  0.00    +0.510 C 
ATOM     18  N   LIG    1        3.178   3.972   1.407  0.00  0.00    -0.640 N 
ATOM     19  H   LIG    1        3.122   3.166   1.944  0.00  0.00    +0.420 HD
ATOM     20  O   LIG    1        4.358   5.747   0.790  0.00  0.00    -0.500 OA
BRANCH  17  21
ATOM     21  C   LIG    1        5.537   4.190   2.116  0.00  0.00    +0.180 C 
BRANCH  21  25
ATOM     22  C   LIG    1        9.347   7.471   2.911  0.00  0.00    +0.190 C 
ATOM     23  C   LIG    1        8.296   6.577   2.303  0.00  0.00    -0.030 A 
ATOM     24  C   LIG    1        7.415   5.793   2.969  0.00  0.00    -0.060 A 
ATOM     25  C   LIG    1        6.666   5.174   1.942  0.00  0.00    +0.020 A 
ATOM     26  N   LIG    1        7.147   5.617   0.817  0.00  0.00    -0.330 NA
ATOM     27  O   LIG    1        8.050   6.402   0.998  0.00  0.00    +0.110 OA
ENDBRANCH  21  25
ENDBRANCH  17  21
ENDBRANCH   1  18
TORSDOF 4
