REMARK  Name = ZINCvU0000000C9o.0
REMARK                            x       y       z     vdW  Elec       q    Type
REMARK                         _______ _______ _______ _____ _____    ______ ____
ROOT
ATOM      1  C   LIG    1        7.694   4.864  -0.513  0.00  0.00    +0.180 C 
ENDROOT
BRANCH   1   2
ATOM      2  C   LIG    1        9.124   5.320  -0.650  0.00  0.00    +0.460 A 
ATOM      3  N   LIG    1       10.062   4.419  -0.740  0.00  0.00    -0.570 NA
ATOM      4  C   LIG    1       11.354   4.763  -0.870  0.00  0.00    +0.550 A 
ATOM      5  C   LIG    1       11.706   6.198  -0.900  0.00  0.00    -0.220 A 
ATOM      6  C   LIG    1       10.672   7.107  -0.795  0.00  0.00    +0.050 A 
ATOM      7  S   LIG    1       11.310   8.741  -0.852  0.00  0.00    +0.180 S 
ATOM      8  C   LIG    1       12.962   8.167  -1.018  0.00  0.00    -0.190 A 
ATOM      9  C   LIG    1       14.177   9.070  -1.136  0.00  0.00    +0.120 C 
ATOM     10  C   LIG    1       15.434   8.246  -0.850  0.00  0.00    -0.010 C 
ATOM     11  C   LIG    1       16.677   9.063  -1.208  0.00  0.00    +0.030 C 
ATOM     12  C   LIG    1       15.397   6.971  -1.697  0.00  0.00    +0.020 C 
ATOM     13  C   LIG    1       14.306   6.044  -1.159  0.00  0.00    +0.110 C 
ATOM     14  C   LIG    1       13.010   6.833  -1.028  0.00  0.00    -0.030 A 
ATOM     15  O   LIG    1       12.220   3.908  -0.957  0.00  0.00    -0.470 OA
ATOM     16  N   LIG    1        9.381   6.637  -0.670  0.00  0.00    -0.580 N 
ATOM     17  H   LIG    1        8.648   7.268  -0.596  0.00  0.00    +0.430 HD
ENDBRANCH   1   2
BRANCH   1  18
ATOM     18  S   LIG    1        7.635   3.051  -0.514  0.00  0.00    +0.140 S 
BRANCH  18  22
ATOM     19  C   LIG    1        3.591   1.818  -0.127  0.00  0.00    +0.300 A 
ATOM     20  N   LIG    1        3.697   3.110  -0.132  0.00  0.00    -0.340 NA
ATOM     21  N   LIG    1        4.978   3.603  -0.254  0.00  0.00    -0.270 NA
ATOM     22  C   LIG    1        5.914   2.711  -0.348  0.00  0.00    -0.010 A 
ATOM     23  S   LIG    1        5.194   1.106  -0.277  0.00  0.00    +0.100 S 
BRANCH  19  24
ATOM     24  N   LIG    1        2.401   1.108  -0.014  0.00  0.00    -0.620 N 
ATOM     25  H   LIG    1        2.419   0.142   0.067  0.00  0.00    +0.430 HD
BRANCH  24  29
ATOM     26  C   LIG    1       -1.240   3.129  -0.025  0.00  0.00    -0.100 A 
ATOM     27  C   LIG    1       -0.158   3.653  -0.708  0.00  0.00    +0.040 A 
ATOM     28  C   LIG    1        1.050   2.983  -0.711  0.00  0.00    +0.020 A 
ATOM     29  C   LIG    1        1.180   1.786  -0.017  0.00  0.00    +0.150 A 
ATOM     30  C   LIG    1        0.092   1.265   0.672  0.00  0.00    -0.010 A 
ATOM     31  C   LIG    1       -1.114   1.938   0.666  0.00  0.00    +0.040 A 
BRANCH  26  33
ATOM     32  C   LIG    1       -2.603   4.835   1.150  0.00  0.00    +0.030 C 
ATOM     33  C   LIG    1       -2.557   3.861  -0.029  0.00  0.00    +0.060 C 
ENDBRANCH  26  33
ENDBRANCH  24  29
ENDBRANCH  19  24
ENDBRANCH  18  22
ENDBRANCH   1  18
TORSDOF 6
