REMARK  Name = ZINCqH0000051ag2.0
REMARK                            x       y       z     vdW  Elec       q    Type
REMARK                         _______ _______ _______ _____ _____    ______ ____
ROOT
ATOM      1  C   LIG    1        0.008   7.816  -0.172  0.00  0.00    +0.270 C 
ENDROOT
BRANCH   1   3
ATOM      2  O   LIG    1       -1.417   5.938  -0.054  0.00  0.00    -0.490 OA
ATOM      3  C   LIG    1       -0.272   6.339  -0.063  0.00  0.00    +0.510 C 
ATOM      4  N   LIG    1        0.750   5.465   0.024  0.00  0.00    -0.670 N 
ATOM      5  H   LIG    1        1.661   5.789   0.094  0.00  0.00    +0.420 HD
BRANCH   4   6
ATOM      6  C   LIG    1        0.495   4.087   0.014  0.00  0.00    +0.160 A 
ATOM      7  C   LIG    1        1.301   3.227   0.746  0.00  0.00    +0.010 A 
ATOM      8  C   LIG    1        1.048   1.868   0.742  0.00  0.00    +0.060 A 
ATOM      9  C   LIG    1       -0.004   1.360  -0.002  0.00  0.00    +0.020 A 
ATOM     10  O   LIG    1       -0.455   0.082  -0.176  0.00  0.00    -0.310 OA
ATOM     11  C   LIG    1       -1.293   0.125  -1.346  0.00  0.00    +0.430 C 
ATOM     12  O   LIG    1       -1.773   1.483  -1.373  0.00  0.00    -0.310 OA
ATOM     13  C   LIG    1       -0.815   2.221  -0.739  0.00  0.00    +0.060 A 
ATOM     14  C   LIG    1       -0.564   3.582  -0.729  0.00  0.00    +0.050 A 
ENDBRANCH   4   6
ENDBRANCH   1   3
BRANCH   1  15
ATOM     15  O   LIG    1       -1.247   8.542  -0.252  0.00  0.00    -0.330 OA
BRANCH  15  16
ATOM     16  C   LIG    1       -1.173   9.878  -0.354  0.00  0.00    +0.470 C 
ATOM     17  O   LIG    1       -0.095  10.423  -0.375  0.00  0.00    -0.500 OA
BRANCH  16  18
ATOM     18  C   LIG    1       -2.434  10.698  -0.442  0.00  0.00    +0.140 C 
BRANCH  18  19
ATOM     19  C   LIG    1       -2.072  12.181  -0.549  0.00  0.00    +0.090 C 
BRANCH  19  20
ATOM     20  S   LIG    1       -3.590  13.168  -0.655  0.00  0.00    -0.090 S 
BRANCH  20  21
ATOM     21  C   LIG    1       -2.983  14.818  -0.770  0.00  0.00    -0.080 A 
ATOM     22  C   LIG    1       -1.614  15.059  -0.757  0.00  0.00    +0.020 A 
ATOM     23  C   LIG    1       -1.141  16.352  -0.852  0.00  0.00    +0.050 A 
ATOM     24  C   LIG    1       -2.029  17.410  -0.951  0.00  0.00    -0.040 A 
ATOM     25  C   LIG    1       -3.392  17.174  -0.960  0.00  0.00    +0.050 A 
ATOM     26 CL   LIG    1       -1.430  19.036  -1.063  0.00  0.00    -0.060 Cl
ATOM     27  C   LIG    1       -3.871  15.882  -0.870  0.00  0.00    +0.050 A 
ENDBRANCH  20  21
ENDBRANCH  19  20
ENDBRANCH  18  19
ENDBRANCH  16  18
ENDBRANCH  15  16
ENDBRANCH   1  15
TORSDOF 8
