REMARK  Name = ZINCvU0000000DNQ.0
REMARK                            x       y       z     vdW  Elec       q    Type
REMARK                         _______ _______ _______ _____ _____    ______ ____
ROOT
ATOM      1  C   LIG    1        6.682   7.444  -3.023  0.00  0.00    -0.120 C 
ATOM      2  C   LIG    1        7.465   8.555  -3.079  0.00  0.00    +0.170 C 
ENDROOT
BRANCH   1   3
ATOM      3  C   LIG    1        6.167   6.837  -4.272  0.00  0.00    -0.060 A 
ATOM      4  C   LIG    1        5.287   7.551  -5.086  0.00  0.00    +0.060 A 
ATOM      5  C   LIG    1        4.815   6.983  -6.251  0.00  0.00    -0.010 A 
ATOM      6  C   LIG    1        5.203   5.702  -6.607  0.00  0.00    +0.110 A 
ATOM      7  C   LIG    1        6.072   4.986  -5.799  0.00  0.00    -0.010 A 
ATOM      8  F   LIG    1        4.733   5.148  -7.746  0.00  0.00    -0.140 F 
ATOM      9  C   LIG    1        6.555   5.547  -4.635  0.00  0.00    +0.070 A 
ENDBRANCH   1   3
BRANCH   2  10
ATOM     10  C   LIG    1        7.920   9.068  -4.378  0.00  0.00    -0.080 A 
ATOM     11  C   LIG    1        8.165   8.184  -5.436  0.00  0.00    +0.060 A 
ATOM     12  C   LIG    1        8.587   8.674  -6.653  0.00  0.00    +0.030 A 
ATOM     13  C   LIG    1        8.778  10.035  -6.828  0.00  0.00    -0.020 A 
ATOM     14  C   LIG    1        8.543  10.915  -5.784  0.00  0.00    +0.020 A 
ATOM     15 CL   LIG    1        9.317  10.641  -8.363  0.00  0.00    -0.060 Cl
ATOM     16  C   LIG    1        8.116  10.442  -4.562  0.00  0.00    +0.060 A 
ENDBRANCH   2  10
BRANCH   1  18
ATOM     17  O   LIG    1        6.769   7.344  -0.697  0.00  0.00    -0.500 OA
ATOM     18  C   LIG    1        6.346   6.846  -1.722  0.00  0.00    +0.520 C 
BRANCH  18  19
ATOM     19  O   LIG    1        5.570   5.745  -1.667  0.00  0.00    -0.340 OA
BRANCH  19  20
ATOM     20  C   LIG    1        5.280   5.208  -0.349  0.00  0.00    +0.410 C 
BRANCH  20  21
ATOM     21  C   LIG    1        4.406   3.988  -0.484  0.00  0.00    +0.150 A 
ATOM     22  N   LIG    1        4.817   2.757  -0.612  0.00  0.00    -0.250 NA
ATOM     23  N   LIG    1        3.802   1.972  -0.703  0.00  0.00    -0.270 NA
ATOM     24  C   LIG    1        2.700   2.681  -0.635  0.00  0.00    +0.230 A 
ATOM     25  O   LIG    1        3.062   3.972  -0.501  0.00  0.00    -0.210 OA
BRANCH  24  26
ATOM     26  C   LIG    1        1.317   2.161  -0.701  0.00  0.00    -0.040 A 
ATOM     27  C   LIG    1        0.234   3.037  -0.616  0.00  0.00    +0.050 A 
ATOM     28  C   LIG    1       -1.054   2.545  -0.678  0.00  0.00    +0.020 A 
ATOM     29  C   LIG    1       -1.272   1.186  -0.824  0.00  0.00    +0.040 A 
ATOM     30  C   LIG    1       -0.203   0.313  -0.908  0.00  0.00    +0.020 A 
ATOM     31  C   LIG    1        1.090   0.792  -0.847  0.00  0.00    +0.080 A 
ENDBRANCH  24  26
ENDBRANCH  20  21
ENDBRANCH  19  20
ENDBRANCH  18  19
ENDBRANCH   1  18
TORSDOF 7
