REMARK  Name = ZINCpk000000oU29.0
REMARK                            x       y       z     vdW  Elec       q    Type
REMARK                         _______ _______ _______ _____ _____    ______ ____
ROOT
ATOM      1  C   LIG    1        0.545   5.903   0.034  0.00  0.00    +0.330 C 
ENDROOT
BRANCH   1   2
ATOM      2  N   LIG    1        0.382   4.447   0.025  0.00  0.00    -0.520 N 
ATOM      3  C   LIG    1       -0.864   3.907   0.034  0.00  0.00    +0.600 A 
ATOM      4  N   LIG    1       -1.056   2.621   0.031  0.00  0.00    -0.500 NA
ATOM      5  C   LIG    1       -0.022   1.751   0.012  0.00  0.00    +0.070 A 
ATOM      6  C   LIG    1        1.277   2.234   0.002  0.00  0.00    -0.210 A 
ATOM      7  C   LIG    1        2.280   1.168  -0.014  0.00  0.00    -0.050 A 
ATOM      8  C   LIG    1        1.764  -0.054  -0.015  0.00  0.00    -0.230 A 
ATOM      9  C   LIG    1        2.873  -1.103  -0.030  0.00  0.00    +0.130 C 
ATOM     10  C   LIG    1        4.140  -0.343   0.410  0.00  0.00    +0.050 C 
ATOM     11  C   LIG    1        3.807   1.096  -0.029  0.00  0.00    +0.100 C 
ATOM     12  S   LIG    1        0.002  -0.004   0.002  0.00  0.00    +0.230 S 
ATOM     13  C   LIG    1        1.469   3.650   0.009  0.00  0.00    +0.560 A 
ATOM     14  O   LIG    1        2.591   4.127   0.001  0.00  0.00    -0.520 OA
ENDBRANCH   1   2
BRANCH   1  17
ATOM     15  N   LIG    1        0.732   7.731  -1.622  0.00  0.00    -0.720 N 
ATOM     16  H   LIG    1        0.809   8.352  -0.881  0.00  0.00    +0.410 HD
ATOM     17  C   LIG    1        0.587   6.412  -1.384  0.00  0.00    +0.500 C 
ATOM     18  O   LIG    1        0.490   5.635  -2.310  0.00  0.00    -0.520 OA
BRANCH  15  19
ATOM     19  C   LIG    1        0.773   8.226  -3.001  0.00  0.00    +0.260 C 
BRANCH  19  20
ATOM     20  C   LIG    1        0.944   9.746  -2.991  0.00  0.00    +0.040 C 
BRANCH  20  21
ATOM     21  C   LIG    1        0.986  10.263  -4.431  0.00  0.00    +0.110 C 
BRANCH  21  22
ATOM     22  C   LIG    1        1.154  11.761  -4.422  0.00  0.00    +0.460 C 
ATOM     23  O   LIG    1        1.232  12.354  -3.372  0.00  0.00    -0.510 OA
BRANCH  22  24
ATOM     24  O   LIG    1        1.218  12.436  -5.580  0.00  0.00    -0.360 OA
BRANCH  24  26
ATOM     25  C   LIG    1        1.431  14.467  -6.906  0.00  0.00    +0.070 C 
ATOM     26  C   LIG    1        1.380  13.876  -5.496  0.00  0.00    +0.200 C 
ENDBRANCH  24  26
ENDBRANCH  22  24
ENDBRANCH  21  22
ENDBRANCH  20  21
ENDBRANCH  19  20
ENDBRANCH  15  19
ENDBRANCH   1  17
TORSDOF 8
