REMARK  Name = ZINCvU00000006yz.1
REMARK                            x       y       z     vdW  Elec       q    Type
REMARK                         _______ _______ _______ _____ _____    ______ ____
ROOT
ATOM      1  C   LIG    1       -2.983   0.765   1.309  0.00  0.00    -0.220 A 
ATOM      2  C   LIG    1       -2.677  -0.371   1.974  0.00  0.00    +0.240 A 
ATOM      3  N   LIG    1       -3.223  -0.287   3.215  0.00  0.00    -0.320 N 
ATOM      4  N   LIG    1       -3.894   0.939   3.312  0.00  0.00    -0.270 NA
ATOM      5  C   LIG    1       -3.752   1.575   2.168  0.00  0.00    +0.130 A 
ENDROOT
BRANCH   5   6
ATOM      6  C   LIG    1       -4.306   2.912   1.840  0.00  0.00    -0.010 A 
ATOM      7  C   LIG    1       -3.531   3.839   1.146  0.00  0.00    +0.060 A 
ATOM      8  C   LIG    1       -4.053   5.079   0.839  0.00  0.00    +0.030 A 
ATOM      9  C   LIG    1       -5.340   5.407   1.228  0.00  0.00    -0.030 A 
ATOM     10  C   LIG    1       -6.112   4.491   1.923  0.00  0.00    +0.030 A 
ATOM     11 CL   LIG    1       -5.988   6.971   0.845  0.00  0.00    -0.060 Cl
ATOM     12  C   LIG    1       -5.602   3.246   2.230  0.00  0.00    +0.060 A 
ENDBRANCH   5   6
BRANCH   3  13
ATOM     13  C   LIG    1       -3.135  -1.260   4.220  0.00  0.00    +0.160 A 
ATOM     14  C   LIG    1       -2.440  -2.439   3.989  0.00  0.00    -0.010 A 
ATOM     15  C   LIG    1       -2.351  -3.393   4.983  0.00  0.00    +0.040 A 
ATOM     16  C   LIG    1       -2.962  -3.179   6.205  0.00  0.00    +0.000 A 
ATOM     17  C   LIG    1       -3.660  -2.008   6.437  0.00  0.00    +0.040 A 
ATOM     18  C   LIG    1       -3.748  -1.048   5.448  0.00  0.00    +0.020 A 
ENDBRANCH   3  13
BRANCH   1  19
ATOM     19  C   LIG    1       -2.579   1.103  -0.103  0.00  0.00    +0.380 C 
BRANCH  19  21
ATOM     20  C   LIG    1       -2.646  -1.020  -1.297  0.00  0.00    +0.510 C 
ATOM     21  N   LIG    1       -1.914  -0.053  -0.710  0.00  0.00    -0.610 N 
ATOM     22  C   LIG    1       -0.453  -0.157  -0.679  0.00  0.00    +0.300 C 
ATOM     23  O   LIG    1       -3.855  -0.934  -1.323  0.00  0.00    -0.510 OA
BRANCH  20  24
ATOM     24  C   LIG    1       -1.961  -2.206  -1.927  0.00  0.00    +0.110 C 
BRANCH  24  31
ATOM     25  C   LIG    1       -1.514  -5.330  -2.409  0.00  0.00    +0.200 C 
ATOM     26  C   LIG    1       -2.355  -4.342  -3.176  0.00  0.00    +0.280 C 
ATOM     27  N   LIG    1       -2.570  -4.446  -4.422  0.00  0.00    -0.510 NA
ATOM     28  C   LIG    1       -3.317  -3.566  -5.097  0.00  0.00    +0.240 C 
ATOM     29  S   LIG    1       -3.868  -2.349  -3.928  0.00  0.00    -0.040 S 
ATOM     30  S   LIG    1       -3.673  -3.606  -6.771  0.00  0.00    -0.290 S 
ATOM     31  C   LIG    1       -3.012  -3.144  -2.524  0.00  0.00    +0.040 C 
ENDBRANCH  24  31
ENDBRANCH  20  24
ENDBRANCH  19  21
ENDBRANCH   1  19
TORSDOF 6
