REMARK  Name = ZINCvU00000006YZ.0
REMARK                            x       y       z     vdW  Elec       q    Type
REMARK                         _______ _______ _______ _____ _____    ______ ____
ROOT
ATOM      1  C   LIG    1        3.856   7.718  -4.624  0.00  0.00    +0.360 A 
ATOM      2  N   LIG    1        4.787   6.809  -4.779  0.00  0.00    -0.530 NA
ATOM      3  C   LIG    1        6.089   7.147  -4.929  0.00  0.00    +0.160 A 
ATOM      4  C   LIG    1        7.081   6.177  -5.095  0.00  0.00    +0.030 A 
ATOM      5  C   LIG    1        8.394   6.563  -5.245  0.00  0.00    +0.070 A 
ATOM      6  C   LIG    1        8.746   7.906  -5.234  0.00  0.00    +0.000 A 
ATOM      7  C   LIG    1        7.787   8.882  -5.072  0.00  0.00    +0.100 A 
ATOM      8  C   LIG    1        6.451   8.514  -4.919  0.00  0.00    -0.200 A 
ATOM      9  C   LIG    1        5.388   9.512  -4.744  0.00  0.00    +0.560 A 
ATOM     10  O   LIG    1        5.638  10.704  -4.726  0.00  0.00    -0.490 OA
ATOM     11  N   LIG    1        4.120   9.060  -4.607  0.00  0.00    -0.490 N 
ENDROOT
BRANCH  11  12
ATOM     12  C   LIG    1        3.071   9.973  -4.443  0.00  0.00    +0.100 A 
ATOM     13  C   LIG    1        2.401  10.470  -5.553  0.00  0.00    +0.060 A 
ATOM     14  C   LIG    1        1.365  11.370  -5.389  0.00  0.00    +0.060 A 
ATOM     15  C   LIG    1        0.996  11.777  -4.120  0.00  0.00    +0.050 A 
ATOM     16  C   LIG    1        1.662  11.284  -3.011  0.00  0.00    -0.030 A 
ATOM     17 CL   LIG    1        1.194  11.797  -1.420  0.00  0.00    -0.050 Cl
ATOM     18  C   LIG    1        2.695  10.379  -3.170  0.00  0.00    +0.060 A 
ENDBRANCH  11  12
BRANCH   1  19
ATOM     19  S   LIG    1        2.186   7.189  -4.436  0.00  0.00    +0.090 S 
BRANCH  19  20
ATOM     20  C   LIG    1        2.412   5.396  -4.539  0.00  0.00    +0.110 C 
BRANCH  20  23
ATOM     21  N   LIG    1        0.999   3.367  -4.446  0.00  0.00    -0.720 N 
ATOM     22  H   LIG    1        1.804   2.839  -4.569  0.00  0.00    +0.400 HD
ATOM     23  C   LIG    1        1.076   4.712  -4.399  0.00  0.00    +0.530 C 
ATOM     24  O   LIG    1        0.070   5.372  -4.245  0.00  0.00    -0.520 OA
BRANCH  21  26
ATOM     25  C   LIG    1       -0.628   2.525  -2.826  0.00  0.00    +0.040 C 
ATOM     26  C   LIG    1       -0.299   2.703  -4.310  0.00  0.00    +0.290 C 
BRANCH  26  27
ATOM     27  C   LIG    1       -0.246   1.353  -4.978  0.00  0.00    -0.100 A 
ATOM     28  C   LIG    1       -1.327   0.902  -5.712  0.00  0.00    +0.020 A 
ATOM     29  C   LIG    1       -1.277  -0.336  -6.325  0.00  0.00    +0.020 A 
ATOM     30  C   LIG    1       -0.146  -1.122  -6.205  0.00  0.00    +0.000 A 
ATOM     31  C   LIG    1        0.935  -0.670  -5.472  0.00  0.00    +0.000 A 
ATOM     32  C   LIG    1        0.886   0.568  -4.859  0.00  0.00    +0.000 A 
ENDBRANCH  26  27
ENDBRANCH  21  26
ENDBRANCH  20  23
ENDBRANCH  19  20
ENDBRANCH   1  19
TORSDOF 6
