REMARK  Name = ZINCrD00000F5LIY.1
REMARK                            x       y       z     vdW  Elec       q    Type
REMARK                         _______ _______ _______ _____ _____    ______ ____
ROOT
ATOM      1  C   LIG    1        2.547   1.202  -0.023  0.00  0.00    +0.360 C 
ATOM      2  N   LIG    1        2.564  -0.094   0.045  0.00  0.00    -0.260 NA
ENDROOT
BRANCH   2   3
ATOM      3  N   LIG    1        3.778  -0.785  -0.059  0.00  0.00    -0.340 N 
ATOM      4  C   LIG    1        5.004  -0.226  -0.107  0.00  0.00    +0.430 A 
ATOM      5  N   LIG    1        5.905  -1.224  -0.205  0.00  0.00    -0.460 N 
ATOM      6  H   LIG    1        6.869  -1.124  -0.258  0.00  0.00    +0.470 HD
ATOM      7  N   LIG    1        5.197  -2.434  -0.217  0.00  0.00    -0.260 NA
ATOM      8  S   LIG    1        5.353   1.449  -0.053  0.00  0.00    -0.550 S 
ATOM      9  C   LIG    1        3.926  -2.158  -0.124  0.00  0.00    +0.370 A 
BRANCH   9  10
ATOM     10  C   LIG    1        2.826  -3.148  -0.095  0.00  0.00    -0.060 A 
ATOM     11  C   LIG    1        1.502  -2.721   0.011  0.00  0.00    +0.080 A 
ATOM     12  C   LIG    1        0.481  -3.649   0.033  0.00  0.00    +0.000 A 
ATOM     13  C   LIG    1        0.769  -5.000  -0.039  0.00  0.00    -0.050 A 
ATOM     14  C   LIG    1        2.080  -5.430  -0.140  0.00  0.00    +0.010 A 
ATOM     15  C   LIG    1       -0.351  -6.008  -0.009  0.00  0.00    +0.100 C 
ATOM     16  C   LIG    1        3.110  -4.512  -0.168  0.00  0.00    +0.080 A 
ENDBRANCH   9  10
ENDBRANCH   2   3
BRANCH   1  19
ATOM     17  C   LIG    1        0.034   3.990  -0.102  0.00  0.00    +0.130 A 
ATOM     18  C   LIG    1        1.242   3.319  -0.099  0.00  0.00    +0.000 A 
ATOM     19  C   LIG    1        1.262   1.923  -0.026  0.00  0.00    -0.030 A 
ATOM     20  C   LIG    1        0.060   1.214   0.044  0.00  0.00    +0.040 A 
ATOM     21  C   LIG    1       -1.141   1.890   0.035  0.00  0.00    +0.060 A 
ATOM     22  C   LIG    1       -1.161   3.276  -0.032  0.00  0.00    +0.080 A 
BRANCH  17  24
ATOM     23  C   LIG    1        1.272   6.016  -0.241  0.00  0.00    +0.250 C 
ATOM     24  O   LIG    1        0.011   5.348  -0.172  0.00  0.00    -0.310 OA
ENDBRANCH  17  24
BRANCH  22  25
ATOM     25  O   LIG    1       -2.348   3.938  -0.035  0.00  0.00    -0.280 OA
BRANCH  25  26
ATOM     26  C   LIG    1       -2.890   4.211  -1.232  0.00  0.00    +0.460 C 
ATOM     27  O   LIG    1       -2.283   3.953  -2.244  0.00  0.00    -0.490 OA
ATOM     28  C   LIG    1       -4.257   4.840  -1.314  0.00  0.00    +0.170 C 
ENDBRANCH  25  26
ENDBRANCH  22  25
ENDBRANCH   1  19
TORSDOF 6
