REMARK  Name = ZINCrD00000F5LiY.0
REMARK                            x       y       z     vdW  Elec       q    Type
REMARK                         _______ _______ _______ _____ _____    ______ ____
ROOT
ATOM      1  C   LIG    1        0.184  -4.197  -0.015  0.00  0.00    +0.420 C 
ATOM      2  O   LIG    1        1.314  -4.646  -0.009  0.00  0.00    -0.440 OA
ENDROOT
BRANCH   1  13
ATOM      3  C   LIG    1       -3.076  -7.052   0.221  0.00  0.00    +0.340 C 
ATOM      4  N   LIG    1       -1.663  -7.412   0.081  0.00  0.00    -0.490 N 
ATOM      5  C   LIG    1       -1.266  -8.734   0.053  0.00  0.00    +0.120 A 
ATOM      6  C   LIG    1       -2.058  -9.888   0.145  0.00  0.00    +0.010 A 
ATOM      7  C   LIG    1       -1.483 -11.137   0.105  0.00  0.00    +0.070 A 
ATOM      8  C   LIG    1       -0.113 -11.283  -0.026  0.00  0.00    +0.020 A 
ATOM      9  C   LIG    1        0.687 -10.160  -0.119  0.00  0.00    +0.100 A 
ATOM     10  C   LIG    1        0.114  -8.901  -0.079  0.00  0.00    -0.210 A 
ATOM     11  S   LIG    1        0.797  -7.273  -0.165  0.00  0.00    +0.280 S 
ATOM     12  C   LIG    1       -0.713  -6.461  -0.028  0.00  0.00    +0.220 A 
ATOM     13  C   LIG    1       -0.917  -5.069  -0.025  0.00  0.00    -0.270 C 
BRANCH  13  14
ATOM     14  C   LIG    1       -2.249  -4.541  -0.032  0.00  0.00    +0.270 C 
ATOM     15  N   LIG    1       -3.305  -4.122  -0.038  0.00  0.00    -0.440 NA
ENDBRANCH  13  14
ENDBRANCH   1  13
BRANCH   1  16
ATOM     16  C   LIG    1       -0.036  -2.706  -0.011  0.00  0.00    +0.210 C 
BRANCH  16  17
ATOM     17  O   LIG    1        1.228  -2.039  -0.000  0.00  0.00    -0.250 OA
BRANCH  17  18
ATOM     18  C   LIG    1        1.208  -0.682   0.004  0.00  0.00    +0.190 A 
ATOM     19  C   LIG    1       -0.001  -0.004  -0.001  0.00  0.00    -0.060 A 
ATOM     20  C   LIG    1       -0.020   1.377   0.004  0.00  0.00    +0.100 A 
ATOM     21  C   LIG    1        1.165   2.095   0.015  0.00  0.00    -0.080 A 
ATOM     22  C   LIG    1        2.377   1.435   0.021  0.00  0.00    +0.100 A 
ATOM     23 CL   LIG    1        1.126   3.830   0.021  0.00  0.00    -0.060 Cl
ATOM     24  C   LIG    1        2.410   0.039   0.015  0.00  0.00    -0.160 A 
BRANCH  24  25
ATOM     25  C   LIG    1        3.702  -0.673   0.021  0.00  0.00    +0.560 C 
ATOM     26  O   LIG    1        3.727  -1.888   0.016  0.00  0.00    -0.500 OA
ATOM     27  N   LIG    1        4.856   0.025   0.032  0.00  0.00    -0.860 N 
ATOM     28  H   LIG    1        5.705  -0.443   0.035  0.00  0.00    +0.410 HD
ATOM     29  H   LIG    1        4.836   0.994   0.035  0.00  0.00    +0.400 HD
ENDBRANCH  24  25
ENDBRANCH  17  18
ENDBRANCH  16  17
ENDBRANCH   1  16
TORSDOF 6
