REMARK  Name = ZINCvU00000009OQ.0
REMARK                            x       y       z     vdW  Elec       q    Type
REMARK                         _______ _______ _______ _____ _____    ______ ____
ROOT
ATOM      1  C   LIG    1        0.497  -4.186  -0.365  0.00  0.00    +0.200 A 
ATOM      2  N   LIG    1        0.095  -2.938  -0.283  0.00  0.00    -0.280 NA
ATOM      3  N   LIG    1        1.204  -2.112  -0.080  0.00  0.00    -0.300 N 
ATOM      4  C   LIG    1        2.321  -2.859  -0.039  0.00  0.00    +0.300 A 
ATOM      5  C   LIG    1        1.955  -4.179  -0.206  0.00  0.00    -0.280 A 
ENDROOT
BRANCH   1   9
ATOM      6  C   LIG    1       -1.963  -7.601  -0.975  0.00  0.00    +0.150 A 
ATOM      7  C   LIG    1       -2.433  -6.534  -0.221  0.00  0.00    -0.030 A 
ATOM      8  C   LIG    1       -1.638  -5.425  -0.022  0.00  0.00    +0.090 A 
ATOM      9  C   LIG    1       -0.360  -5.376  -0.578  0.00  0.00    -0.080 A 
ATOM     10  C   LIG    1        0.107  -6.447  -1.339  0.00  0.00    +0.130 A 
ATOM     11  C   LIG    1       -0.691  -7.556  -1.530  0.00  0.00    -0.090 A 
BRANCH   6  13
ATOM     12  C   LIG    1       -2.203  -9.753  -1.956  0.00  0.00    +0.250 C 
ATOM     13  O   LIG    1       -2.749  -8.691  -1.170  0.00  0.00    -0.320 OA
ENDBRANCH   6  13
ENDBRANCH   1   9
BRANCH   3  14
ATOM     14  C   LIG    1        1.159  -0.719   0.055  0.00  0.00    +0.140 A 
ATOM     15  C   LIG    1       -0.057  -0.052  -0.011  0.00  0.00    +0.030 A 
ATOM     16  C   LIG    1       -0.098   1.322   0.123  0.00  0.00    +0.050 A 
ATOM     17  C   LIG    1        1.071   2.034   0.322  0.00  0.00    +0.010 A 
ATOM     18  C   LIG    1        2.284   1.373   0.387  0.00  0.00    +0.050 A 
ATOM     19  C   LIG    1        2.331  -0.001   0.254  0.00  0.00    -0.010 A 
ENDBRANCH   3  14
BRANCH   5  20
ATOM     20  C   LIG    1        2.850  -5.347  -0.226  0.00  0.00    +0.600 C 
ATOM     21  N   LIG    1        4.178  -5.181  -0.066  0.00  0.00    -0.670 N 
ATOM     22  H   LIG    1        4.553  -4.288  -0.014  0.00  0.00    +0.410 HD
ATOM     23  O   LIG    1        2.392  -6.462  -0.387  0.00  0.00    -0.500 OA
BRANCH  21  24
ATOM     24  C   LIG    1        5.012  -6.292   0.026  0.00  0.00    +0.190 A 
ATOM     25  C   LIG    1        4.554  -7.456   0.638  0.00  0.00    +0.000 A 
ATOM     26  C   LIG    1        5.367  -8.550   0.725  0.00  0.00    +0.090 A 
ATOM     27  C   LIG    1        6.667  -8.496   0.208  0.00  0.00    -0.190 A 
ATOM     28  C   LIG    1        7.126  -7.322  -0.402  0.00  0.00    +0.100 A 
ATOM     29  C   LIG    1        6.304  -6.234  -0.490  0.00  0.00    -0.030 A 
BRANCH  27  30
ATOM     30  C   LIG    1        7.547  -9.668   0.304  0.00  0.00    +0.400 C 
ATOM     31  O   LIG    1        8.673  -9.620  -0.145  0.00  0.00    -0.460 OA
ATOM     32  C   LIG    1        7.051 -10.931   0.960  0.00  0.00    +0.070 C 
ENDBRANCH  27  30
ENDBRANCH  21  24
ENDBRANCH   5  20
TORSDOF 6
