REMARK  Name = ZINCpk00001AZisX.0
REMARK                            x       y       z     vdW  Elec       q    Type
REMARK                         _______ _______ _______ _____ _____    ______ ____
ROOT
ATOM      1  C   LIG    1        0.508   0.737   7.389  0.00  0.00    +0.330 C 
ENDROOT
BRANCH   1   2
ATOM      2  C   LIG    1        1.658   1.664   7.685  0.00  0.00    -0.240 A 
ATOM      3  C   LIG    1        2.922   1.292   7.992  0.00  0.00    +0.250 A 
ATOM      4  N   LIG    1        3.647   2.414   8.185  0.00  0.00    -0.470 N 
ATOM      5  H   LIG    1        4.588   2.453   8.418  0.00  0.00    +0.440 HD
ATOM      6  N   LIG    1        2.800   3.512   7.990  0.00  0.00    -0.290 NA
ATOM      7  C   LIG    1        1.610   3.062   7.684  0.00  0.00    +0.290 A 
ENDBRANCH   1   2
BRANCH   1   8
ATOM      8  C   LIG    1       -0.359   0.606   8.615  0.00  0.00    +0.180 A 
ATOM      9  N   LIG    1       -1.198   1.499   9.080  0.00  0.00    -0.270 NA
ATOM     10  N   LIG    1       -1.749   1.014  10.139  0.00  0.00    -0.070 NA
ATOM     11  N   LIG    1       -1.278  -0.162  10.366  0.00  0.00    -0.090 NA
ATOM     12  N   LIG    1       -0.419  -0.450   9.448  0.00  0.00    -0.300 N 
BRANCH  12  13
ATOM     13  C   LIG    1        0.349  -1.692   9.334  0.00  0.00    +0.370 C 
BRANCH  13  14
ATOM     14  C   LIG    1        1.667  -1.550  10.098  0.00  0.00    -0.060 C 
ATOM     15  C   LIG    1        2.964  -1.622   9.290  0.00  0.00    +0.020 C 
ATOM     16  C   LIG    1        2.563  -2.786  10.199  0.00  0.00    +0.060 C 
ENDBRANCH  13  14
ENDBRANCH  12  13
ENDBRANCH   1   8
BRANCH   1  17
ATOM     17  N   LIG    1       -0.289   1.283   6.282  0.00  0.00    -0.660 NA
ATOM     18  H   LIG    1       -1.254   0.998   6.357  0.00  0.00    +0.350 HD
BRANCH  17  19
ATOM     19  C   LIG    1        0.277   0.893   4.984  0.00  0.00    +0.170 C 
BRANCH  19  20
ATOM     20  C   LIG    1       -0.578   1.479   3.859  0.00  0.00    +0.110 C 
BRANCH  20  21
ATOM     21  C   LIG    1        0.011   1.072   2.506  0.00  0.00    +0.040 C 
ATOM     22  N   LIG    1        1.454   0.835   2.413  0.00  0.00    -0.120 NA
ATOM     23  N   LIG    1        0.751  -0.189   2.414  0.00  0.00    -0.130 NA
BRANCH  21  24
ATOM     24  C   LIG    1       -0.729   1.579   1.267  0.00  0.00    +0.120 C 
BRANCH  24  25
ATOM     25  C   LIG    1       -0.013   1.086   0.008  0.00  0.00    +0.160 C 
BRANCH  25  27
ATOM     26  C   LIG    1       -1.292   1.962  -2.136  0.00  0.00    +0.030 C 
ATOM     27  C   LIG    1       -0.725   1.573  -1.185  0.00  0.00    -0.190 C 
ENDBRANCH  25  27
ENDBRANCH  24  25
ENDBRANCH  21  24
ENDBRANCH  20  21
ENDBRANCH  19  20
ENDBRANCH  17  19
ENDBRANCH   1  17
TORSDOF 11
