REMARK  Name = ZINCrD0000074m3x.0
REMARK                            x       y       z     vdW  Elec       q    Type
REMARK                         _______ _______ _______ _____ _____    ______ ____
ROOT
ATOM      1  C   LIG    1       -0.375   4.026   0.616  0.00  0.00    +0.160 C 
ENDROOT
BRANCH   1   4
ATOM      2  C   LIG    1       -0.368   1.147   0.381  0.00  0.00    +0.130 C 
ATOM      3  C   LIG    1       -0.973   1.819   1.587  0.00  0.00    +0.050 A 
ATOM      4  C   LIG    1       -0.979   3.173   1.702  0.00  0.00    -0.210 A 
ATOM      5  C   LIG    1       -1.554   3.778   2.838  0.00  0.00    +0.520 A 
ATOM      6  O   LIG    1       -2.096   3.050   3.827  0.00  0.00    -0.270 OA
ATOM      7  C   LIG    1       -2.119   1.700   3.777  0.00  0.00    +0.170 A 
ATOM      8  C   LIG    1       -2.681   0.963   4.807  0.00  0.00    -0.020 A 
ATOM      9  C   LIG    1       -2.694  -0.421   4.736  0.00  0.00    +0.170 A 
ATOM     10  C   LIG    1       -2.145  -1.078   3.637  0.00  0.00    -0.030 A 
ATOM     11  C   LIG    1       -1.586  -0.367   2.614  0.00  0.00    +0.110 A 
ATOM     12  O   LIG    1       -1.556   4.993   2.926  0.00  0.00    -0.460 OA
ATOM     13  C   LIG    1       -1.565   1.031   2.669  0.00  0.00    -0.160 A 
BRANCH   9  14
ATOM     14  O   LIG    1       -3.245  -1.142   5.745  0.00  0.00    -0.490 OA
ATOM     15  H   LIG    1       -2.622  -1.378   6.446  0.00  0.00    +0.400 HD
ENDBRANCH   9  14
ENDBRANCH   1   4
BRANCH   1  16
ATOM     16  C   LIG    1       -1.456   4.463  -0.339  0.00  0.00    +0.520 C 
ATOM     17  N   LIG    1       -1.148   5.239  -1.397  0.00  0.00    -0.670 N 
ATOM     18  H   LIG    1       -0.246   5.579  -1.502  0.00  0.00    +0.410 HD
ATOM     19  O   LIG    1       -2.604   4.115  -0.155  0.00  0.00    -0.510 OA
BRANCH  17  20
ATOM     20  C   LIG    1       -2.131   5.554  -2.344  0.00  0.00    +0.120 A 
ATOM     21  C   LIG    1       -3.127   4.635  -2.646  0.00  0.00    +0.050 A 
ATOM     22  C   LIG    1       -4.094   4.951  -3.577  0.00  0.00    +0.000 A 
ATOM     23  C   LIG    1       -4.070   6.182  -4.224  0.00  0.00    +0.120 A 
ATOM     24  O   LIG    1       -5.036   6.449  -5.144  0.00  0.00    -0.320 OA
ATOM     25  C   LIG    1       -5.236   7.810  -5.525  0.00  0.00    +0.230 C 
ATOM     26  C   LIG    1       -3.872   8.421  -5.872  0.00  0.00    +0.010 C 
ATOM     27  C   LIG    1       -3.019   8.445  -4.601  0.00  0.00    +0.080 C 
ATOM     28  C   LIG    1       -3.075   7.097  -3.926  0.00  0.00    -0.140 A 
ATOM     29  C   LIG    1       -2.107   6.782  -2.988  0.00  0.00    +0.020 A 
ENDBRANCH  17  20
ENDBRANCH   1  16
TORSDOF 4
