REMARK  Name = ZINCrH000004vEdK.0
REMARK                            x       y       z     vdW  Elec       q    Type
REMARK                         _______ _______ _______ _____ _____    ______ ____
ROOT
ATOM      1  O   LIG    1       -6.192   1.301   3.937  0.00  0.00    -0.540 OA
ATOM      2  C   LIG    1       -5.146   0.765   4.250  0.00  0.00    +0.620 C 
ATOM      3  N   LIG    1       -4.975   0.303   5.505  0.00  0.00    -0.610 N 
ATOM      4  C   LIG    1       -3.767  -0.361   6.016  0.00  0.00    +0.270 C 
ATOM      5  C   LIG    1       -4.038  -0.735   7.488  0.00  0.00    +0.040 C 
ATOM      6  C   LIG    1       -5.588  -0.768   7.558  0.00  0.00    +0.040 C 
ATOM      7  C   LIG    1       -5.966   0.386   6.593  0.00  0.00    +0.290 C 
ENDROOT
BRANCH   6   8
ATOM      8  C   LIG    1       -6.072  -0.480   8.956  0.00  0.00    -0.070 A 
ATOM      9  C   LIG    1       -5.754   0.720   9.564  0.00  0.00    +0.030 A 
ATOM     10  C   LIG    1       -6.201   0.987  10.844  0.00  0.00    +0.020 A 
ATOM     11  C   LIG    1       -6.959   0.048  11.521  0.00  0.00    -0.040 A 
ATOM     12  C   LIG    1       -7.272  -1.155  10.915  0.00  0.00    +0.020 A 
ATOM     13 CL   LIG    1       -7.516   0.379  13.132  0.00  0.00    -0.070 Cl
ATOM     14  C   LIG    1       -6.829  -1.419   9.633  0.00  0.00    +0.030 A 
ENDBRANCH   6   8
BRANCH   2  15
ATOM     15  C   LIG    1       -4.064   0.622   3.257  0.00  0.00    -0.100 A 
ATOM     16  C   LIG    1       -4.109   1.049   1.961  0.00  0.00    +0.310 A 
ATOM     17  N   LIG    1       -2.926   0.722   1.401  0.00  0.00    -0.360 N 
ATOM     18  N   LIG    1       -2.166   0.094   2.397  0.00  0.00    -0.050 NA
ATOM     19  N   LIG    1       -2.867   0.052   3.477  0.00  0.00    -0.200 NA
BRANCH  17  20
ATOM     20  C   LIG    1       -2.513   0.980   0.019  0.00  0.00    +0.390 C 
BRANCH  20  21
ATOM     21  C   LIG    1       -1.219   1.751   0.017  0.00  0.00    -0.090 A 
ATOM     22  C   LIG    1       -1.238   3.133   0.031  0.00  0.00    +0.020 A 
ATOM     23  C   LIG    1       -0.051   3.842   0.023  0.00  0.00    +0.050 A 
ATOM     24  C   LIG    1        1.156   3.169   0.008  0.00  0.00    +0.000 A 
ATOM     25  C   LIG    1        1.177   1.784   0.000  0.00  0.00    +0.100 A 
ATOM     26  F   LIG    1        2.356   1.126  -0.014  0.00  0.00    -0.130 F 
ATOM     27  C   LIG    1       -0.013   1.076   0.008  0.00  0.00    +0.020 A 
ENDBRANCH  20  21
ENDBRANCH  17  20
ENDBRANCH   2  15
TORSDOF 4
