REMARK  Name = ZINCrH000004spoT.0
REMARK                            x       y       z     vdW  Elec       q    Type
REMARK                         _______ _______ _______ _____ _____    ______ ____
ROOT
ATOM      1  C   LIG    1       -1.511  -1.823   3.698  0.00  0.00    +0.200 C 
ATOM      2  C   LIG    1       -1.475  -0.374   3.286  0.00  0.00    +0.280 A 
ATOM      3  N   LIG    1       -1.884   0.636   4.005  0.00  0.00    -0.480 NA
ATOM      4  C   LIG    1       -1.709   1.778   3.325  0.00  0.00    +0.210 A 
ATOM      5  N   LIG    1       -1.176   1.497   2.155  0.00  0.00    -0.250 NA
ATOM      6  N   LIG    1       -1.013   0.103   2.110  0.00  0.00    -0.330 N 
ENDROOT
BRANCH   6   7
ATOM      7  C   LIG    1       -0.480  -0.646   1.052  0.00  0.00    +0.130 A 
ATOM      8  C   LIG    1        0.513  -1.586   1.296  0.00  0.00    +0.020 A 
ATOM      9  C   LIG    1        1.036  -2.322   0.251  0.00  0.00    +0.030 A 
ATOM     10  C   LIG    1        0.572  -2.124  -1.036  0.00  0.00    +0.030 A 
ATOM     11  C   LIG    1       -0.421  -1.194  -1.281  0.00  0.00    +0.030 A 
ATOM     12  C   LIG    1       -0.944  -0.450  -0.242  0.00  0.00    -0.050 A 
BRANCH  12  13
ATOM     13  C   LIG    1       -2.022   0.568  -0.510  0.00  0.00    +0.030 C 
ATOM     14  C   LIG    1       -3.187  -0.102  -1.241  0.00  0.00    +0.030 C 
ATOM     15  C   LIG    1       -1.455   1.693  -1.379  0.00  0.00    +0.030 C 
ENDBRANCH  12  13
ENDBRANCH   6   7
BRANCH   4  16
ATOM     16  C   LIG    1       -2.059   3.133   3.811  0.00  0.00    +0.580 C 
ATOM     17  O   LIG    1       -1.855   4.105   3.104  0.00  0.00    -0.580 OA
BRANCH  16  18
ATOM     18  N   LIG    1       -2.598   3.290   5.024  0.00  0.00    -0.610 NA
ATOM     19  C   LIG    1       -2.912   4.507   5.461  0.00  0.00    +0.480 A 
ATOM     20  C   LIG    1       -3.483   4.826   6.711  0.00  0.00    -0.070 A 
ATOM     21  C   LIG    1       -3.647   6.166   6.771  0.00  0.00    +0.220 A 
ATOM     22  N   LIG    1       -3.202   6.719   5.606  0.00  0.00    -0.490 N 
ATOM     23  H   LIG    1       -3.205   7.664   5.388  0.00  0.00    +0.440 HD
ATOM     24  N   LIG    1       -2.734   5.688   4.780  0.00  0.00    -0.480 N 
ATOM     25  H   LIG    1       -2.357   5.788   3.892  0.00  0.00    +0.460 HD
BRANCH  21  26
ATOM     26  C   LIG    1       -4.227   6.926   7.936  0.00  0.00    +0.040 C 
ATOM     27  C   LIG    1       -4.518   8.414   7.734  0.00  0.00    +0.030 C 
ATOM     28  C   LIG    1       -3.339   7.976   8.606  0.00  0.00    -0.020 C 
ATOM     29  C   LIG    1       -3.476   8.155  10.120  0.00  0.00    +0.070 C 
ENDBRANCH  21  26
ENDBRANCH  16  18
ENDBRANCH   4  16
TORSDOF 5
