REMARK  Name = ZINCpe000027pGSV.1
REMARK                            x       y       z     vdW  Elec       q    Type
REMARK                         _______ _______ _______ _____ _____    ______ ____
ROOT
ATOM      1  C   LIG    1       -0.088   3.120   1.465  0.00  0.00    +0.200 C 
ATOM      2  C   LIG    1       -0.741   3.921   2.594  0.00  0.00    +0.050 C 
ATOM      3  C   LIG    1        0.529   3.112   2.863  0.00  0.00    -0.120 C 
ATOM      4  C   LIG    1        1.835   3.886   3.070  0.00  0.00    +0.060 C 
ATOM      5  C   LIG    1        1.993   4.197   4.563  0.00  0.00    +0.290 C 
ATOM      6  N   LIG    1        1.823   2.953   5.325  0.00  0.00    -0.600 N 
ATOM      7  C   LIG    1        0.582   2.183   5.175  0.00  0.00    +0.270 C 
ATOM      8  C   LIG    1        2.795   2.524   6.155  0.00  0.00    +0.500 C 
ATOM      9  O   LIG    1        2.606   1.557   6.861  0.00  0.00    -0.530 OA
ATOM     10  C   LIG    1        0.395   1.832   3.694  0.00  0.00    +0.060 C 
ENDROOT
BRANCH   8  11
ATOM     11  C   LIG    1        4.117   3.246   6.204  0.00  0.00    +0.090 C 
ATOM     12  C   LIG    1        5.159   2.570   7.114  0.00  0.00    +0.190 C 
ATOM     13  N   LIG    1        5.496   3.938   7.574  0.00  0.00    -0.620 NA
ATOM     14  H   LIG    1        5.625   3.962   8.575  0.00  0.00    +0.330 HD
ATOM     15  C   LIG    1        4.146   4.418   7.203  0.00  0.00    +0.220 C 
BRANCH  11  16
ATOM     16  O   LIG    1        4.617   3.583   4.909  0.00  0.00    -0.510 OA
ATOM     17  H   LIG    1        4.681   2.831   4.304  0.00  0.00    +0.380 HD
ENDBRANCH  11  16
ENDBRANCH   8  11
BRANCH   1  20
ATOM     18  C   LIG    1       -2.801   3.263   0.651  0.00  0.00    +0.080 C 
ATOM     19  C   LIG    1       -2.042   1.962   0.583  0.00  0.00    +0.520 C 
ATOM     20  N   LIG    1       -0.768   1.902   1.019  0.00  0.00    -0.580 N 
ATOM     21  O   LIG    1       -2.578   0.970   0.136  0.00  0.00    -0.540 OA
BRANCH  20  22
ATOM     22  C   LIG    1       -0.064   0.617   1.047  0.00  0.00    +0.350 C 
BRANCH  22  23
ATOM     23  C   LIG    1        0.641   0.403  -0.268  0.00  0.00    -0.120 A 
ATOM     24  C   LIG    1        1.893   0.811  -0.485  0.00  0.00    -0.040 A 
ATOM     25  S   LIG    1        2.374   0.388  -2.123  0.00  0.00    +0.090 S 
ATOM     26  C   LIG    1        0.803  -0.341  -2.429  0.00  0.00    -0.050 A 
ATOM     27  C   LIG    1        0.042  -0.238  -1.338  0.00  0.00    +0.020 A 
ENDBRANCH  22  23
ENDBRANCH  20  22
ENDBRANCH   1  20
TORSDOF 5
