REMARK  Name = ZINCtV00000vAOnC.0
REMARK                            x       y       z     vdW  Elec       q    Type
REMARK                         _______ _______ _______ _____ _____    ______ ____
ROOT
ATOM      1  N   LIG    1        2.397   5.297  -0.002  0.00  0.00    -0.670 N 
ATOM      2  H   LIG    1        2.345   4.445  -0.463  0.00  0.00    +0.410 HD
ATOM      3  C   LIG    1        1.349   5.735   0.724  0.00  0.00    +0.560 C 
ATOM      4  O   LIG    1        1.446   6.757   1.377  0.00  0.00    -0.490 OA
ENDROOT
BRANCH   1   9
ATOM      5  C   LIG    1        4.629   8.218  -0.168  0.00  0.00    +0.160 A 
ATOM      6  C   LIG    1        5.867   7.595  -0.263  0.00  0.00    +0.010 A 
ATOM      7  C   LIG    1        5.948   6.215  -0.272  0.00  0.00    +0.050 A 
ATOM      8  C   LIG    1        4.800   5.452  -0.185  0.00  0.00    -0.030 A 
ATOM      9  C   LIG    1        3.559   6.070  -0.089  0.00  0.00    +0.160 A 
ATOM     10  C   LIG    1        3.473   7.455  -0.086  0.00  0.00    +0.000 A 
BRANCH   5  12
ATOM     11  C   LIG    1        5.403  10.345  -0.903  0.00  0.00    +0.520 C 
ATOM     12  N   LIG    1        4.548   9.615  -0.159  0.00  0.00    -0.670 N 
ATOM     13  H   LIG    1        3.876  10.059   0.382  0.00  0.00    +0.410 HD
ATOM     14  O   LIG    1        6.296   9.796  -1.514  0.00  0.00    -0.520 OA
BRANCH  11  16
ATOM     15  C   LIG    1        6.340  12.423  -1.879  0.00  0.00    +0.060 C 
ATOM     16  C   LIG    1        5.250  11.842  -0.975  0.00  0.00    -0.080 C 
ATOM     17  C   LIG    1        5.382  12.437   0.428  0.00  0.00    +0.050 C 
ATOM     18  C   LIG    1        3.875  12.188  -1.549  0.00  0.00    +0.050 C 
ENDBRANCH  11  16
ENDBRANCH   5  12
ENDBRANCH   1   9
BRANCH   3  19
ATOM     19  C   LIG    1        0.085   4.977   0.725  0.00  0.00    -0.130 A 
ATOM     20  C   LIG    1       -0.032   3.803  -0.024  0.00  0.00    +0.070 A 
ATOM     21  C   LIG    1       -1.216   3.099  -0.018  0.00  0.00    -0.010 A 
ATOM     22  C   LIG    1       -2.293   3.545   0.732  0.00  0.00    +0.070 A 
ATOM     23  C   LIG    1       -2.196   4.705   1.472  0.00  0.00    -0.020 A 
ATOM     24  C   LIG    1       -1.010   5.430   1.480  0.00  0.00    -0.040 A 
BRANCH  24  25
ATOM     25  S   LIG    1       -0.881   6.908   2.430  0.00  0.00    +0.020 S 
BRANCH  25  26
ATOM     26  C   LIG    1       -2.521   7.047   3.193  0.00  0.00    +0.110 C 
BRANCH  26  27
ATOM     27  C   LIG    1       -2.571   8.284   4.053  0.00  0.00    -0.170 A 
ATOM     28  C   LIG    1       -2.946   9.495   3.636  0.00  0.00    +0.020 A 
ATOM     29  C   LIG    1       -2.913  10.481   4.607  0.00  0.00    +0.000 A 
ATOM     30  C   LIG    1       -2.512  10.071   5.811  0.00  0.00    -0.040 A 
ATOM     31  S   LIG    1       -2.153   8.350   5.760  0.00  0.00    +0.120 S 
ENDBRANCH  26  27
ENDBRANCH  25  26
ENDBRANCH  24  25
ENDBRANCH   3  19
TORSDOF 7
