REMARK  Name = ZINCrD000000CMV8.0
REMARK                            x       y       z     vdW  Elec       q    Type
REMARK                         _______ _______ _______ _____ _____    ______ ____
ROOT
ATOM      1  C   LIG    1       -0.762   1.985  -1.247  0.00  0.00    +0.530 C 
ATOM      2  N   LIG    1       -2.086   1.750  -1.330  0.00  0.00    -0.660 N 
ATOM      3  H   LIG    1       -2.515   1.157  -0.693  0.00  0.00    +0.420 HD
ATOM      4  O   LIG    1       -0.209   2.649  -2.098  0.00  0.00    -0.480 OA
ENDROOT
BRANCH   1   9
ATOM      5  O   LIG    1        3.191   0.549  -1.246  0.00  0.00    -0.480 OA
ATOM      6  C   LIG    1        2.056   0.586  -0.819  0.00  0.00    +0.540 C 
ATOM      7  C   LIG    1        1.074  -0.563  -0.875  0.00  0.00    +0.110 C 
ATOM      8  C   LIG    1       -0.102  -0.105   0.025  0.00  0.00    +0.120 C 
ATOM      9  C   LIG    1        0.033   1.421  -0.097  0.00  0.00    +0.120 C 
ATOM     10  S   LIG    1       -0.323   2.240   1.499  0.00  0.00    -0.070 S 
ATOM     11  C   LIG    1        1.032   3.386   1.365  0.00  0.00    -0.120 A 
ATOM     12  C   LIG    1        1.312   4.563   2.027  0.00  0.00    +0.090 A 
ATOM     13  C   LIG    1        2.463   5.269   1.721  0.00  0.00    +0.020 A 
ATOM     14  C   LIG    1        3.319   4.779   0.752  0.00  0.00    +0.060 A 
ATOM     15  C   LIG    1        3.040   3.603   0.090  0.00  0.00    +0.020 A 
ATOM     16  C   LIG    1        1.880   2.872   0.382  0.00  0.00    +0.160 A 
ATOM     17  N   LIG    1        1.486   1.663  -0.224  0.00  0.00    -0.550 N 
ENDBRANCH   1   9
BRANCH   2  18
ATOM     18  C   LIG    1       -2.844   2.364  -2.334  0.00  0.00    +0.150 A 
ATOM     19  C   LIG    1       -3.932   1.699  -2.887  0.00  0.00    +0.030 A 
ATOM     20  C   LIG    1       -4.684   2.300  -3.879  0.00  0.00    +0.040 A 
ATOM     21  C   LIG    1       -4.357   3.564  -4.328  0.00  0.00    +0.050 A 
ATOM     22  C   LIG    1       -3.266   4.240  -3.779  0.00  0.00    -0.010 A 
ATOM     23  C   LIG    1       -2.512   3.636  -2.774  0.00  0.00    +0.080 A 
BRANCH  22  24
ATOM     24  C   LIG    1       -2.914   5.593  -4.258  0.00  0.00    +0.210 A 
ATOM     25  N   LIG    1       -1.920   6.336  -3.832  0.00  0.00    -0.270 NA
ATOM     26  N   LIG    1       -1.917   7.451  -4.474  0.00  0.00    -0.290 NA
ATOM     27  C   LIG    1       -2.902   7.464  -5.329  0.00  0.00    +0.420 A 
ATOM     28  O   LIG    1       -3.552   6.293  -5.218  0.00  0.00    -0.220 OA
ENDBRANCH  22  24
ENDBRANCH   2  18
TORSDOF 3
