REMARK  Name = ZINCqH00000352Ci.0
REMARK                            x       y       z     vdW  Elec       q    Type
REMARK                         _______ _______ _______ _____ _____    ______ ____
ROOT
ATOM      1  N   LIG    1        0.140  -6.818   5.024  0.00  0.00    -0.630 N 
ATOM      2  H   LIG    1        0.134  -5.958   5.473  0.00  0.00    +0.420 HD
ATOM      3  C   LIG    1        0.128  -6.874   3.677  0.00  0.00    +0.550 C 
ATOM      4  O   LIG    1        0.136  -7.951   3.114  0.00  0.00    -0.490 OA
ENDROOT
BRANCH   1   6
ATOM      5  C   LIG    1        0.183  -8.041   7.136  0.00  0.00    -0.190 A 
ATOM      6  C   LIG    1        0.163  -7.987   5.765  0.00  0.00    +0.040 A 
ATOM      7  S   LIG    1        0.178  -9.556   5.101  0.00  0.00    +0.310 S 
ATOM      8  C   LIG    1        0.204 -10.311   6.684  0.00  0.00    -0.250 A 
ATOM      9  C   LIG    1        0.226 -11.799   6.922  0.00  0.00    +0.150 C 
ATOM     10  C   LIG    1        0.201  -9.396   7.643  0.00  0.00    -0.050 A 
ATOM     11  C   LIG    1        0.220  -9.733   9.111  0.00  0.00    +0.120 C 
BRANCH   5  12
ATOM     12  C   LIG    1        0.181  -6.855   7.995  0.00  0.00    +0.530 C 
ATOM     13  O   LIG    1       -0.872  -6.375   8.366  0.00  0.00    -0.490 OA
BRANCH  12  15
ATOM     14  C   LIG    1        1.272  -5.122   9.225  0.00  0.00    +0.270 C 
ATOM     15  O   LIG    1        1.349  -6.295   8.373  0.00  0.00    -0.350 OA
ENDBRANCH  12  15
ENDBRANCH   5  12
ENDBRANCH   1   6
BRANCH   3  16
ATOM     16  C   LIG    1        0.104  -5.626   2.885  0.00  0.00    -0.110 A 
ATOM     17  C   LIG    1        0.091  -5.684   1.490  0.00  0.00    +0.100 A 
ATOM     18  C   LIG    1        0.069  -4.521   0.753  0.00  0.00    +0.070 A 
ATOM     19  C   LIG    1        0.059  -3.284   1.400  0.00  0.00    +0.000 A 
ATOM     20  C   LIG    1        0.078  -3.226   2.795  0.00  0.00    +0.080 A 
ATOM     21  C   LIG    1        0.094  -4.388   3.533  0.00  0.00    +0.050 A 
BRANCH  19  22
ATOM     22  C   LIG    1        0.035  -2.036   0.608  0.00  0.00    +0.220 A 
ATOM     23  N   LIG    1        0.023  -0.802   1.081  0.00  0.00    -0.470 NA
ATOM     24  C   LIG    1        0.002  -0.004   0.002  0.00  0.00    +0.180 A 
ATOM     25  N   LIG    1       -0.003  -0.766  -1.052  0.00  0.00    -0.380 NA
ATOM     26  C   LIG    1       -0.018   1.503   0.010  0.00  0.00    +0.200 C 
ATOM     27  O   LIG    1        0.020  -1.935  -0.730  0.00  0.00    +0.090 OA
ENDBRANCH  19  22
ENDBRANCH   3  16
TORSDOF 5
