REMARK  Name = ZINCvU0000000H0o.0
REMARK                            x       y       z     vdW  Elec       q    Type
REMARK                         _______ _______ _______ _____ _____    ______ ____
ROOT
ATOM      1  C   LIG    1        1.684  -1.915  -0.025  0.00  0.00    +0.220 C 
ATOM      2  C   LIG    1        1.348  -0.634  -0.320  0.00  0.00    -0.270 C 
ATOM      3  S   LIG    1        2.390   0.804  -0.317  0.00  0.00    -0.040 S 
ATOM      4  C   LIG    1        1.094   1.909  -0.810  0.00  0.00    +0.480 C 
ATOM      5  N   LIG    1        0.006   1.188  -0.945  0.00  0.00    -0.650 NA
ATOM      6  C   LIG    1        0.032  -0.107  -0.720  0.00  0.00    +0.550 C 
ATOM      7  O   LIG    1       -0.955  -0.816  -0.833  0.00  0.00    -0.450 OA
ENDROOT
BRANCH   1  11
ATOM      8  C   LIG    1       -1.332  -4.876   0.309  0.00  0.00    +0.160 A 
ATOM      9  C   LIG    1       -0.127  -5.183  -0.312  0.00  0.00    -0.030 A 
ATOM     10  C   LIG    1        0.856  -4.225  -0.423  0.00  0.00    +0.090 A 
ATOM     11  C   LIG    1        0.639  -2.941   0.091  0.00  0.00    -0.140 A 
ATOM     12  C   LIG    1       -0.575  -2.639   0.720  0.00  0.00    +0.120 A 
ATOM     13  C   LIG    1       -1.552  -3.603   0.822  0.00  0.00    -0.090 A 
BRANCH   8  14
ATOM     14  O   LIG    1       -2.298  -5.824   0.416  0.00  0.00    -0.310 OA
BRANCH  14  15
ATOM     15  C   LIG    1       -3.512  -5.443   1.066  0.00  0.00    +0.190 C 
BRANCH  15  16
ATOM     16  C   LIG    1       -4.473  -6.634   1.091  0.00  0.00    +0.020 C 
BRANCH  16  18
ATOM     17  C   LIG    1       -6.734  -7.416   1.811  0.00  0.00    +0.030 C 
ATOM     18  C   LIG    1       -5.773  -6.226   1.786  0.00  0.00    +0.020 C 
ENDBRANCH  16  18
ENDBRANCH  15  16
ENDBRANCH  14  15
ENDBRANCH   8  14
ENDBRANCH   1  11
BRANCH   4  19
ATOM     19  N   LIG    1        1.208   3.259  -1.012  0.00  0.00    -0.540 N 
ATOM     20  C   LIG    1        2.494   3.945  -0.818  0.00  0.00    +0.320 C 
ATOM     21  C   LIG    1        2.790   4.779  -2.075  0.00  0.00    +0.210 C 
ATOM     22  N   LIG    1        1.649   5.664  -2.348  0.00  0.00    -0.490 N 
ATOM     23  C   LIG    1        0.436   4.892  -2.649  0.00  0.00    +0.200 C 
ATOM     24  C   LIG    1        0.046   4.061  -1.422  0.00  0.00    +0.320 C 
BRANCH  22  25
ATOM     25  C   LIG    1        1.944   6.556  -3.382  0.00  0.00    +0.120 A 
ATOM     26  C   LIG    1        1.129   6.614  -4.505  0.00  0.00    -0.040 A 
ATOM     27  C   LIG    1        1.420   7.500  -5.524  0.00  0.00    +0.060 A 
ATOM     28  C   LIG    1        2.528   8.321  -5.432  0.00  0.00    +0.000 A 
ATOM     29  C   LIG    1        3.346   8.263  -4.317  0.00  0.00    -0.010 A 
ATOM     30 CL   LIG    1        4.736   9.297  -4.206  0.00  0.00    -0.060 Cl
ATOM     31  C   LIG    1        3.057   7.382  -3.292  0.00  0.00    +0.010 A 
ENDBRANCH  22  25
ENDBRANCH   4  19
TORSDOF 7
