REMARK  Name = ZINCqH0000006dti.0
REMARK                            x       y       z     vdW  Elec       q    Type
REMARK                         _______ _______ _______ _____ _____    ______ ____
ROOT
ATOM      1  N   LIG    1       -0.548   2.013   1.083  0.00  0.00    -0.610 N 
ATOM      2  C   LIG    1       -1.863   1.907   0.801  0.00  0.00    +0.570 C 
ATOM      3  C   LIG    1       -2.852   2.373   1.790  0.00  0.00    -0.200 A 
ATOM      4  C   LIG    1       -4.201   2.040   1.692  0.00  0.00    +0.110 A 
ATOM      5  C   LIG    1       -5.088   2.515   2.637  0.00  0.00    -0.040 A 
ATOM      6  C   LIG    1       -4.646   3.316   3.678  0.00  0.00    +0.080 A 
ATOM      7  C   LIG    1       -3.310   3.651   3.788  0.00  0.00    -0.050 A 
ATOM      8  C   LIG    1       -2.407   3.182   2.851  0.00  0.00    +0.240 A 
ATOM      9  N   LIG    1       -1.051   3.484   2.918  0.00  0.00    -0.740 N 
ATOM     10  H   LIG    1       -0.748   4.316   3.314  0.00  0.00    +0.420 HD
ATOM     11  O   LIG    1       -2.229   1.429  -0.256  0.00  0.00    -0.530 OA
ATOM     12  C   LIG    1       -0.089   2.516   2.378  0.00  0.00    +0.550 C 
ENDROOT
BRANCH  12  13
ATOM     13  C   LIG    1        0.052   1.363   3.339  0.00  0.00    -0.140 A 
ATOM     14  C   LIG    1        0.250   0.083   2.857  0.00  0.00    +0.070 A 
ATOM     15  C   LIG    1        0.385  -0.974   3.735  0.00  0.00    -0.050 A 
ATOM     16  C   LIG    1        0.312  -0.752   5.103  0.00  0.00    +0.110 A 
ATOM     17  C   LIG    1        0.108   0.533   5.584  0.00  0.00    +0.020 A 
ATOM     18  C   LIG    1       -0.021   1.588   4.701  0.00  0.00    +0.090 A 
BRANCH  16  19
ATOM     19  O   LIG    1        0.438  -1.791   5.969  0.00  0.00    -0.310 OA
BRANCH  19  20
ATOM     20  C   LIG    1        0.646  -3.086   5.403  0.00  0.00    +0.600 C 
ATOM     21  F   LIG    1       -0.436  -3.414   4.579  0.00  0.00    -0.160 F 
ATOM     22  F   LIG    1        0.754  -4.032   6.428  0.00  0.00    -0.130 F 
ATOM     23  F   LIG    1        1.823  -3.081   4.647  0.00  0.00    -0.160 F 
ENDBRANCH  19  20
ENDBRANCH  16  19
ENDBRANCH  12  13
BRANCH   1  24
ATOM     24  C   LIG    1        0.438   1.623   0.073  0.00  0.00    +0.310 C 
BRANCH  24  25
ATOM     25  C   LIG    1        0.694   2.799  -0.871  0.00  0.00    +0.160 C 
BRANCH  25  27
ATOM     26  C   LIG    1        1.588   5.022  -0.939  0.00  0.00    +0.200 C 
ATOM     27  O   LIG    1        1.305   3.868  -0.146  0.00  0.00    -0.390 OA
ENDBRANCH  25  27
ENDBRANCH  24  25
ENDBRANCH   1  24
TORSDOF 6
