REMARK  Name = ZINCtV00000L6k9p.0
REMARK                            x       y       z     vdW  Elec       q    Type
REMARK                         _______ _______ _______ _____ _____    ______ ____
ROOT
ATOM      1  C   LIG    1        0.002  -0.004   0.002  0.00  0.00    +0.480 A 
ATOM      2  C   LIG    1        1.199  -0.690  -0.013  0.00  0.00    -0.160 A 
ATOM      3  C   LIG    1        1.184  -2.084  -0.021  0.00  0.00    +0.260 A 
ATOM      4  N   LIG    1        0.041  -2.736  -0.013  0.00  0.00    -0.500 NA
ATOM      5  C   LIG    1       -1.127  -2.086   0.002  0.00  0.00    +0.320 A 
ATOM      6  C   LIG    1       -2.455  -2.530   0.012  0.00  0.00    -0.220 A 
ATOM      7  C   LIG    1       -3.272  -1.392   0.026  0.00  0.00    +0.140 A 
ATOM      8  N   LIG    1       -2.511  -0.326   0.024  0.00  0.00    -0.330 NA
ATOM      9  C   LIG    1       -4.779  -1.394   0.040  0.00  0.00    +0.170 C 
ATOM     10  N   LIG    1       -1.168  -0.717   0.015  0.00  0.00    -0.350 N 
ENDROOT
BRANCH   6  11
ATOM     11  C   LIG    1       -2.912  -3.939   0.009  0.00  0.00    +0.020 A 
ATOM     12  C   LIG    1       -2.658  -4.754  -1.094  0.00  0.00    +0.020 A 
ATOM     13  C   LIG    1       -3.082  -6.067  -1.089  0.00  0.00    +0.000 A 
ATOM     14  C   LIG    1       -3.766  -6.572   0.002  0.00  0.00    +0.000 A 
ATOM     15  C   LIG    1       -4.025  -5.767   1.097  0.00  0.00    +0.000 A 
ATOM     16  C   LIG    1       -3.602  -4.454   1.106  0.00  0.00    +0.010 A 
ENDBRANCH   6  11
BRANCH   3  17
ATOM     17  C   LIG    1        2.483  -2.847  -0.037  0.00  0.00    -0.020 C 
ATOM     18  C   LIG    1        3.300  -2.491   1.206  0.00  0.00    +0.050 C 
ATOM     19  C   LIG    1        3.276  -2.477  -1.292  0.00  0.00    +0.050 C 
ATOM     20  C   LIG    1        2.192  -4.349  -0.042  0.00  0.00    +0.050 C 
ENDBRANCH   3  17
BRANCH   1  21
ATOM     21  N   LIG    1       -0.017   1.374   0.010  0.00  0.00    -0.710 N 
ATOM     22  H   LIG    1       -0.863   1.847   0.016  0.00  0.00    +0.420 HD
BRANCH  21  23
ATOM     23  C   LIG    1        1.242   2.123   0.002  0.00  0.00    +0.280 C 
BRANCH  23  24
ATOM     24  C   LIG    1        0.942   3.624   0.013  0.00  0.00    +0.010 C 
BRANCH  24  25
ATOM     25  C   LIG    1        2.256   4.407   0.004  0.00  0.00    +0.020 C 
BRANCH  25  26
ATOM     26  C   LIG    1        1.957   5.907   0.015  0.00  0.00    +0.000 C 
BRANCH  26  27
ATOM     27  C   LIG    1        3.271   6.690   0.007  0.00  0.00    +0.000 C 
BRANCH  27  28
ATOM     28  C   LIG    1        2.971   8.190   0.018  0.00  0.00    +0.000 C 
BRANCH  28  30
ATOM     29  C   LIG    1        3.986  10.473   0.020  0.00  0.00    +0.000 C 
ATOM     30  C   LIG    1        4.286   8.973   0.009  0.00  0.00    -0.010 C 
ENDBRANCH  28  30
ENDBRANCH  27  28
ENDBRANCH  26  27
ENDBRANCH  25  26
ENDBRANCH  24  25
ENDBRANCH  23  24
ENDBRANCH  21  23
ENDBRANCH   1  21
TORSDOF 10
