REMARK  Name = ZINCrD0000074rOF.0
REMARK                            x       y       z     vdW  Elec       q    Type
REMARK                         _______ _______ _______ _____ _____    ______ ____
ROOT
ATOM      1  C   LIG    1        2.318   0.933  -0.685  0.00  0.00    +0.590 C 
ATOM      2  N   LIG    1        1.362   1.593  -0.002  0.00  0.00    -0.700 N 
ATOM      3  H   LIG    1        1.583   2.404   0.482  0.00  0.00    +0.400 HD
ATOM      4  O   LIG    1        2.041  -0.084  -1.292  0.00  0.00    -0.530 OA
ENDROOT
BRANCH   1  11
ATOM      5  C   LIG    1        8.734   4.608   0.133  0.00  0.00    +0.090 C 
ATOM      6  C   LIG    1        7.726   3.575  -0.298  0.00  0.00    -0.050 A 
ATOM      7  C   LIG    1        8.126   2.517  -1.105  0.00  0.00    -0.030 A 
ATOM      8  C   LIG    1        7.229   1.571  -1.506  0.00  0.00    -0.030 A 
ATOM      9  C   LIG    1        5.890   1.664  -1.104  0.00  0.00    -0.120 A 
ATOM     10  C   LIG    1        4.745   0.867  -1.343  0.00  0.00    +0.050 A 
ATOM     11  CA  LIG    1        3.698   1.442  -0.695  0.00  0.00    +0.010 A 
ATOM     12  N   LIG    1        4.135   2.584  -0.052  0.00  0.00    -0.570 N 
ATOM     13  H   LIG    1        3.583   3.179   0.479  0.00  0.00    +0.410 HD
ATOM     14  C   LIG    1        5.481   2.736  -0.286  0.00  0.00    +0.130 A 
ATOM     15  C   LIG    1        7.676   0.428  -2.382  0.00  0.00    +0.090 C 
ATOM     16  C   LIG    1        6.415   3.689   0.110  0.00  0.00    -0.110 A 
ATOM     17  C   LIG    1        5.994   4.841   0.985  0.00  0.00    +0.100 C 
ENDBRANCH   1  11
BRANCH   2  18
ATOM     18  CA  LIG    1       -0.013   1.086   0.008  0.00  0.00    +0.270 C 
BRANCH  18  19
ATOM     19  C   LIG    1       -0.729   1.579   1.267  0.00  0.00    +0.020 C 
BRANCH  19  20
ATOM     20  C   LIG    1       -0.064   0.971   2.503  0.00  0.00    +0.260 C 
BRANCH  20  21
ATOM     21  C   LIG    1       -0.843   1.358   3.734  0.00  0.00    -0.120 A 
ATOM     22  C   LIG    1       -0.665   2.606   4.301  0.00  0.00    +0.010 A 
ATOM     23  C   LIG    1       -1.382   2.962   5.428  0.00  0.00    +0.000 A 
ATOM     24  C   LIG    1       -2.272   2.067   5.992  0.00  0.00    +0.000 A 
ATOM     25  C   LIG    1       -2.446   0.817   5.428  0.00  0.00    +0.000 A 
ATOM     26  C   LIG    1       -1.731   0.463   4.299  0.00  0.00    +0.010 A 
ENDBRANCH  20  21
BRANCH  20  27
ATOM     27  O   LIG    1        1.274   1.460   2.613  0.00  0.00    -0.550 OA
ATOM     28  H   LIG    1        1.336   2.422   2.700  0.00  0.00    +0.370 HD
ENDBRANCH  20  27
ENDBRANCH  19  20
ENDBRANCH  18  19
BRANCH  18  29
ATOM     29  C   LIG    1       -0.753   1.593  -1.232  0.00  0.00    +0.180 C 
BRANCH  29  30
ATOM     30  O   LIG    1       -0.874   3.015  -1.165  0.00  0.00    -0.570 OA
ATOM     31  H   LIG    1       -1.334   3.406  -1.921  0.00  0.00    +0.380 HD
ENDBRANCH  29  30
ENDBRANCH  18  29
ENDBRANCH   2  18
TORSDOF 8
