REMARK  Name = ZINCqH0000002Y1e.0
REMARK                            x       y       z     vdW  Elec       q    Type
REMARK                         _______ _______ _______ _____ _____    ______ ____
ROOT
ATOM      1  C   LIG    1        2.496   0.723  -0.504  0.00  0.00    +0.350 C 
ENDROOT
BRANCH   1   2
ATOM      2  C   LIG    1        2.239  -0.477  -1.378  0.00  0.00    -0.090 A 
ATOM      3  C   LIG    1        1.012  -1.113  -1.336  0.00  0.00    +0.020 A 
ATOM      4  C   LIG    1        0.775  -2.211  -2.142  0.00  0.00    -0.080 A 
ATOM      5  C   LIG    1        1.768  -2.679  -2.982  0.00  0.00    +0.010 A 
ATOM      6  C   LIG    1        2.997  -2.046  -3.021  0.00  0.00    -0.080 A 
ATOM      7  C   LIG    1        4.079  -2.557  -3.937  0.00  0.00    +0.090 C 
ATOM      8  C   LIG    1       -0.564  -2.901  -2.100  0.00  0.00    +0.090 C 
ATOM      9  C   LIG    1        3.232  -0.946  -2.218  0.00  0.00    +0.010 A 
ENDBRANCH   1   2
BRANCH   1  10
ATOM     10  C   LIG    1        1.596   1.855  -0.927  0.00  0.00    -0.140 A 
ATOM     11  C   LIG    1        1.994   2.734  -1.922  0.00  0.00    +0.080 A 
ATOM     12  C   LIG    1        1.133   3.761  -2.279  0.00  0.00    -0.030 A 
ATOM     13  C   LIG    1       -0.085   3.872  -1.636  0.00  0.00    +0.260 A 
ATOM     14  N   LIG    1       -0.433   3.014  -0.697  0.00  0.00    -0.480 NA
ATOM     15  C   LIG    1        0.362   2.029  -0.328  0.00  0.00    +0.260 A 
ENDBRANCH   1  10
BRANCH   1  16
ATOM     16  N   LIG    1        2.222   0.377   0.893  0.00  0.00    -0.590 N 
ATOM     17  C   LIG    1        3.066   0.776   1.865  0.00  0.00    +0.580 C 
ATOM     18  O   LIG    1        4.004   1.501   1.595  0.00  0.00    -0.520 OA
BRANCH  17  19
ATOM     19  C   LIG    1        2.851   0.333   3.262  0.00  0.00    +0.030 A 
ATOM     20  C   LIG    1        3.303   1.118   4.322  0.00  0.00    +0.290 A 
ATOM     21  N   LIG    1        3.108   0.718   5.566  0.00  0.00    -0.440 NA
ATOM     22  C   LIG    1        2.487  -0.423   5.805  0.00  0.00    +0.260 A 
ATOM     23  C   LIG    1        2.036  -1.206   4.752  0.00  0.00    +0.230 A 
ATOM     24  N   LIG    1        2.221  -0.813   3.508  0.00  0.00    -0.400 NA
ENDBRANCH  17  19
BRANCH  16  26
ATOM     25  C   LIG    1        1.365  -1.896   1.183  0.00  0.00    +0.040 C 
ATOM     26  C   LIG    1        1.030  -0.404   1.234  0.00  0.00    +0.270 C 
ENDBRANCH  16  26
ENDBRANCH   1  16
TORSDOF 5
