REMARK  Name = ZINCpk00000e9Wuj.0
REMARK                            x       y       z     vdW  Elec       q    Type
REMARK                         _______ _______ _______ _____ _____    ______ ____
ROOT
ATOM      1  C   LIG    1       -2.449   1.117   0.020  0.00  0.00    +0.340 C 
ENDROOT
BRANCH   1   2
ATOM      2  C   LIG    1       -2.874   0.852   1.441  0.00  0.00    -0.110 A 
ATOM      3  C   LIG    1       -2.461  -0.300   2.083  0.00  0.00    +0.060 A 
ATOM      4  C   LIG    1       -2.848  -0.541   3.388  0.00  0.00    +0.010 A 
ATOM      5  C   LIG    1       -3.654   0.366   4.049  0.00  0.00    +0.030 A 
ATOM      6  C   LIG    1       -4.071   1.516   3.405  0.00  0.00    -0.100 A 
ATOM      7  C   LIG    1       -3.682   1.759   2.102  0.00  0.00    +0.040 A 
BRANCH   6   8
ATOM      8  C   LIG    1       -4.951   2.506   4.125  0.00  0.00    -0.290 C 
BRANCH   8   9
ATOM      9  S   LIG    1       -6.692   2.081   3.846  0.00  0.00    +2.610 S 
ATOM     10  O   LIG    1       -7.020   0.863   4.501  0.00  0.00    -0.960 OA
ATOM     11  O   LIG    1       -7.048   2.302   2.489  0.00  0.00    -0.960 OA
BRANCH   9  12
ATOM     12  N   LIG    1       -7.538   3.233   4.683  0.00  0.00    -1.250 NA
ATOM     13  H   LIG    1       -8.508   3.217   4.685  0.00  0.00    +0.420 HD
ATOM     14  H   LIG    1       -7.063   3.925   5.171  0.00  0.00    +0.410 HD
ENDBRANCH   9  12
ENDBRANCH   8   9
ENDBRANCH   6   8
ENDBRANCH   1   2
BRANCH   1  16
ATOM     15  C   LIG    1       -0.014   1.209   0.009  0.00  0.00    +0.520 C 
ATOM     16  N   LIG    1       -1.191   1.867   0.018  0.00  0.00    -0.610 N 
ATOM     17  C   LIG    1       -1.210   3.331   0.026  0.00  0.00    +0.270 C 
ATOM     18  O   LIG    1        0.002  -0.004   0.002  0.00  0.00    -0.520 OA
BRANCH  15  19
ATOM     19  C   LIG    1        1.280   1.980   0.001  0.00  0.00    +0.060 C 
BRANCH  19  20
ATOM     20  C   LIG    1        2.457   1.002  -0.016  0.00  0.00    -0.030 C 
ATOM     21  C   LIG    1        2.376   0.128  -1.269  0.00  0.00    +0.030 C 
ATOM     22  C   LIG    1        2.399   0.114   1.229  0.00  0.00    +0.030 C 
BRANCH  20  23
ATOM     23  C   LIG    1        3.771   1.784  -0.024  0.00  0.00    +0.110 C 
BRANCH  23  24
ATOM     24  C   LIG    1        4.930   0.821  -0.041  0.00  0.00    +0.460 C 
ATOM     25  O   LIG    1        4.725  -0.370  -0.045  0.00  0.00    -0.490 OA
BRANCH  24  27
ATOM     26  C   LIG    1        7.255   0.300  -0.066  0.00  0.00    +0.260 C 
ATOM     27  O   LIG    1        6.189   1.286  -0.050  0.00  0.00    -0.360 OA
ENDBRANCH  24  27
ENDBRANCH  23  24
ENDBRANCH  20  23
ENDBRANCH  19  20
ENDBRANCH  15  19
ENDBRANCH   1  16
TORSDOF 10
