REMARK  Name = ZINCrD00000736RJ.0
REMARK                            x       y       z     vdW  Elec       q    Type
REMARK                         _______ _______ _______ _____ _____    ______ ____
ROOT
ATOM      1  C   LIG    1       -0.772   8.867   0.052  0.00  0.00    +0.550 C 
ATOM      2  O   LIG    1       -1.961   8.614   0.062  0.00  0.00    -0.470 OA
ENDROOT
BRANCH   1   4
ATOM      3  C   LIG    1       -1.135  11.350   0.061  0.00  0.00    -0.070 A 
ATOM      4  C   LIG    1       -0.319  10.264   0.054  0.00  0.00    +0.010 A 
ATOM      5  O   LIG    1        0.970  10.662   0.043  0.00  0.00    -0.170 OA
ATOM      6  C   LIG    1        1.057  12.007   0.048  0.00  0.00    +0.080 A 
ATOM      7  C   LIG    1        2.128  12.892   0.041  0.00  0.00    +0.030 A 
ATOM      8  C   LIG    1        1.896  14.250   0.049  0.00  0.00    +0.070 A 
ATOM      9  C   LIG    1        0.601  14.749   0.065  0.00  0.00    +0.000 A 
ATOM     10  C   LIG    1       -0.468  13.898   0.071  0.00  0.00    +0.080 A 
ATOM     11  C   LIG    1       -0.255  12.518   0.063  0.00  0.00    -0.140 A 
BRANCH   3  12
ATOM     12  C   LIG    1       -2.642  11.352   0.070  0.00  0.00    +0.270 C 
BRANCH  12  14
ATOM     13  C   LIG    1       -4.535  11.351   1.540  0.00  0.00    +0.210 C 
ATOM     14  O   LIG    1       -3.111  11.350   1.420  0.00  0.00    -0.380 OA
ENDBRANCH  12  14
ENDBRANCH   3  12
ENDBRANCH   1   4
BRANCH   1  15
ATOM     15  O   LIG    1        0.131   7.866   0.039  0.00  0.00    -0.320 OA
BRANCH  15  16
ATOM     16  C   LIG    1       -0.389   6.510   0.038  0.00  0.00    +0.260 C 
BRANCH  16  17
ATOM     17  C   LIG    1        0.758   5.532   0.022  0.00  0.00    +0.400 C 
ATOM     18  O   LIG    1        1.901   5.939   0.013  0.00  0.00    -0.420 OA
BRANCH  17  19
ATOM     19  C   LIG    1        0.492   4.088   0.018  0.00  0.00    -0.160 A 
ATOM     20  C   LIG    1       -0.826   3.617   0.028  0.00  0.00    +0.090 A 
ATOM     21  C   LIG    1       -1.072   2.262   0.019  0.00  0.00    +0.040 A 
ATOM     22  C   LIG    1       -0.016   1.359   0.009  0.00  0.00    +0.070 A 
ATOM     23  O   LIG    1        0.002  -0.004   0.002  0.00  0.00    -0.300 OA
ATOM     24  C   LIG    1        1.335  -0.374   0.401  0.00  0.00    +0.440 C 
ATOM     25  O   LIG    1        2.140   0.745  -0.014  0.00  0.00    -0.300 OA
ATOM     26  C   LIG    1        1.301   1.822  -0.001  0.00  0.00    +0.020 A 
ATOM     27  C   LIG    1        1.557   3.178   0.004  0.00  0.00    +0.110 A 
ENDBRANCH  17  19
ENDBRANCH  16  17
ENDBRANCH  15  16
ENDBRANCH   1  15
TORSDOF 7
