REMARK  Name = ZINCbu0000000GwA.0
REMARK                            x       y       z     vdW  Elec       q    Type
REMARK                         _______ _______ _______ _____ _____    ______ ____
ROOT
ATOM      1  C   LIG    1        0.011   1.072   2.506  0.00  0.00    +0.000 C 
ATOM      2  C   LIG    1       -0.741   1.544   3.776  0.00  0.00    +0.030 C 
ATOM      3  C   LIG    1       -0.260   0.738   4.953  0.00  0.00    +0.060 C 
ATOM      4  C   LIG    1        0.920   1.386   5.699  0.00  0.00    +0.250 C 
ATOM      5  N   LIG    1        1.947   1.954   4.801  0.00  0.00    -0.500 N 
ATOM      6  C   LIG    1        2.219   1.089   3.678  0.00  0.00    +0.240 C 
ATOM      7  H   LIG    1        1.626   2.847   4.457  0.00  0.00    +0.420 HD
ATOM      8  H   LIG    1        2.800   2.093   5.322  0.00  0.00    +0.430 HD
ATOM      9  C   LIG    1        1.377   1.581   2.489  0.00  0.00    +0.050 C 
ENDROOT
BRANCH   1  11
ATOM     10  C   LIG    1       -0.013   1.086   0.008  0.00  0.00    +0.030 C 
ATOM     11  C   LIG    1       -0.729   1.579   1.267  0.00  0.00    -0.060 C 
ATOM     12  C   LIG    1       -2.164   1.050   1.278  0.00  0.00    +0.030 C 
ATOM     13  C   LIG    1       -0.750   3.109   1.275  0.00  0.00    +0.030 C 
ENDBRANCH   1  11
TORSDOF 1
