REMARK  Name = ZINCkj000005g4ZL.1
REMARK                            x       y       z     vdW  Elec       q    Type
REMARK                         _______ _______ _______ _____ _____    ______ ____
ROOT
ATOM      1  C   LIG    1        0.315  -4.218  -3.669  0.00  0.00    +0.160 C 
ATOM      2  C   LIG    1        1.609  -4.554  -2.923  0.00  0.00    +0.060 C 
ATOM      3  C   LIG    1        1.479  -4.114  -1.463  0.00  0.00    +0.210 C 
ATOM      4  N   LIG    1        1.222  -2.669  -1.408  0.00  0.00    -0.540 NA
ATOM      5  C   LIG    1       -0.040  -2.328  -2.077  0.00  0.00    +0.200 C 
ATOM      6  C   LIG    1        0.044  -2.715  -3.555  0.00  0.00    +0.050 C 
ENDROOT
BRANCH   1   7
ATOM      7  N   LIG    1        0.454  -4.587  -5.084  0.00  0.00    -0.490 N 
ATOM      8  H   LIG    1        0.718  -5.559  -5.154  0.00  0.00    +0.440 HD
ATOM      9  H   LIG    1        1.165  -4.014  -5.513  0.00  0.00    +0.430 HD
BRANCH   7  10
ATOM     10  C   LIG    1       -0.826  -4.376  -5.774  0.00  0.00    +0.290 C 
BRANCH  10  13
ATOM     11  N   LIG    1       -1.736  -4.643  -8.058  0.00  0.00    -0.700 N 
ATOM     12  H   LIG    1       -2.587  -4.318  -7.723  0.00  0.00    +0.410 HD
ATOM     13  C   LIG    1       -0.683  -4.755  -7.226  0.00  0.00    +0.500 C 
ATOM     14  O   LIG    1        0.381  -5.160  -7.645  0.00  0.00    -0.530 OA
BRANCH  11  16
ATOM     15  C   LIG    1       -2.930  -4.791 -10.188  0.00  0.00    +0.060 C 
ATOM     16  C   LIG    1       -1.597  -5.011  -9.470  0.00  0.00    +0.270 C 
ENDBRANCH  11  16
ENDBRANCH  10  13
ENDBRANCH   7  10
ENDBRANCH   1   7
BRANCH   4  17
ATOM     17  C   LIG    1        1.229  -2.186  -0.021  0.00  0.00    +0.240 C 
BRANCH  17  18
ATOM     18  C   LIG    1        1.208  -0.679  -0.013  0.00  0.00    -0.090 A 
ATOM     19  C   LIG    1        0.002  -0.004   0.002  0.00  0.00    +0.000 A 
ATOM     20  C   LIG    1       -0.017   1.378   0.010  0.00  0.00    +0.000 A 
ATOM     21  C   LIG    1        1.171   2.086   0.002  0.00  0.00    +0.010 A 
ATOM     22  C   LIG    1        2.377   1.411  -0.015  0.00  0.00    +0.010 A 
ATOM     23  C   LIG    1        2.396   0.029  -0.021  0.00  0.00    +0.020 A 
ENDBRANCH  17  18
ENDBRANCH   4  17
TORSDOF 6
