REMARK  Name = ZINCkj000005g4ZL.0
REMARK                            x       y       z     vdW  Elec       q    Type
REMARK                         _______ _______ _______ _____ _____    ______ ____
ROOT
ATOM      1  C   LIG    1        1.388   1.405  -2.497  0.00  0.00    +0.180 C 
ATOM      2  C   LIG    1        2.108   0.958  -1.221  0.00  0.00    +0.070 C 
ATOM      3  C   LIG    1        1.366   1.511  -0.003  0.00  0.00    +0.250 C 
ATOM      4  N   LIG    1       -0.012   1.005   0.008  0.00  0.00    -0.380 N 
ATOM      5  C   LIG    1       -0.730   1.490  -1.177  0.00  0.00    +0.250 C 
ATOM      6  H   LIG    1        0.002  -0.004   0.002  0.00  0.00    +0.420 HD
ATOM      7  C   LIG    1       -0.068   0.935  -2.441  0.00  0.00    +0.020 C 
ENDROOT
BRANCH   1   8
ATOM      8  N   LIG    1        2.050   0.815  -3.668  0.00  0.00    -0.660 NA
ATOM      9  H   LIG    1        1.750  -0.138  -3.811  0.00  0.00    +0.360 HD
BRANCH   8  10
ATOM     10  C   LIG    1        1.818   1.627  -4.869  0.00  0.00    +0.210 C 
BRANCH  10  13
ATOM     11  N   LIG    1        2.436   1.565  -7.264  0.00  0.00    -0.730 N 
ATOM     12  H   LIG    1        1.935   2.388  -7.382  0.00  0.00    +0.400 HD
ATOM     13  C   LIG    1        2.511   0.991  -6.047  0.00  0.00    +0.510 C 
ATOM     14  O   LIG    1        3.137  -0.037  -5.900  0.00  0.00    -0.520 OA
BRANCH  11  16
ATOM     15  C   LIG    1        2.868   1.794  -9.660  0.00  0.00    +0.030 C 
ATOM     16  C   LIG    1        3.109   0.948  -8.409  0.00  0.00    +0.250 C 
ENDBRANCH  11  16
ENDBRANCH  10  13
ENDBRANCH   8  10
ENDBRANCH   1   8
BRANCH   4  17
ATOM     17  C   LIG    1       -0.696   1.477   1.218  0.00  0.00    +0.320 C 
BRANCH  17  18
ATOM     18  C   LIG    1       -2.067   0.856   1.295  0.00  0.00    -0.160 A 
ATOM     19  C   LIG    1       -3.149   1.497   0.719  0.00  0.00    +0.030 A 
ATOM     20  C   LIG    1       -4.406   0.925   0.785  0.00  0.00    +0.030 A 
ATOM     21  C   LIG    1       -4.583  -0.282   1.435  0.00  0.00    +0.060 A 
ATOM     22  C   LIG    1       -3.502  -0.920   2.015  0.00  0.00    +0.030 A 
ATOM     23  C   LIG    1       -2.244  -0.351   1.945  0.00  0.00    +0.040 A 
ENDBRANCH  17  18
ENDBRANCH   4  17
TORSDOF 6
