REMARK  Name = ZINCqH0000038ln2.0
REMARK                            x       y       z     vdW  Elec       q    Type
REMARK                         _______ _______ _______ _____ _____    ______ ____
ROOT
ATOM      1  N   LIG    1       -2.534   1.475  -0.503  0.00  0.00    -0.640 N 
ATOM      2  H   LIG    1       -3.246   2.103  -0.306  0.00  0.00    +0.410 HD
ATOM      3  C   LIG    1       -2.789   0.151  -0.521  0.00  0.00    +0.570 C 
ATOM      4  O   LIG    1       -1.897  -0.636  -0.768  0.00  0.00    -0.480 OA
ENDROOT
BRANCH   3   5
ATOM      5  C   LIG    1       -4.153  -0.342  -0.240  0.00  0.00    -0.080 A 
ATOM      6  C   LIG    1       -5.179   0.559   0.051  0.00  0.00    +0.050 A 
ATOM      7  C   LIG    1       -6.451   0.092   0.308  0.00  0.00    +0.110 A 
ATOM      8  C   LIG    1       -6.710  -1.267   0.289  0.00  0.00    -0.030 A 
ATOM      9  C   LIG    1       -5.696  -2.167   0.007  0.00  0.00    -0.010 A 
ATOM     10  C   LIG    1       -5.986  -3.645  -0.011  0.00  0.00    +0.140 C 
ATOM     11  C   LIG    1       -4.421  -1.712  -0.257  0.00  0.00    +0.110 A 
BRANCH   8  12
ATOM     12  N   LIG    1       -8.076  -1.762   0.571  0.00  0.00    +0.030 N 
ATOM     13  O   LIG    1       -8.282  -2.958   0.671  0.00  0.00    -0.140 OA
ATOM     14  O   LIG    1       -8.994  -0.973   0.702  0.00  0.00    -0.160 OA
ENDBRANCH   8  12
ENDBRANCH   3   5
BRANCH   1  19
ATOM     15  N   LIG    1       -0.850   3.239  -0.781  0.00  0.00    -0.380 N 
ATOM     16  N   LIG    1        0.515   3.266  -1.097  0.00  0.00    -0.280 NA
ATOM     17  C   LIG    1        0.925   2.035  -1.262  0.00  0.00    +0.250 A 
ATOM     18  C   LIG    1       -0.159   1.177  -1.060  0.00  0.00    -0.100 A 
ATOM     19  C   LIG    1       -1.248   1.940  -0.769  0.00  0.00    +0.300 A 
BRANCH  15  20
ATOM     20  C   LIG    1       -1.698   4.404  -0.518  0.00  0.00    +0.370 C 
BRANCH  20  26
ATOM     21  C   LIG    1       -1.495   7.291  -4.601  0.00  0.00    +0.090 C 
ATOM     22  C   LIG    1       -2.212   6.264  -3.764  0.00  0.00    -0.080 A 
ATOM     23  C   LIG    1       -3.430   5.761  -4.180  0.00  0.00    +0.020 A 
ATOM     24  C   LIG    1       -4.088   4.818  -3.411  0.00  0.00    +0.020 A 
ATOM     25  C   LIG    1       -3.528   4.379  -2.227  0.00  0.00    +0.000 A 
ATOM     26  C   LIG    1       -2.309   4.883  -1.810  0.00  0.00    -0.120 A 
ATOM     27  C   LIG    1       -1.654   5.829  -2.576  0.00  0.00    +0.040 A 
ENDBRANCH  20  26
ENDBRANCH  15  20
ENDBRANCH   1  19
TORSDOF 5
