REMARK  Name = ZINCvU00000009CS.0
REMARK                            x       y       z     vdW  Elec       q    Type
REMARK                         _______ _______ _______ _____ _____    ______ ____
ROOT
ATOM      1  C   LIG    1        0.064   1.030  -2.789  0.00  0.00    +0.210 A 
ATOM      2  N   LIG    1        1.144   0.295  -2.673  0.00  0.00    -0.300 NA
ATOM      3  N   LIG    1        1.594  -0.022  -3.961  0.00  0.00    -0.330 NA
ATOM      4  C   LIG    1        0.781   0.535  -4.824  0.00  0.00    +0.420 A 
ATOM      5  N   LIG    1       -0.188   1.201  -4.124  0.00  0.00    -0.440 N 
ENDROOT
BRANCH   5   6
ATOM      6  C   LIG    1       -1.251   1.931  -4.676  0.00  0.00    +0.110 A 
ATOM      7  C   LIG    1       -1.098   3.283  -4.950  0.00  0.00    +0.050 A 
ATOM      8  C   LIG    1       -2.147   3.999  -5.494  0.00  0.00    +0.030 A 
ATOM      9  C   LIG    1       -3.349   3.372  -5.764  0.00  0.00    +0.060 A 
ATOM     10  C   LIG    1       -3.505   2.025  -5.492  0.00  0.00    +0.050 A 
ATOM     11  C   LIG    1       -2.458   1.301  -4.954  0.00  0.00    -0.010 A 
ATOM     12 CL   LIG    1       -2.652  -0.391  -4.620  0.00  0.00    -0.040 Cl
ENDBRANCH   5   6
BRANCH   4  13
ATOM     13  N   LIG    1        0.884   0.463  -6.208  0.00  0.00    -0.440 N 
ATOM     14  C   LIG    1        1.097   1.810  -6.797  0.00  0.00    +0.190 C 
ATOM     15  C   LIG    1        1.700   1.497  -8.189  0.00  0.00    +0.040 C 
ATOM     16  C   LIG    1        2.610   0.280  -7.906  0.00  0.00    +0.030 C 
ATOM     17  C   LIG    1        2.057  -0.343  -6.610  0.00  0.00    +0.210 C 
ENDBRANCH   4  13
BRANCH   1  18
ATOM     18  S   LIG    1       -0.890   1.687  -1.462  0.00  0.00    +0.050 S 
BRANCH  18  19
ATOM     19  C   LIG    1       -0.013   1.086   0.008  0.00  0.00    +0.260 C 
BRANCH  19  23
ATOM     20  C   LIG    1       -1.328   2.754   2.943  0.00  0.00    +0.230 A 
ATOM     21  N   LIG    1       -2.042   1.654   2.896  0.00  0.00    -0.270 NA
ATOM     22  N   LIG    1       -1.674   0.953   1.883  0.00  0.00    -0.250 NA
ATOM     23  C   LIG    1       -0.718   1.572   1.248  0.00  0.00    +0.170 A 
ATOM     24  O   LIG    1       -0.472   2.719   1.903  0.00  0.00    -0.210 OA
BRANCH  20  30
ATOM     25  C   LIG    1       -3.477   4.626   7.040  0.00  0.00    +0.100 C 
ATOM     26  C   LIG    1       -2.469   4.733   5.925  0.00  0.00    -0.090 A 
ATOM     27  C   LIG    1       -1.643   5.840   5.845  0.00  0.00    +0.040 A 
ATOM     28  C   LIG    1       -0.714   5.946   4.825  0.00  0.00    +0.020 A 
ATOM     29  C   LIG    1       -0.604   4.945   3.882  0.00  0.00    +0.040 A 
ATOM     30  C   LIG    1       -1.438   3.828   3.953  0.00  0.00    -0.030 A 
ATOM     31  C   LIG    1       -2.372   3.727   4.985  0.00  0.00    +0.080 A 
ENDBRANCH  20  30
ENDBRANCH  19  23
ENDBRANCH  18  19
ENDBRANCH   1  18
TORSDOF 6
