REMARK  Name = ZINCpe00000ygM8P.0
REMARK                            x       y       z     vdW  Elec       q    Type
REMARK                         _______ _______ _______ _____ _____    ______ ____
ROOT
ATOM      1  N   LIG    1       -2.525   0.948   1.571  0.00  0.00    -0.530 NA
ATOM      2  C   LIG    1       -2.768  -0.483   1.801  0.00  0.00    +0.160 C 
ATOM      3  C   LIG    1       -4.263  -0.774   1.639  0.00  0.00    +0.230 C 
ATOM      4  O   LIG    1       -5.005   0.053   2.539  0.00  0.00    -0.370 OA
ATOM      5  C   LIG    1       -4.792   1.454   2.343  0.00  0.00    +0.170 C 
ATOM      6  C   LIG    1       -3.303   1.767   2.513  0.00  0.00    +0.200 C 
ENDROOT
BRANCH   6   7
ATOM      7  C   LIG    1       -3.060   3.227   2.230  0.00  0.00    +0.090 A 
ATOM      8  C   LIG    1       -2.525   4.127   3.086  0.00  0.00    -0.110 A 
ATOM      9  C   LIG    1       -2.473   5.364   2.434  0.00  0.00    +0.230 A 
ATOM     10  N   LIG    1       -2.960   5.211   1.229  0.00  0.00    -0.290 NA
ATOM     11  N   LIG    1       -3.333   3.869   1.075  0.00  0.00    -0.350 N 
ATOM     12  C   LIG    1       -3.919   3.271  -0.127  0.00  0.00    +0.350 C 
ENDBRANCH   6   7
BRANCH   1  14
ATOM     13  C   LIG    1       -0.347   0.575   0.515  0.00  0.00    +0.030 C 
ATOM     14  C   LIG    1       -1.092   1.260   1.663  0.00  0.00    +0.170 C 
ENDBRANCH   1  14
BRANCH   5  15
ATOM     15  C   LIG    1       -5.601   2.243   3.374  0.00  0.00    +0.290 C 
BRANCH  15  16
ATOM     16  N   LIG    1       -7.025   1.938   3.215  0.00  0.00    -0.720 N 
ATOM     17  H   LIG    1       -7.314   1.317   2.529  0.00  0.00    +0.400 HD
ATOM     18  C   LIG    1       -7.933   2.523   4.021  0.00  0.00    +0.520 C 
ATOM     19  O   LIG    1       -7.572   3.300   4.878  0.00  0.00    -0.520 OA
BRANCH  18  20
ATOM     20  C   LIG    1       -9.398   2.210   3.856  0.00  0.00    +0.170 C 
BRANCH  20  21
ATOM     21  C   LIG    1      -10.195   2.987   4.872  0.00  0.00    +0.020 A 
ATOM     22  N   LIG    1      -10.027   2.985   6.163  0.00  0.00    -0.340 NA
ATOM     23  O   LIG    1      -10.820   3.710   6.717  0.00  0.00    +0.110 OA
ATOM     24  C   LIG    1      -11.641   4.304   5.840  0.00  0.00    -0.030 A 
ATOM     25  C   LIG    1      -12.753   5.270   6.156  0.00  0.00    +0.180 C 
ATOM     26  C   LIG    1      -11.270   3.868   4.612  0.00  0.00    -0.060 A 
ENDBRANCH  20  21
ENDBRANCH  18  20
ENDBRANCH  15  16
ENDBRANCH   5  15
TORSDOF 6
