REMARK  Name = ZINCkj000005hUCb.1
REMARK                            x       y       z     vdW  Elec       q    Type
REMARK                         _______ _______ _______ _____ _____    ______ ____
ROOT
ATOM      1  C   LIG    1       -0.043   1.593  -0.584  0.00  0.00    -0.070 A 
ATOM      2  C   LIG    1       -0.166   0.299  -0.080  0.00  0.00    +0.130 A 
ATOM      3  C   LIG    1        0.940  -0.350   0.432  0.00  0.00    +0.070 A 
ATOM      4  C   LIG    1        2.175   0.275   0.449  0.00  0.00    +0.090 A 
ATOM      5  C   LIG    1        2.317   1.557  -0.045  0.00  0.00    -0.120 A 
ATOM      6  C   LIG    1        1.213   2.229  -0.566  0.00  0.00    +0.060 A 
ENDROOT
BRANCH   1   7
ATOM      7  C   LIG    1       -1.223   2.292  -1.133  0.00  0.00    +0.500 C 
ATOM      8  O   LIG    1       -1.111   3.419  -1.571  0.00  0.00    -0.490 OA
BRANCH   7  10
ATOM      9  C   LIG    1       -3.537   2.425  -1.703  0.00  0.00    +0.290 C 
ATOM     10  O   LIG    1       -2.422   1.679  -1.148  0.00  0.00    -0.350 OA
ENDBRANCH   7  10
ENDBRANCH   1   7
BRANCH   6  11
ATOM     11  C   LIG    1        1.355   3.558  -1.080  0.00  0.00    +0.210 C 
ATOM     12  N   LIG    1        1.468   4.613  -1.487  0.00  0.00    -0.350 NA
ENDBRANCH   6  11
BRANCH   5  13
ATOM     13  C   LIG    1        3.666   2.229  -0.021  0.00  0.00    +0.330 C 
BRANCH  13  14
ATOM     14  N   LIG    1        4.257   2.188  -1.365  0.00  0.00    -0.390 N 
ATOM     15  C   LIG    1        4.562   0.789  -1.732  0.00  0.00    +0.250 C 
ATOM     16  C   LIG    1        5.877   0.871  -2.547  0.00  0.00    +0.090 C 
ATOM     17  C   LIG    1        6.640   1.994  -1.798  0.00  0.00    +0.080 C 
ATOM     18  C   LIG    1        5.513   2.961  -1.379  0.00  0.00    +0.170 C 
ATOM     19  H   LIG    1        3.611   2.580  -2.034  0.00  0.00    +0.420 HD
BRANCH  18  20
ATOM     20  C   LIG    1        5.407   4.109  -2.384  0.00  0.00    +0.220 C 
BRANCH  20  21
ATOM     21  O   LIG    1        5.283   3.576  -3.704  0.00  0.00    -0.570 OA
ATOM     22  H   LIG    1        5.211   4.249  -4.395  0.00  0.00    +0.410 HD
ENDBRANCH  20  21
ENDBRANCH  18  20
ENDBRANCH  13  14
ENDBRANCH   5  13
TORSDOF 7
