REMARK  Name = ZINCkj000005hUCb.2
REMARK                            x       y       z     vdW  Elec       q    Type
REMARK                         _______ _______ _______ _____ _____    ______ ____
ROOT
ATOM      1  C   LIG    1       -0.670   0.577   0.139  0.00  0.00    -0.070 A 
ATOM      2  C   LIG    1        0.641   0.107   0.163  0.00  0.00    +0.130 A 
ATOM      3  C   LIG    1        0.888  -1.252   0.152  0.00  0.00    +0.070 A 
ATOM      4  C   LIG    1       -0.160  -2.155   0.118  0.00  0.00    +0.090 A 
ATOM      5  C   LIG    1       -1.467  -1.709   0.094  0.00  0.00    -0.120 A 
ATOM      6  C   LIG    1       -1.737  -0.342   0.110  0.00  0.00    +0.060 A 
ENDROOT
BRANCH   1   7
ATOM      7  C   LIG    1       -0.940   2.029   0.150  0.00  0.00    +0.500 C 
ATOM      8  O   LIG    1       -2.085   2.434   0.124  0.00  0.00    -0.490 OA
BRANCH   7  10
ATOM      9  C   LIG    1       -0.256   4.316   0.192  0.00  0.00    +0.290 C 
ATOM     10  O   LIG    1        0.084   2.904   0.183  0.00  0.00    -0.350 OA
ENDBRANCH   7  10
ENDBRANCH   1   7
BRANCH   6  11
ATOM     11  C   LIG    1       -3.091   0.125   0.091  0.00  0.00    +0.210 C 
ATOM     12  N   LIG    1       -4.164   0.496   0.076  0.00  0.00    -0.340 NA
ENDBRANCH   6  11
BRANCH   5  13
ATOM     13  C   LIG    1       -2.601  -2.701   0.057  0.00  0.00    +0.320 C 
BRANCH  13  14
ATOM     14  N   LIG    1       -3.098  -2.825  -1.320  0.00  0.00    -0.390 N 
ATOM     15  C   LIG    1       -2.048  -3.418  -2.176  0.00  0.00    +0.270 C 
ATOM     16  C   LIG    1       -2.815  -4.319  -3.175  0.00  0.00    +0.080 C 
ATOM     17  C   LIG    1       -3.945  -4.891  -2.279  0.00  0.00    +0.100 C 
ATOM     18  C   LIG    1       -4.276  -3.712  -1.345  0.00  0.00    +0.170 C 
ATOM     19  H   LIG    1       -3.351  -1.915  -1.674  0.00  0.00    +0.430 HD
BRANCH  18  20
ATOM     20  C   LIG    1       -4.565  -4.232   0.065  0.00  0.00    +0.200 C 
BRANCH  20  21
ATOM     21  O   LIG    1       -5.654  -5.156   0.018  0.00  0.00    -0.550 OA
ATOM     22  H   LIG    1       -5.893  -5.527   0.878  0.00  0.00    +0.410 HD
ENDBRANCH  20  21
ENDBRANCH  18  20
ENDBRANCH  13  14
ENDBRANCH   5  13
TORSDOF 7
