REMARK  Name = ZINCrg000000qUR6.0
REMARK                            x       y       z     vdW  Elec       q    Type
REMARK                         _______ _______ _______ _____ _____    ______ ____
ROOT
ATOM      1  N   LIG    1       -4.489   2.557   2.029  0.00  0.00    -0.570 N 
ATOM      2  C   LIG    1       -5.472   1.906   1.385  0.00  0.00    +0.700 C 
ATOM      3  N   LIG    1       -5.353   0.613   1.042  0.00  0.00    -0.730 N 
ATOM      4  H   LIG    1       -6.044   0.195   0.505  0.00  0.00    +0.430 HD
ATOM      5  C   LIG    1       -4.193  -0.175   1.467  0.00  0.00    +0.300 C 
ATOM      6  C   LIG    1       -2.945   0.711   1.462  0.00  0.00    +0.010 C 
ATOM      7  O   LIG    1       -6.494   2.502   1.106  0.00  0.00    -0.530 OA
ATOM      8  C   LIG    1       -3.261   2.018   2.146  0.00  0.00    +0.520 C 
ATOM      9  O   LIG    1       -2.411   2.582   2.799  0.00  0.00    -0.470 OA
ENDROOT
BRANCH   1  10
ATOM     10  C   LIG    1       -4.757   3.873   2.614  0.00  0.00    +0.460 C 
BRANCH  10  18
ATOM     11  C   LIG    1       -1.025   6.207   1.625  0.00  0.00    +0.350 A 
ATOM     12  N   LIG    1       -2.024   5.457   2.022  0.00  0.00    -0.300 NA
ATOM     13  N   LIG    1       -3.277   5.567   1.416  0.00  0.00    -0.260 N 
ATOM     14  C   LIG    1       -3.469   6.457   0.389  0.00  0.00    +0.120 A 
ATOM     15  C   LIG    1       -2.394   7.261  -0.036  0.00  0.00    +0.200 A 
ATOM     16  N   LIG    1       -4.731   6.340   0.010  0.00  0.00    -0.240 NA
ATOM     17  N   LIG    1       -5.309   5.443   0.731  0.00  0.00    -0.220 NA
ATOM     18  C   LIG    1       -4.462   4.944   1.596  0.00  0.00    +0.180 A 
ATOM     19  C   LIG    1       -1.188   7.133   0.579  0.00  0.00    +0.010 A 
BRANCH  11  21
ATOM     20  C   LIG    1        0.289   5.131   3.287  0.00  0.00    +0.290 C 
ATOM     21  O   LIG    1        0.184   6.088   2.231  0.00  0.00    -0.280 OA
ENDBRANCH  11  21
ENDBRANCH  10  18
ENDBRANCH   1  10
BRANCH   6  22
ATOM     22  C   LIG    1       -2.514   0.980   0.019  0.00  0.00    +0.100 C 
BRANCH  22  23
ATOM     23  C   LIG    1       -1.219   1.751   0.017  0.00  0.00    -0.090 A 
ATOM     24  C   LIG    1       -0.013   1.076   0.008  0.00  0.00    +0.010 A 
ATOM     25  C   LIG    1        1.175   1.783   0.000  0.00  0.00    +0.000 A 
ATOM     26  C   LIG    1        1.156   3.165   0.008  0.00  0.00    +0.010 A 
ATOM     27  C   LIG    1       -0.050   3.840   0.023  0.00  0.00    -0.010 A 
ATOM     28  C   LIG    1       -1.238   3.133   0.029  0.00  0.00    +0.010 A 
ENDBRANCH  22  23
ENDBRANCH   6  22
TORSDOF 5
