REMARK  Name = ZINCc70000002FLJ.0
REMARK                            x       y       z     vdW  Elec       q    Type
REMARK                         _______ _______ _______ _____ _____    ______ ____
ROOT
ATOM      1  N   LIG    1        0.610   3.049   0.013  0.00  0.00    -0.320 N 
ATOM      2  C   LIG    1        1.065   1.780   0.002  0.00  0.00    +0.440 A 
ATOM      3  N   LIG    1       -0.011   0.966   0.007  0.00  0.00    -0.460 N 
ATOM      4  H   LIG    1        0.002  -0.004   0.002  0.00  0.00    +0.470 HD
ATOM      5  N   LIG    1       -1.151   1.781   0.017  0.00  0.00    -0.250 NA
ATOM      6  S   LIG    1        2.706   1.292  -0.016  0.00  0.00    -0.560 S 
ATOM      7  C   LIG    1       -0.763   3.016   0.026  0.00  0.00    +0.290 A 
ENDROOT
BRANCH   7   8
ATOM      8  C   LIG    1       -1.670   4.220   0.040  0.00  0.00    +0.260 C 
ATOM      9  C   LIG    1       -3.107   3.798  -0.323  0.00  0.00    +0.040 C 
ATOM     10  C   LIG    1       -3.950   4.232   0.900  0.00  0.00    +0.020 C 
ATOM     11  C   LIG    1       -3.044   5.305   1.556  0.00  0.00    +0.210 C 
ATOM     12  O   LIG    1       -1.711   4.784   1.362  0.00  0.00    -0.350 OA
ENDBRANCH   7   8
BRANCH   1  13
ATOM     13  N   LIG    1        1.382   4.176   0.011  0.00  0.00    -0.560 N 
ATOM     14  H   LIG    1        1.145   4.776  -0.765  0.00  0.00    +0.370 HD
ATOM     15  H   LIG    1        2.363   3.942   0.000  0.00  0.00    +0.400 HD
ENDBRANCH   1  13
TORSDOF 2
