REMARK  Name = ZINCrD00000l4lXd.0
REMARK                            x       y       z     vdW  Elec       q    Type
REMARK                         _______ _______ _______ _____ _____    ______ ____
ROOT
ATOM      1  O   LIG    1       -1.739   2.265  -1.089  0.00  0.00    -0.510 OA
ATOM      2  C   LIG    1       -0.741   1.586  -1.213  0.00  0.00    +0.530 C 
ATOM      3  N   LIG    1       -0.288   1.272  -2.443  0.00  0.00    -0.660 N 
ATOM      4  H   LIG    1        0.546   0.787  -2.544  0.00  0.00    +0.410 HD
ENDROOT
BRANCH   3   5
ATOM      5  C   LIG    1       -1.023   1.647  -3.577  0.00  0.00    +0.060 A 
ATOM      6  C   LIG    1       -1.729   2.849  -3.594  0.00  0.00    +0.100 A 
ATOM      7  C   LIG    1       -2.440   3.178  -4.734  0.00  0.00    -0.020 A 
ATOM      8  C   LIG    1       -2.427   2.306  -5.817  0.00  0.00    +0.290 A 
ATOM      9  N   LIG    1       -1.745   1.173  -5.765  0.00  0.00    -0.500 NA
ATOM     10  C   LIG    1       -1.051   0.830  -4.696  0.00  0.00    +0.270 A 
BRANCH   8  11
ATOM     11  N   LIG    1       -3.140   2.628  -6.969  0.00  0.00    -0.460 N 
ATOM     12  C   LIG    1       -2.615   3.871  -7.589  0.00  0.00    +0.190 C 
ATOM     13  C   LIG    1       -3.123   3.781  -9.050  0.00  0.00    +0.040 C 
ATOM     14  C   LIG    1       -2.999   2.273  -9.366  0.00  0.00    +0.020 C 
ATOM     15  C   LIG    1       -2.994   1.573  -7.995  0.00  0.00    +0.200 C 
ENDBRANCH   8  11
ENDBRANCH   3   5
BRANCH   2  16
ATOM     16  C   LIG    1       -0.008   1.093   0.008  0.00  0.00    +0.070 C 
BRANCH  16  17
ATOM     17  C   LIG    1       -0.725   1.586   1.267  0.00  0.00    +0.380 C 
BRANCH  17  18
ATOM     18  N   LIG    1       -0.012   1.106   2.454  0.00  0.00    -0.490 N 
ATOM     19  C   LIG    1        0.986   1.751   3.090  0.00  0.00    +0.470 A 
ATOM     20  N   LIG    1        1.373   0.984   4.129  0.00  0.00    -0.470 N 
ATOM     21  H   LIG    1        2.074   1.194   4.767  0.00  0.00    +0.470 HD
ATOM     22  N   LIG    1        0.578  -0.170   4.122  0.00  0.00    -0.260 NA
ATOM     23  S   LIG    1        1.644   3.271   2.655  0.00  0.00    -0.560 S 
ATOM     24  C   LIG    1       -0.252  -0.082   3.117  0.00  0.00    +0.360 A 
BRANCH  24  25
ATOM     25  C   LIG    1       -1.268  -1.083   2.750  0.00  0.00    -0.180 A 
ATOM     26  C   LIG    1       -1.491  -2.244   3.403  0.00  0.00    +0.110 A 
ATOM     27  C   LIG    1       -2.501  -3.018   2.872  0.00  0.00    +0.020 A 
ATOM     28  C   LIG    1       -3.098  -2.507   1.791  0.00  0.00    +0.000 A 
ATOM     29  S   LIG    1       -2.376  -0.955   1.390  0.00  0.00    +0.160 S 
ENDBRANCH  24  25
ENDBRANCH  17  18
ENDBRANCH  16  17
ENDBRANCH   2  16
TORSDOF 6
