REMARK  Name = ZINCqH0000003apO.1
REMARK                            x       y       z     vdW  Elec       q    Type
REMARK                         _______ _______ _______ _____ _____    ______ ____
ROOT
ATOM      1  C   LIG    1        5.331   1.020  -2.966  0.00  0.00    -0.020 A 
ATOM      2  C   LIG    1        6.571   0.472  -3.253  0.00  0.00    +0.000 A 
ATOM      3  C   LIG    1        7.185  -0.365  -2.339  0.00  0.00    -0.120 A 
ATOM      4  C   LIG    1        6.566  -0.658  -1.139  0.00  0.00    +0.060 A 
ATOM      5  C   LIG    1        5.330  -0.111  -0.842  0.00  0.00    -0.160 A 
ATOM      6  C   LIG    1        4.705   0.724  -1.754  0.00  0.00    +0.320 A 
ENDROOT
BRANCH   1  10
ATOM      7  N   LIG    1        4.511   3.259  -6.377  0.00  0.00    -0.390 N 
ATOM      8  C   LIG    1        4.793   3.978  -5.127  0.00  0.00    +0.270 C 
ATOM      9  C   LIG    1        5.535   3.051  -4.162  0.00  0.00    +0.200 C 
ATOM     10  N   LIG    1        4.707   1.867  -3.890  0.00  0.00    -0.440 N 
ATOM     11  C   LIG    1        4.396   1.151  -5.135  0.00  0.00    +0.200 C 
ATOM     12  C   LIG    1        3.663   2.093  -6.093  0.00  0.00    +0.270 C 
ATOM     13  H   LIG    1        5.378   2.950  -6.790  0.00  0.00    +0.420 HD
BRANCH   7  15
ATOM     14  C   LIG    1        3.632   3.447  -8.655  0.00  0.00    +0.070 C 
ATOM     15  C   LIG    1        3.815   4.154  -7.310  0.00  0.00    +0.250 C 
ENDBRANCH   7  15
ENDBRANCH   1  10
BRANCH   6  16
ATOM     16  N   LIG    1        3.453   1.275  -1.458  0.00  0.00    -1.050 NA
BRANCH  16  17
ATOM     17  S   LIG    1        2.712   0.923  -0.019  0.00  0.00    +2.590 S 
ATOM     18  O   LIG    1        2.397  -0.462  -0.059  0.00  0.00    -1.030 OA
ATOM     19  O   LIG    1        3.513   1.509   0.998  0.00  0.00    -1.010 OA
BRANCH  17  20
ATOM     20  C   LIG    1        1.175   1.783   0.000  0.00  0.00    -0.600 A 
ATOM     21  C   LIG    1       -0.013   1.076   0.008  0.00  0.00    +0.130 A 
ATOM     22  C   LIG    1       -1.219   1.751   0.017  0.00  0.00    +0.000 A 
ATOM     23  C   LIG    1       -1.239   3.133   0.031  0.00  0.00    -0.040 A 
ATOM     24  C   LIG    1       -0.051   3.841   0.023  0.00  0.00    +0.010 A 
ATOM     25  C   LIG    1       -2.554   3.868   0.047  0.00  0.00    +0.100 C 
ATOM     26  C   LIG    1        1.156   3.166   0.008  0.00  0.00    +0.010 A 
ATOM     27 BR   LIG    1        2.780   4.134  -0.003  0.00  0.00    -0.020 Br
ENDBRANCH  17  20
ENDBRANCH  16  17
ENDBRANCH   6  16
TORSDOF 5
