REMARK  Name = ZINCtV000002B23L.0
REMARK                            x       y       z     vdW  Elec       q    Type
REMARK                         _______ _______ _______ _____ _____    ______ ____
ROOT
ATOM      1  C   LIG    1       -4.888   0.915   0.245  0.00  0.00    +0.030 C 
ENDROOT
BRANCH   1   2
ATOM      2  C   LIG    1       -5.124   0.544   1.687  0.00  0.00    -0.110 A 
ATOM      3  C   LIG    1       -5.238   1.534   2.645  0.00  0.00    +0.040 A 
ATOM      4  C   LIG    1       -5.458   1.194   3.967  0.00  0.00    +0.010 A 
ATOM      5  C   LIG    1       -5.556  -0.136   4.332  0.00  0.00    +0.030 A 
ATOM      6  C   LIG    1       -5.436  -1.126   3.374  0.00  0.00    +0.020 A 
ATOM      7  C   LIG    1       -5.220  -0.786   2.052  0.00  0.00    +0.040 A 
ENDBRANCH   1   2
BRANCH   1  10
ATOM      8  N   LIG    1       -2.428   1.037   0.019  0.00  0.00    -0.660 N 
ATOM      9  H   LIG    1       -2.417   0.070  -0.063  0.00  0.00    +0.420 HD
ATOM     10  C   LIG    1       -3.601   1.690   0.130  0.00  0.00    +0.550 C 
ATOM     11  O   LIG    1       -3.622   2.903   0.137  0.00  0.00    -0.490 OA
BRANCH   8  15
ATOM     12  C   LIG    1        1.157   3.167   0.036  0.00  0.00    +0.130 A 
ATOM     13  C   LIG    1        0.082   3.614   0.788  0.00  0.00    -0.040 A 
ATOM     14  C   LIG    1       -1.108   2.911   0.779  0.00  0.00    +0.070 A 
ATOM     15  C   LIG    1       -1.224   1.753   0.023  0.00  0.00    +0.120 A 
ATOM     16  C   LIG    1       -0.148   1.308  -0.734  0.00  0.00    +0.060 A 
ATOM     17  C   LIG    1        1.040   2.012  -0.725  0.00  0.00    -0.050 A 
ATOM     18 CL   LIG    1        2.388   1.452  -1.666  0.00  0.00    -0.050 Cl
BRANCH  12  20
ATOM     19  C   LIG    1        2.377   5.039   0.850  0.00  0.00    +0.250 C 
ATOM     20  O   LIG    1        2.328   3.860   0.045  0.00  0.00    -0.300 OA
ENDBRANCH  12  20
ENDBRANCH   8  15
ENDBRANCH   1  10
BRANCH   1  21
ATOM     21  S   LIG    1       -6.262   1.933  -0.348  0.00  0.00    +0.120 S 
BRANCH  21  22
ATOM     22  C   LIG    1       -7.576   0.763  -0.247  0.00  0.00    +0.070 A 
ATOM     23  N   LIG    1       -8.802   1.003  -0.569  0.00  0.00    -0.440 NA
ATOM     24  C   LIG    1       -9.695   0.002  -0.437  0.00  0.00    +0.090 A 
ATOM     25  C   LIG    1      -11.077   0.010  -0.718  0.00  0.00    +0.080 A 
ATOM     26  C   LIG    1      -11.834  -1.117  -0.518  0.00  0.00    +0.030 A 
ATOM     27  C   LIG    1      -11.253  -2.281  -0.039  0.00  0.00    +0.040 A 
ATOM     28  C   LIG    1       -9.904  -2.313   0.241  0.00  0.00    +0.060 A 
ATOM     29  C   LIG    1       -9.121  -1.178   0.046  0.00  0.00    -0.180 A 
ATOM     30  S   LIG    1       -7.400  -0.899   0.298  0.00  0.00    +0.070 S 
ENDBRANCH  21  22
ENDBRANCH   1  21
TORSDOF 6
