REMARK  Name = ZINCqH00000081DG.0
REMARK                            x       y       z     vdW  Elec       q    Type
REMARK                         _______ _______ _______ _____ _____    ______ ____
ROOT
ATOM      1  C   LIG    1       -0.626   1.651  -1.248  0.00  0.00    +0.530 C 
ATOM      2  N   LIG    1       -0.186   1.243  -2.454  0.00  0.00    -0.600 N 
ATOM      3  C   LIG    1        0.816   0.175  -2.564  0.00  0.00    +0.270 C 
ATOM      4  C   LIG    1        0.271  -0.912  -3.503  0.00  0.00    +0.030 C 
ATOM      5  C   LIG    1       -0.118  -0.275  -4.840  0.00  0.00    +0.000 C 
ATOM      6  C   LIG    1       -1.220   0.761  -4.612  0.00  0.00    +0.180 C 
ATOM      7  C   LIG    1       -0.696   1.863  -3.685  0.00  0.00    +0.300 C 
ATOM      8  O   LIG    1       -1.517   2.471  -1.172  0.00  0.00    -0.530 OA
ENDROOT
BRANCH   1   9
ATOM      9  C   LIG    1       -0.011   1.089   0.008  0.00  0.00    +0.060 C 
BRANCH   9  10
ATOM     10  C   LIG    1       -0.758  -0.153   0.421  0.00  0.00    -0.080 A 
ATOM     11  C   LIG    1       -2.106  -0.082   0.719  0.00  0.00    +0.020 A 
ATOM     12  C   LIG    1       -2.793  -1.221   1.093  0.00  0.00    +0.000 A 
ATOM     13  C   LIG    1       -2.129  -2.431   1.179  0.00  0.00    +0.010 A 
ATOM     14  C   LIG    1       -0.780  -2.502   0.887  0.00  0.00    +0.000 A 
ATOM     15  C   LIG    1       -0.094  -1.363   0.508  0.00  0.00    +0.020 A 
ENDBRANCH   9  10
BRANCH   9  16
ATOM     16  C   LIG    1       -0.093   2.129   1.127  0.00  0.00    +0.120 C 
BRANCH  16  18
ATOM     17  C   LIG    1        0.585   2.865   3.784  0.00  0.00    +0.140 C 
ATOM     18  S   LIG    1        0.791   1.517   2.588  0.00  0.00    -0.250 S 
ENDBRANCH  16  18
ENDBRANCH   9  16
ENDBRANCH   1   9
BRANCH   6  19
ATOM     19  O   LIG    1       -1.605   1.333  -5.864  0.00  0.00    -0.290 OA
BRANCH  19  20
ATOM     20  C   LIG    1       -2.610   0.720  -6.538  0.00  0.00    +0.300 A 
ATOM     21  N   LIG    1       -3.179  -0.359  -6.028  0.00  0.00    -0.510 NA
ATOM     22  C   LIG    1       -4.162  -0.983  -6.649  0.00  0.00    +0.300 A 
ATOM     23  C   LIG    1       -4.630  -0.533  -7.867  0.00  0.00    -0.030 A 
ATOM     24  C   LIG    1       -4.056   0.594  -8.441  0.00  0.00    +0.090 A 
ATOM     25  C   LIG    1       -3.029   1.230  -7.763  0.00  0.00    +0.030 A 
ATOM     26  F   LIG    1       -2.443   2.330  -8.284  0.00  0.00    -0.120 F 
ENDBRANCH  19  20
ENDBRANCH   6  19
TORSDOF 6
