REMARK  Name = ZINCtV00000L6jWm.0
REMARK                            x       y       z     vdW  Elec       q    Type
REMARK                         _______ _______ _______ _____ _____    ______ ____
ROOT
ATOM      1  C   LIG    1       -0.729   1.579   1.267  0.00  0.00    +0.160 C 
ATOM      2  C   LIG    1       -0.013   1.086   0.008  0.00  0.00    +0.100 C 
ENDROOT
BRANCH   1   3
ATOM      3  C   LIG    1        0.000   1.080   2.488  0.00  0.00    +0.170 A 
ATOM      4  N   LIG    1       -0.021  -0.138   2.952  0.00  0.00    -0.260 NA
ATOM      5  N   LIG    1        0.713  -0.209   4.006  0.00  0.00    -0.280 NA
ATOM      6  C   LIG    1        1.233   0.971   4.253  0.00  0.00    +0.230 A 
ATOM      7  O   LIG    1        0.794   1.809   3.291  0.00  0.00    -0.210 OA
BRANCH   6   8
ATOM      8  C   LIG    1        2.135   1.316   5.371  0.00  0.00    -0.070 A 
ATOM      9  C   LIG    1        2.617   2.619   5.505  0.00  0.00    +0.100 A 
ATOM     10  C   LIG    1        3.455   2.938   6.552  0.00  0.00    -0.070 A 
ATOM     11  C   LIG    1        3.827   1.962   7.467  0.00  0.00    +0.160 A 
ATOM     12  C   LIG    1        3.354   0.663   7.335  0.00  0.00    +0.000 A 
ATOM     13  C   LIG    1        2.512   0.338   6.293  0.00  0.00    +0.130 A 
BRANCH  11  14
ATOM     14  O   LIG    1        4.657   2.279   8.495  0.00  0.00    -0.310 OA
ATOM     15  C   LIG    1        5.106   3.633   8.572  0.00  0.00    +0.250 C 
ENDBRANCH  11  14
ENDBRANCH   6   8
ENDBRANCH   1   3
BRANCH   1  16
ATOM     16  S   LIG    1       -2.427   0.953   1.280  0.00  0.00    +0.060 S 
BRANCH  16  26
ATOM     17  N   LIG    1       -4.351   1.670  -0.597  0.00  0.00    -0.470 N 
ATOM     18  C   LIG    1       -4.458   2.485  -1.713  0.00  0.00    +0.060 A 
ATOM     19  C   LIG    1       -5.488   2.777  -2.593  0.00  0.00    +0.040 A 
ATOM     20  C   LIG    1       -5.271   3.650  -3.640  0.00  0.00    +0.050 A 
ATOM     21  C   LIG    1       -4.026   4.236  -3.819  0.00  0.00    -0.040 A 
ATOM     22  C   LIG    1       -2.991   3.956  -2.953  0.00  0.00    +0.080 A 
ATOM     23 CL   LIG    1       -3.771   5.331  -5.142  0.00  0.00    -0.060 Cl
ATOM     24  C   LIG    1       -3.196   3.075  -1.889  0.00  0.00    +0.070 A 
ATOM     25  N   LIG    1       -2.395   2.612  -0.894  0.00  0.00    -0.490 NA
ATOM     26  C   LIG    1       -3.072   1.788  -0.131  0.00  0.00    +0.260 A 
BRANCH  17  27
ATOM     27  C   LIG    1       -5.412   0.839  -0.022  0.00  0.00    +0.300 C 
BRANCH  27  29
ATOM     28  C   LIG    1       -7.297   0.783   1.617  0.00  0.00    +0.040 C 
ATOM     29  C   LIG    1       -6.189   1.651   1.016  0.00  0.00    +0.000 C 
ENDBRANCH  27  29
ENDBRANCH  17  27
ENDBRANCH  16  26
ENDBRANCH   1  16
TORSDOF 7
