REMARK  Name = ZINCqH0000007Ya4.0
REMARK                            x       y       z     vdW  Elec       q    Type
REMARK                         _______ _______ _______ _____ _____    ______ ____
ROOT
ATOM      1  C   LIG    1        3.201   3.804   0.296  0.00  0.00    +0.560 C 
ATOM      2  N   LIG    1        3.147   2.475   0.513  0.00  0.00    -0.670 N 
ATOM      3  H   LIG    1        3.966   1.966   0.610  0.00  0.00    +0.410 HD
ATOM      4  O   LIG    1        2.176   4.458   0.267  0.00  0.00    -0.510 OA
ENDROOT
BRANCH   2   5
ATOM      5  C   LIG    1        1.908   1.830   0.598  0.00  0.00    +0.160 A 
ATOM      6  C   LIG    1        1.748   0.734   1.444  0.00  0.00    +0.010 A 
ATOM      7  C   LIG    1        0.549   0.098   1.537  0.00  0.00    +0.100 A 
ATOM      8  C   LIG    1       -0.558   0.534   0.778  0.00  0.00    +0.070 A 
ATOM      9  N   LIG    1       -1.808   0.032   0.742  0.00  0.00    -0.460 NA
ATOM     10  C   LIG    1       -2.663   0.594  -0.029  0.00  0.00    +0.160 A 
ATOM     11  S   LIG    1       -1.927   1.946  -0.879  0.00  0.00    +0.060 S 
ATOM     12  C   LIG    1       -0.393   1.635  -0.070  0.00  0.00    -0.150 A 
ATOM     13  C   LIG    1        0.840   2.278  -0.157  0.00  0.00    +0.060 A 
BRANCH  10  14
ATOM     14  C   LIG    1       -4.097   0.158  -0.184  0.00  0.00    +0.020 C 
ATOM     15  C   LIG    1       -4.620  -0.907   0.780  0.00  0.00    +0.070 C 
ATOM     16  C   LIG    1       -4.352  -1.266  -0.683  0.00  0.00    +0.060 C 
ENDBRANCH  10  14
ENDBRANCH   2   5
BRANCH   1  21
ATOM     17  C   LIG    1        5.794   6.458  -0.320  0.00  0.00    +0.140 A 
ATOM     18  C   LIG    1        6.961   5.704  -0.285  0.00  0.00    +0.050 A 
ATOM     19  C   LIG    1        6.902   4.341  -0.062  0.00  0.00    +0.040 A 
ATOM     20  C   LIG    1        5.685   3.720   0.132  0.00  0.00    +0.040 A 
ATOM     21  C   LIG    1        4.506   4.467   0.093  0.00  0.00    -0.120 A 
ATOM     22  C   LIG    1        4.565   5.843  -0.131  0.00  0.00    +0.080 A 
BRANCH  17  23
ATOM     23  N   LIG    1        5.858   7.835  -0.544  0.00  0.00    -1.060 N 
ATOM     24  H   LIG    1        5.247   8.254  -1.170  0.00  0.00    +0.430 HD
BRANCH  23  26
ATOM     25  C   LIG    1        6.544   8.569   2.010  0.00  0.00    -0.270 C 
ATOM     26  S   LIG    1        6.979   8.753   0.258  0.00  0.00    +2.610 S 
ATOM     27  O   LIG    1        6.724  10.080  -0.182  0.00  0.00    -0.950 OA
ATOM     28  O   LIG    1        8.218   8.115  -0.018  0.00  0.00    -0.950 OA
ENDBRANCH  23  26
ENDBRANCH  17  23
ENDBRANCH   1  21
TORSDOF 5
