REMARK  Name = ZINCrH000004mezu.0
REMARK                            x       y       z     vdW  Elec       q    Type
REMARK                         _______ _______ _______ _____ _____    ______ ____
ROOT
ATOM      1  C   LIG    1        0.417   7.695   2.127  0.00  0.00    +0.570 C 
ATOM      2  N   LIG    1        0.689   6.627   2.904  0.00  0.00    -0.670 N 
ATOM      3  H   LIG    1        1.115   6.751   3.766  0.00  0.00    +0.410 HD
ATOM      4  O   LIG    1       -0.207   7.551   1.093  0.00  0.00    -0.490 OA
ENDROOT
BRANCH   2   5
ATOM      5  C   LIG    1        0.356   5.339   2.465  0.00  0.00    +0.180 A 
ATOM      6  C   LIG    1        0.240   5.077   1.106  0.00  0.00    +0.050 A 
ATOM      7  C   LIG    1       -0.089   3.802   0.680  0.00  0.00    +0.100 A 
ATOM      8  C   LIG    1       -0.304   2.791   1.606  0.00  0.00    +0.060 A 
ATOM      9  O   LIG    1       -0.630   1.538   1.171  0.00  0.00    -0.310 OA
ATOM     10  C   LIG    1        0.400   0.828   0.480  0.00  0.00    +0.230 C 
ATOM     11  C   LIG    1        0.422   1.210  -0.992  0.00  0.00    -0.010 C 
ATOM     12  C   LIG    1        0.792   2.670  -1.205  0.00  0.00    +0.230 C 
ATOM     13  C   LIG    1       -0.188   3.051   2.961  0.00  0.00    +0.070 A 
ATOM     14  O   LIG    1       -0.206   3.531  -0.653  0.00  0.00    -0.310 OA
ATOM     15  C   LIG    1        0.141   4.325   3.390  0.00  0.00    -0.070 A 
ATOM     16 CL   LIG    1        0.287   4.655   5.088  0.00  0.00    -0.060 Cl
ENDBRANCH   2   5
BRANCH   1  20
ATOM     17  C   LIG    1        1.737  11.564   3.289  0.00  0.00    +0.180 A 
ATOM     18  C   LIG    1        1.026  11.405   2.110  0.00  0.00    -0.130 A 
ATOM     19  C   LIG    1        0.593  10.147   1.725  0.00  0.00    +0.210 A 
ATOM     20  C   LIG    1        0.875   9.035   2.531  0.00  0.00    -0.180 A 
ATOM     21  C   LIG    1        1.588   9.204   3.723  0.00  0.00    +0.040 A 
ATOM     22  C   LIG    1        2.019  10.460   4.094  0.00  0.00    +0.060 A 
BRANCH  17  24
ATOM     23  C   LIG    1        1.837  13.886   2.792  0.00  0.00    +0.250 C 
ATOM     24  O   LIG    1        2.160  12.799   3.662  0.00  0.00    -0.290 OA
ENDBRANCH  17  24
BRANCH  19  25
ATOM     25  O   LIG    1       -0.103   9.991   0.570  0.00  0.00    -0.280 OA
ATOM     26  C   LIG    1       -0.354  11.169  -0.200  0.00  0.00    +0.250 C 
ENDBRANCH  19  25
BRANCH  22  27
ATOM     27  O   LIG    1        2.718  10.624   5.250  0.00  0.00    -0.300 OA
ATOM     28  C   LIG    1        2.972   9.451   6.027  0.00  0.00    +0.250 C 
ENDBRANCH  22  27
ENDBRANCH   1  20
TORSDOF 5
