REMARK  Name = ZINCrD000000fk3T.0
REMARK                            x       y       z     vdW  Elec       q    Type
REMARK                         _______ _______ _______ _____ _____    ______ ____
ROOT
ATOM      1  N   LIG    1        7.304   4.082  -2.424  0.00  0.00    -0.740 N 
ATOM      2  H   LIG    1        6.597   4.741  -2.506  0.00  0.00    +0.390 HD
ATOM      3  C   LIG    1        7.207   3.100  -1.506  0.00  0.00    +0.710 C 
ATOM      4  N   LIG    1        6.082   2.971  -0.774  0.00  0.00    -0.630 N 
ATOM      5  C   LIG    1        5.997   1.982   0.311  0.00  0.00    +0.320 C 
ATOM      6  C   LIG    1        4.726   1.149   0.112  0.00  0.00    +0.200 C 
ATOM      7  N   LIG    1        3.569   2.047  -0.003  0.00  0.00    -0.470 N 
ATOM      8  C   LIG    1        3.680   2.911  -1.185  0.00  0.00    +0.200 C 
ATOM      9  C   LIG    1        4.908   3.816  -1.039  0.00  0.00    +0.280 C 
ATOM     10  O   LIG    1        8.133   2.330  -1.338  0.00  0.00    -0.580 OA
ENDROOT
BRANCH   7  11
ATOM     11  C   LIG    1        2.380   1.327  -0.022  0.00  0.00    +0.240 A 
ATOM     12  N   LIG    1        2.116   0.506  -1.030  0.00  0.00    -0.460 NA
ATOM     13  C   LIG    1        0.983  -0.177  -1.044  0.00  0.00    +0.220 A 
ATOM     14  C   LIG    1        0.076  -0.036  -0.012  0.00  0.00    +0.220 A 
ATOM     15  N   LIG    1        0.335   0.781   0.995  0.00  0.00    -0.440 NA
ATOM     16  C   LIG    1        1.463   1.466   1.018  0.00  0.00    +0.120 A 
ATOM     17  C   LIG    1        1.757   2.398   2.165  0.00  0.00    +0.150 C 
ENDBRANCH   7  11
BRANCH   1  18
ATOM     18  C   LIG    1        8.478   4.154  -3.297  0.00  0.00    +0.310 C 
BRANCH  18  19
ATOM     19  C   LIG    1        9.583   4.900  -2.594  0.00  0.00    -0.090 A 
ATOM     20  C   LIG    1        9.289   6.019  -1.838  0.00  0.00    +0.010 A 
ATOM     21  C   LIG    1       10.301   6.701  -1.190  0.00  0.00    +0.000 A 
ATOM     22  C   LIG    1       11.609   6.268  -1.303  0.00  0.00    +0.000 A 
ATOM     23  C   LIG    1       11.904   5.151  -2.062  0.00  0.00    +0.000 A 
ATOM     24  C   LIG    1       10.891   4.467  -2.708  0.00  0.00    +0.020 A 
ENDBRANCH  18  19
BRANCH  18  25
ATOM     25  C   LIG    1        8.109   4.888  -4.588  0.00  0.00    +0.030 C 
BRANCH  25  26
ATOM     26  C   LIG    1        7.077   4.067  -5.364  0.00  0.00    +0.050 C 
BRANCH  26  28
ATOM     27  C   LIG    1        6.832   4.183  -7.790  0.00  0.00    +0.010 C 
ATOM     28  C   LIG    1        6.714   4.790  -6.635  0.00  0.00    -0.050 C 
ENDBRANCH  26  28
ENDBRANCH  25  26
ENDBRANCH  18  25
ENDBRANCH   1  18
TORSDOF 6
