REMARK  Name = ZINCvU0000000AoU.0
REMARK                            x       y       z     vdW  Elec       q    Type
REMARK                         _______ _______ _______ _____ _____    ______ ____
ROOT
ATOM      1  C   LIG    1       -5.324   3.106  -2.293  0.00  0.00    +0.170 C 
ATOM      2  C   LIG    1       -4.556   3.427  -1.036  0.00  0.00    +0.270 C 
ATOM      3  C   LIG    1       -3.457   4.191  -1.126  0.00  0.00    -0.320 C 
ATOM      4  C   LIG    1       -2.614   4.560   0.065  0.00  0.00    +0.380 C 
ATOM      5  N   LIG    1       -3.328   4.218   1.292  0.00  0.00    -0.380 N 
ATOM      6  N   LIG    1       -3.050   4.571   2.612  0.00  0.00    -0.280 NA
ATOM      7  C   LIG    1       -3.982   4.010   3.358  0.00  0.00    +0.320 A 
ATOM      8  N   LIG    1       -4.825   3.328   2.562  0.00  0.00    -0.530 NA
ATOM      9  C   LIG    1       -4.445   3.448   1.321  0.00  0.00    +0.500 A 
ATOM     10  N   LIG    1       -5.006   2.929   0.162  0.00  0.00    -0.610 N 
ATOM     11  H   LIG    1       -5.688   2.240   0.197  0.00  0.00    +0.440 HD
ENDROOT
BRANCH   4  12
ATOM     12  C   LIG    1       -1.312   3.801   0.013  0.00  0.00    -0.110 A 
ATOM     13  C   LIG    1       -0.114   4.488  -0.045  0.00  0.00    +0.040 A 
ATOM     14  C   LIG    1        1.080   3.793  -0.093  0.00  0.00    +0.040 A 
ATOM     15  C   LIG    1        1.076   2.411  -0.083  0.00  0.00    +0.060 A 
ATOM     16  C   LIG    1       -0.123   1.723  -0.026  0.00  0.00    -0.090 A 
ATOM     17 BR   LIG    1       -0.129  -0.168  -0.012  0.00  0.00    -0.040 Br
ATOM     18  C   LIG    1       -1.317   2.419   0.016  0.00  0.00    +0.060 A 
ENDBRANCH   4  12
BRANCH   7  19
ATOM     19  C   LIG    1       -4.084   4.114   4.830  0.00  0.00    -0.130 A 
ATOM     20  C   LIG    1       -5.039   3.539   5.586  0.00  0.00    +0.070 A 
ATOM     21  C   LIG    1       -4.925   3.779   6.940  0.00  0.00    +0.010 A 
ATOM     22  C   LIG    1       -3.888   4.543   7.294  0.00  0.00    -0.030 A 
ATOM     23  S   LIG    1       -2.973   5.003   5.864  0.00  0.00    +0.170 S 
ENDBRANCH   7  19
BRANCH   3  24
ATOM     24  C   LIG    1       -3.073   4.672  -2.400  0.00  0.00    +0.590 C 
ATOM     25  N   LIG    1       -2.047   5.539  -2.511  0.00  0.00    -0.670 N 
ATOM     26  H   LIG    1       -1.532   5.784  -1.727  0.00  0.00    +0.410 HD
ATOM     27  O   LIG    1       -3.670   4.304  -3.395  0.00  0.00    -0.520 OA
BRANCH  25  28
ATOM     28  C   LIG    1       -1.727   6.087  -3.757  0.00  0.00    +0.100 A 
ATOM     29  C   LIG    1       -1.865   5.330  -4.918  0.00  0.00    +0.070 A 
ATOM     30  C   LIG    1       -1.538   5.918  -6.130  0.00  0.00    -0.010 A 
ATOM     31  C   LIG    1       -1.081   7.222  -6.146  0.00  0.00    +0.240 A 
ATOM     32  N   LIG    1       -0.956   7.910  -5.028  0.00  0.00    -0.460 NA
ATOM     33  C   LIG    1       -1.260   7.391  -3.855  0.00  0.00    +0.240 A 
ENDBRANCH  25  28
ENDBRANCH   3  24
TORSDOF 4
