REMARK  Name = ZINCrH00000tj11W.0
REMARK                            x       y       z     vdW  Elec       q    Type
REMARK                         _______ _______ _______ _____ _____    ______ ____
ROOT
ATOM      1  C   LIG    1       -0.016   1.313   0.009  0.00  0.00    +0.230 A 
ATOM      2  N   LIG    1        0.002  -0.004  -0.013  0.00  0.00    -0.240 NA
ATOM      3  N   LIG    1        1.216  -0.431  -0.022  0.00  0.00    -0.270 NA
ATOM      4  C   LIG    1        2.048   0.586  -0.006  0.00  0.00    +0.270 A 
ATOM      5  C   LIG    1        3.503   0.737  -0.005  0.00  0.00    -0.180 A 
ATOM      6  C   LIG    1        4.026   2.039   0.015  0.00  0.00    +0.290 A 
ATOM      7  N   LIG    1        5.385   1.911   0.011  0.00  0.00    -0.290 N 
ATOM      8  N   LIG    1        5.696   0.546  -0.012  0.00  0.00    -0.220 NA
ATOM      9  N   LIG    1        3.189   3.088   0.035  0.00  0.00    -0.480 NA
ATOM     10  C   LIG    1        1.897   2.952   0.035  0.00  0.00    +0.610 A 
ATOM     11  C   LIG    1        4.592  -0.152  -0.022  0.00  0.00    +0.320 A 
ATOM     12  N   LIG    1        1.288   1.735   0.014  0.00  0.00    -0.460 N 
ENDROOT
BRANCH   7  13
ATOM     13  C   LIG    1        6.309   2.964   0.028  0.00  0.00    +0.150 A 
ATOM     14  C   LIG    1        5.864   4.279   0.044  0.00  0.00    +0.040 A 
ATOM     15  C   LIG    1        6.778   5.315   0.066  0.00  0.00    +0.050 A 
ATOM     16  C   LIG    1        8.134   5.045   0.060  0.00  0.00    +0.030 A 
ATOM     17  C   LIG    1        8.581   3.736   0.038  0.00  0.00    +0.060 A 
ATOM     18  C   LIG    1        7.672   2.695   0.022  0.00  0.00    -0.040 A 
ATOM     19 CL   LIG    1        8.233   1.052  -0.006  0.00  0.00    -0.020 Cl
ENDBRANCH   7  13
BRANCH   1  23
ATOM     20  C   LIG    1       -3.469   3.787   0.040  0.00  0.00    +0.150 A 
ATOM     21  C   LIG    1       -3.567   2.467  -0.379  0.00  0.00    -0.010 A 
ATOM     22  C   LIG    1       -2.449   1.661  -0.390  0.00  0.00    +0.120 A 
ATOM     23  C   LIG    1       -1.217   2.173   0.020  0.00  0.00    -0.060 A 
ATOM     24  C   LIG    1       -1.123   3.500   0.445  0.00  0.00    +0.050 A 
ATOM     25  C   LIG    1       -2.245   4.301   0.449  0.00  0.00    -0.060 A 
BRANCH  20  27
ATOM     26  C   LIG    1       -4.402   5.927   0.492  0.00  0.00    +0.240 C 
ATOM     27  O   LIG    1       -4.573   4.579   0.050  0.00  0.00    -0.310 OA
ENDBRANCH  20  27
ENDBRANCH   1  23
TORSDOF 3
