REMARK  Name = ZINCqH0000034ljs.1
REMARK                            x       y       z     vdW  Elec       q    Type
REMARK                         _______ _______ _______ _____ _____    ______ ____
ROOT
ATOM      1  C   LIG    1       -0.013   1.086   0.008  0.00  0.00    +0.260 C 
ATOM      2  C   LIG    1       -0.753   1.593  -1.232  0.00  0.00    +0.020 C 
ENDROOT
BRANCH   1   3
ATOM      3  N   LIG    1        1.362   1.593  -0.002  0.00  0.00    -0.720 N 
ATOM      4  H   LIG    1        1.583   2.404   0.482  0.00  0.00    +0.400 HD
ATOM      5  C   LIG    1        2.318   0.933  -0.685  0.00  0.00    +0.560 C 
ATOM      6  O   LIG    1        2.041  -0.084  -1.291  0.00  0.00    -0.530 OA
BRANCH   5   7
ATOM      7  C   LIG    1        3.703   1.444  -0.695  0.00  0.00    -0.140 A 
ATOM      8  C   LIG    1        4.021   2.619   0.000  0.00  0.00    +0.050 A 
ATOM      9  C   LIG    1        5.297   3.091  -0.001  0.00  0.00    +0.040 A 
ATOM     10  C   LIG    1        6.306   2.420  -0.704  0.00  0.00    -0.120 A 
ATOM     11  S   LIG    1        8.015   2.799  -0.884  0.00  0.00    +0.100 S 
ATOM     12  C   LIG    1        8.291   1.392  -1.891  0.00  0.00    -0.020 A 
ATOM     13  C   LIG    1        7.184   0.702  -2.070  0.00  0.00    +0.040 A 
ATOM     14  C   LIG    1        6.008   1.248  -1.409  0.00  0.00    -0.090 A 
ATOM     15  C   LIG    1        4.687   0.764  -1.397  0.00  0.00    +0.130 A 
ENDBRANCH   5   7
ENDBRANCH   1   3
BRANCH   1  16
ATOM     16  C   LIG    1       -0.729   1.579   1.267  0.00  0.00    +0.000 C 
ATOM     17  C   LIG    1        0.011   1.072   2.506  0.00  0.00    +0.060 C 
BRANCH  16  20
ATOM     18  N   LIG    1       -2.967   1.366   2.298  0.00  0.00    -0.630 N 
ATOM     19  H   LIG    1       -2.651   1.925   3.025  0.00  0.00    +0.430 HD
ATOM     20  C   LIG    1       -2.143   1.058   1.278  0.00  0.00    +0.520 C 
ATOM     21  O   LIG    1       -2.538   0.360   0.368  0.00  0.00    -0.450 OA
BRANCH  18  25
ATOM     22  C   LIG    1       -6.600   0.209   2.628  0.00  0.00    +0.020 A 
ATOM     23  N   LIG    1       -6.010  -0.218   1.556  0.00  0.00    -0.230 NA
ATOM     24  N   LIG    1       -4.810   0.137   1.392  0.00  0.00    -0.270 NA
ATOM     25  C   LIG    1       -4.272   0.885   2.308  0.00  0.00    +0.220 A 
ATOM     26  S   LIG    1       -5.438   1.186   3.526  0.00  0.00    +0.110 S 
BRANCH  22  28
ATOM     27  C   LIG    1       -8.064  -1.351   3.881  0.00  0.00    +0.040 C 
ATOM     28  C   LIG    1       -8.022  -0.078   3.034  0.00  0.00    +0.150 C 
ENDBRANCH  22  28
ENDBRANCH  18  25
ENDBRANCH  16  20
ENDBRANCH   1  16
TORSDOF 6
