REMARK  Name = ZINCvU00000009mj.0
REMARK                            x       y       z     vdW  Elec       q    Type
REMARK                         _______ _______ _______ _____ _____    ______ ____
ROOT
ATOM      1  O   LIG    1       -2.243   4.305   0.340  0.00  0.00    -0.330 OA
ENDROOT
BRANCH   1   2
ATOM      2  C   LIG    1       -2.290   5.646   0.297  0.00  0.00    +0.470 C 
ATOM      3  O   LIG    1       -1.285   6.279   0.073  0.00  0.00    -0.490 OA
BRANCH   2   4
ATOM      4  C   LIG    1       -3.595   6.362   0.529  0.00  0.00    +0.150 C 
ATOM      5  C   LIG    1       -4.595   5.918  -0.503  0.00  0.00    -0.160 A 
ATOM      6  C   LIG    1       -5.220   4.692  -0.358  0.00  0.00    +0.080 A 
ATOM      7  C   LIG    1       -6.141   4.265  -1.296  0.00  0.00    -0.010 A 
ATOM      8  C   LIG    1       -6.441   5.064  -2.384  0.00  0.00    +0.060 A 
ATOM      9  C   LIG    1       -5.823   6.287  -2.532  0.00  0.00    +0.000 A 
ATOM     10  C   LIG    1       -4.896   6.720  -1.591  0.00  0.00    +0.130 A 
ATOM     11  O   LIG    1       -4.300   7.925  -1.754  0.00  0.00    -0.240 OA
ATOM     12  C   LIG    1       -3.733   8.552  -0.696  0.00  0.00    +0.130 A 
ATOM     13  C   LIG    1       -3.515   9.924  -0.756  0.00  0.00    +0.000 A 
ATOM     14  C   LIG    1       -2.939  10.581   0.313  0.00  0.00    +0.060 A 
ATOM     15  C   LIG    1       -2.576   9.875   1.444  0.00  0.00    -0.010 A 
ATOM     16  C   LIG    1       -2.791   8.511   1.507  0.00  0.00    +0.070 A 
ATOM     17  C   LIG    1       -3.369   7.847   0.440  0.00  0.00    -0.140 A 
ENDBRANCH   2   4
ENDBRANCH   1   2
BRANCH   1  18
ATOM     18  C   LIG    1       -0.952   3.683   0.107  0.00  0.00    +0.270 C 
BRANCH  18  21
ATOM     19  N   LIG    1       -0.017   1.395   0.010  0.00  0.00    -0.670 N 
ATOM     20  H   LIG    1        0.861   1.791  -0.106  0.00  0.00    +0.410 HD
ATOM     21  C   LIG    1       -1.093   2.185   0.193  0.00  0.00    +0.520 C 
ATOM     22  O   LIG    1       -2.176   1.691   0.428  0.00  0.00    -0.490 OA
BRANCH  19  26
ATOM     23  C   LIG    1       -0.464  -2.746  -0.080  0.00  0.00    -0.080 A 
ATOM     24  C   LIG    1       -1.469  -1.933  -0.570  0.00  0.00    +0.030 A 
ATOM     25  C   LIG    1       -1.324  -0.560  -0.542  0.00  0.00    +0.010 A 
ATOM     26  C   LIG    1       -0.167   0.004  -0.020  0.00  0.00    +0.140 A 
ATOM     27  C   LIG    1        0.843  -0.815   0.467  0.00  0.00    -0.010 A 
ATOM     28  C   LIG    1        0.689  -2.188   0.441  0.00  0.00    +0.030 A 
BRANCH  23  30
ATOM     29  C   LIG    1       -0.803  -4.706  -1.560  0.00  0.00    +0.040 C 
ATOM     30  C   LIG    1       -0.625  -4.244  -0.113  0.00  0.00    -0.030 C 
ATOM     31  C   LIG    1       -1.856  -4.643   0.704  0.00  0.00    +0.040 C 
ATOM     32  C   LIG    1        0.619  -4.904   0.484  0.00  0.00    +0.030 C 
ENDBRANCH  23  30
ENDBRANCH  19  26
ENDBRANCH  18  21
ENDBRANCH   1  18
TORSDOF 6
