REMARK  Name = ZINCrg00000bxXqm.0
REMARK                            x       y       z     vdW  Elec       q    Type
REMARK                         _______ _______ _______ _____ _____    ______ ____
ROOT
ATOM      1  C   LIG    1       -4.566   1.415  -2.030  0.00  0.00    +0.030 C 
ATOM      2  C   LIG    1       -3.795   1.900  -0.802  0.00  0.00    +0.240 C 
ATOM      3  C   LIG    1       -4.627   1.646   0.456  0.00  0.00    +0.270 C 
ATOM      4  N   LIG    1       -4.670   0.198   0.707  0.00  0.00    -0.600 N 
ATOM      5  C   LIG    1       -3.404  -0.538   0.824  0.00  0.00    +0.290 C 
ATOM      6  C   LIG    1       -2.572  -0.285  -0.440  0.00  0.00    +0.270 C 
ATOM      7  C   LIG    1       -5.850  -0.442   0.830  0.00  0.00    +0.570 C 
ATOM      8  O   LIG    1       -5.874  -1.623   1.114  0.00  0.00    -0.520 OA
ATOM      9  N   LIG    1       -2.529   1.162  -0.691  0.00  0.00    -0.600 N 
ATOM     10  C   LIG    1       -1.349   1.802  -0.812  0.00  0.00    +0.560 C 
ATOM     11  O   LIG    1       -1.323   3.011  -0.928  0.00  0.00    -0.520 OA
ENDROOT
BRANCH   7  12
ATOM     12  C   LIG    1       -7.113   0.292   0.618  0.00  0.00    -0.120 A 
ATOM     13  C   LIG    1       -7.304   1.542   1.210  0.00  0.00    +0.070 A 
ATOM     14  C   LIG    1       -8.482   2.228   1.008  0.00  0.00    +0.050 A 
ATOM     15  C   LIG    1       -9.486   1.676   0.225  0.00  0.00    +0.060 A 
ATOM     16  O   LIG    1      -10.721   2.142  -0.117  0.00  0.00    -0.300 OA
ATOM     17  C   LIG    1      -11.130   1.355  -1.251  0.00  0.00    +0.440 C 
ATOM     18  O   LIG    1      -10.427   0.111  -1.077  0.00  0.00    -0.300 OA
ATOM     19  C   LIG    1       -9.304   0.425  -0.366  0.00  0.00    +0.030 A 
ATOM     20  C   LIG    1       -8.123  -0.265  -0.171  0.00  0.00    +0.090 A 
ENDBRANCH   7  12
BRANCH  10  21
ATOM     21  C   LIG    1       -0.081   1.030  -0.805  0.00  0.00    -0.010 A 
ATOM     22  C   LIG    1        0.304   0.300  -1.915  0.00  0.00    -0.050 A 
ATOM     23  C   LIG    1        1.511  -0.425  -1.871  0.00  0.00    +0.520 A 
ATOM     24  N   LIG    1        2.272  -0.403  -0.760  0.00  0.00    -0.600 N 
ATOM     25  H   LIG    1        3.101  -0.906  -0.740  0.00  0.00    +0.420 HD
ATOM     26  C   LIG    1        1.898   0.311   0.331  0.00  0.00    +0.320 A 
ATOM     27  O   LIG    1        1.868  -1.074  -2.841  0.00  0.00    -0.540 OA
ATOM     28  C   LIG    1        0.748   1.024   0.337  0.00  0.00    -0.060 A 
ENDBRANCH  10  21
TORSDOF 2
