REMARK  Name = ZINCrD00000F5LGw.0
REMARK                            x       y       z     vdW  Elec       q    Type
REMARK                         _______ _______ _______ _____ _____    ______ ____
ROOT
ATOM      1  C   LIG    1       -1.312   2.115   0.020  0.00  0.00    +0.080 A 
ATOM      2  N   LIG    1       -2.509   1.569   0.017  0.00  0.00    -0.250 NA
ATOM      3  N   LIG    1       -3.422   2.472   0.031  0.00  0.00    -0.380 N 
ATOM      4  H   LIG    1       -4.377   2.300   0.034  0.00  0.00    +0.440 HD
ATOM      5  C   LIG    1       -2.849   3.713   0.035  0.00  0.00    -0.040 A 
ATOM      6  C   LIG    1       -1.481   3.512   0.028  0.00  0.00    +0.040 A 
ENDROOT
BRANCH   1  10
ATOM      7  C   LIG    1        2.399   0.034  -0.021  0.00  0.00    +0.140 A 
ATOM      8  C   LIG    1        1.206  -0.676  -0.013  0.00  0.00    -0.020 A 
ATOM      9  C   LIG    1        0.002  -0.004   0.002  0.00  0.00    +0.090 A 
ATOM     10  C   LIG    1       -0.017   1.389   0.010  0.00  0.00    -0.050 A 
ATOM     11  C   LIG    1        1.182   2.100   0.002  0.00  0.00    +0.080 A 
ATOM     12  C   LIG    1        2.383   1.422  -0.014  0.00  0.00    -0.080 A 
BRANCH   7  13
ATOM     13  O   LIG    1        3.584  -0.630  -0.036  0.00  0.00    -0.310 OA
BRANCH  13  14
ATOM     14  C   LIG    1        4.773   0.163  -0.044  0.00  0.00    +0.180 C 
BRANCH  14  16
ATOM     15  C   LIG    1        7.270   0.096  -0.069  0.00  0.00    +0.040 C 
ATOM     16  C   LIG    1        5.998  -0.754  -0.061  0.00  0.00    +0.020 C 
ENDBRANCH  14  16
ENDBRANCH  13  14
ENDBRANCH   7  13
ENDBRANCH   1  10
BRANCH   5  17
ATOM     17  C   LIG    1       -3.549   5.007   0.045  0.00  0.00    +0.610 C 
ATOM     18  N   LIG    1       -4.896   5.044   0.051  0.00  0.00    -0.580 N 
ATOM     19  H   LIG    1       -5.404   4.218   0.049  0.00  0.00    +0.380 HD
ATOM     20  O   LIG    1       -2.911   6.043   0.048  0.00  0.00    -0.480 OA
BRANCH  18  21
ATOM     21  N   LIG    1       -5.562   6.277   0.061  0.00  0.00    -0.220 NA
ATOM     22  C   LIG    1       -6.860   6.312   0.067  0.00  0.00    +0.240 C 
BRANCH  22  23
ATOM     23  C   LIG    1       -7.561   7.610   0.077  0.00  0.00    -0.040 A 
ATOM     24  C   LIG    1       -6.832   8.801   0.086  0.00  0.00    +0.050 A 
ATOM     25  C   LIG    1       -7.493  10.013   0.089  0.00  0.00    +0.020 A 
ATOM     26  C   LIG    1       -8.875  10.052   0.096  0.00  0.00    +0.000 A 
ATOM     27  C   LIG    1       -9.608   8.873   0.093  0.00  0.00    +0.100 A 
ATOM     28  C   LIG    1       -8.957   7.652   0.084  0.00  0.00    +0.030 A 
BRANCH  27  29
ATOM     29  O   LIG    1      -10.967   8.918   0.100  0.00  0.00    -0.500 OA
ATOM     30  H   LIG    1      -11.356   8.927   0.985  0.00  0.00    +0.390 HD
ENDBRANCH  27  29
ENDBRANCH  22  23
ENDBRANCH  18  21
ENDBRANCH   5  17
TORSDOF 8
