REMARK  Name = ZINCtV000002tTNB.0
REMARK                            x       y       z     vdW  Elec       q    Type
REMARK                         _______ _______ _______ _____ _____    ______ ____
ROOT
ATOM      1  N   LIG    1       -0.282   3.054   0.799  0.00  0.00    -0.600 N 
ATOM      2  C   LIG    1        0.862   3.549   1.312  0.00  0.00    +0.530 C 
ATOM      3  O   LIG    1        0.962   4.737   1.534  0.00  0.00    -0.520 OA
ENDROOT
BRANCH   1   7
ATOM      4  C   LIG    1       -2.629   6.610   0.588  0.00  0.00    -0.020 C 
ATOM      5  C   LIG    1       -2.966   5.584   1.672  0.00  0.00    +0.010 C 
ATOM      6  C   LIG    1       -1.764   4.663   1.892  0.00  0.00    +0.010 C 
ATOM      7  C   LIG    1       -1.432   3.936   0.588  0.00  0.00    +0.240 C 
ATOM      8  C   LIG    1       -1.096   4.962  -0.496  0.00  0.00    +0.010 C 
ATOM      9  C   LIG    1       -2.297   5.883  -0.717  0.00  0.00    +0.020 C 
BRANCH   4  11
ATOM     10  C   LIG    1       -3.453   8.633  -0.625  0.00  0.00    +0.010 C 
ATOM     11  C   LIG    1       -3.831   7.531   0.367  0.00  0.00    +0.000 C 
ENDBRANCH   4  11
ENDBRANCH   1   7
BRANCH   1  12
ATOM     12  C   LIG    1       -0.375   1.633   0.453  0.00  0.00    +0.270 C 
ATOM     13  C   LIG    1       -1.613   1.027   1.116  0.00  0.00    +0.040 C 
BRANCH  12  14
ATOM     14  C   LIG    1       -0.483   1.486  -1.043  0.00  0.00    -0.110 A 
ATOM     15  C   LIG    1       -1.410   2.234  -1.745  0.00  0.00    +0.050 A 
ATOM     16  C   LIG    1       -1.507   2.104  -3.117  0.00  0.00    -0.010 A 
ATOM     17  C   LIG    1       -0.683   1.216  -3.788  0.00  0.00    +0.100 A 
ATOM     18  C   LIG    1        0.241   0.464  -3.083  0.00  0.00    -0.010 A 
ATOM     19  F   LIG    1       -0.780   1.085  -5.129  0.00  0.00    -0.140 F 
ATOM     20  C   LIG    1        0.340   0.599  -1.711  0.00  0.00    +0.050 A 
ENDBRANCH  12  14
ENDBRANCH   1  12
BRANCH   2  21
ATOM     21  C   LIG    1        2.016   2.627   1.608  0.00  0.00    +0.070 C 
ATOM     22  C   LIG    1        3.286   3.452   1.823  0.00  0.00    +0.070 C 
BRANCH  21  23
ATOM     23  C   LIG    1        1.718   1.831   2.852  0.00  0.00    -0.200 A 
ATOM     24  C   LIG    1        1.743   0.486   3.009  0.00  0.00    -0.020 A 
ATOM     25  O   LIG    1        1.408   0.246   4.284  0.00  0.00    +0.100 OA
ATOM     26  N   LIG    1        1.193   1.271   4.888  0.00  0.00    -0.360 NA
ATOM     27  C   LIG    1        2.080  -0.538   1.956  0.00  0.00    +0.190 C 
ATOM     28  C   LIG    1        1.352   2.317   4.129  0.00  0.00    +0.040 A 
ATOM     29  C   LIG    1        1.177   3.759   4.530  0.00  0.00    +0.170 C 
ENDBRANCH  21  23
ENDBRANCH   2  21
TORSDOF 6
