REMARK  Name = ZINCrg000000tJDp.0
REMARK                            x       y       z     vdW  Elec       q    Type
REMARK                         _______ _______ _______ _____ _____    ______ ____
ROOT
ATOM      1  S   LIG    1       -5.696   2.620   0.083  0.00  0.00    +2.700 S 
ATOM      2  O   LIG    1       -5.738   3.988   0.464  0.00  0.00    -0.950 OA
ATOM      3  O   LIG    1       -6.381   1.595   0.790  0.00  0.00    -0.950 OA
ENDROOT
BRANCH   1   4
ATOM      4  C   LIG    1       -3.995   2.160   0.066  0.00  0.00    -0.700 A 
ATOM      5  C   LIG    1       -3.629   0.835   0.215  0.00  0.00    +0.160 A 
ATOM      6  C   LIG    1       -2.299   0.492   0.194  0.00  0.00    -0.040 A 
ATOM      7  C   LIG    1       -1.295   1.461   0.017  0.00  0.00    +0.240 A 
ATOM      8  N   LIG    1       -0.011   0.966   0.007  0.00  0.00    -0.650 N 
ATOM      9  H   LIG    1        0.002  -0.004   0.002  0.00  0.00    +0.400 HD
ATOM     10  C   LIG    1        1.191   1.468  -0.001  0.00  0.00    +0.530 C 
ATOM     11  C   LIG    1        1.567   2.894  -0.182  0.00  0.00    +0.080 C 
ATOM     12  C   LIG    1        0.570   3.826   0.463  0.00  0.00    +0.040 C 
ATOM     13  C   LIG    1       -0.722   3.928  -0.287  0.00  0.00    +0.090 C 
ATOM     14  O   LIG    1        2.104   0.684   0.154  0.00  0.00    -0.530 OA
ATOM     15  C   LIG    1       -1.665   2.781  -0.115  0.00  0.00    -0.140 A 
ATOM     16  C   LIG    1       -3.019   3.117  -0.097  0.00  0.00    +0.160 A 
ENDBRANCH   1   4
BRANCH   1  21
ATOM     17  C   LIG    1       -8.191   1.617  -2.605  0.00  0.00    -0.030 C 
ATOM     18  C   LIG    1       -8.070   2.751  -3.626  0.00  0.00    +0.020 C 
ATOM     19  C   LIG    1       -7.548   4.011  -2.932  0.00  0.00    +0.040 C 
ATOM     20  C   LIG    1       -6.163   3.733  -2.350  0.00  0.00    +0.290 C 
ATOM     21  N   LIG    1       -6.238   2.552  -1.480  0.00  0.00    -1.000 NA
ATOM     22  C   LIG    1       -6.808   1.311  -2.022  0.00  0.00    +0.310 C 
BRANCH  17  23
ATOM     23  C   LIG    1       -8.744   0.367  -3.293  0.00  0.00    +0.250 C 
BRANCH  23  24
ATOM     24  N   LIG    1      -10.117   0.625  -3.747  0.00  0.00    -0.490 N 
ATOM     25  H   LIG    1      -10.116   1.395  -4.399  0.00  0.00    +0.430 HD
ATOM     26  H   LIG    1      -10.696   0.856  -2.954  0.00  0.00    +0.430 HD
BRANCH  24  27
ATOM     27  C   LIG    1      -10.648  -0.576  -4.407  0.00  0.00    +0.180 C 
BRANCH  27  29
ATOM     28  O   LIG    1      -12.570   0.776  -4.675  0.00  0.00    -0.680 OA
ATOM     29  C   LIG    1      -12.056  -0.311  -4.873  0.00  0.00    +0.480 C 
ATOM     30  O   LIG    1      -12.681  -1.185  -5.450  0.00  0.00    -0.640 OA
ENDBRANCH  27  29
ENDBRANCH  24  27
ENDBRANCH  23  24
ENDBRANCH  17  23
ENDBRANCH   1  21
TORSDOF 6
