REMARK  Name = ZINCrD000000Abwd.0
REMARK                            x       y       z     vdW  Elec       q    Type
REMARK                         _______ _______ _______ _____ _____    ______ ____
ROOT
ATOM      1  C   LIG    1       -6.913   3.458   0.055  0.00  0.00    +0.110 C 
ENDROOT
BRANCH   1   3
ATOM      2  O   LIG    1       -4.835   4.575   0.050  0.00  0.00    -0.530 OA
ATOM      3  C   LIG    1       -5.407   3.506   0.048  0.00  0.00    +0.530 C 
ATOM      4  N   LIG    1       -4.697   2.361   0.038  0.00  0.00    -0.630 N 
ATOM      5  H   LIG    1       -5.155   1.506   0.036  0.00  0.00    +0.440 HD
BRANCH   4   6
ATOM      6  C   LIG    1       -3.313   2.405   0.031  0.00  0.00    +0.500 A 
ATOM      7  N   LIG    1       -2.528   1.358   0.022  0.00  0.00    -0.510 NA
ATOM      8  C   LIG    1       -1.230   1.760   0.017  0.00  0.00    +0.070 A 
ATOM      9  C   LIG    1       -0.013   1.076   0.008  0.00  0.00    +0.060 A 
ATOM     10  C   LIG    1        1.169   1.783   0.001  0.00  0.00    +0.010 A 
ATOM     11  C   LIG    1        1.160   3.170   0.008  0.00  0.00    +0.030 A 
ATOM     12  C   LIG    1       -0.034   3.861   0.022  0.00  0.00    +0.010 A 
ATOM     13  C   LIG    1       -1.234   3.165   0.029  0.00  0.00    +0.050 A 
ATOM     14  N   LIG    1       -2.565   3.546   0.043  0.00  0.00    -0.590 N 
ATOM     15  H   LIG    1       -2.903   4.455   0.051  0.00  0.00    +0.430 HD
ENDBRANCH   4   6
ENDBRANCH   1   3
BRANCH   1  16
ATOM     16  C   LIG    1       -7.469   4.884   0.066  0.00  0.00    +0.070 C 
BRANCH  16  17
ATOM     17  C   LIG    1       -8.975   4.836   0.073  0.00  0.00    +0.400 C 
ATOM     18  O   LIG    1       -9.548   3.767   0.070  0.00  0.00    -0.450 OA
BRANCH  17  19
ATOM     19  C   LIG    1       -9.749   6.084   0.084  0.00  0.00    -0.170 A 
ATOM     20  C   LIG    1       -9.090   7.318   0.087  0.00  0.00    +0.080 A 
ATOM     21  C   LIG    1       -9.817   8.489   0.097  0.00  0.00    +0.010 A 
ATOM     22  C   LIG    1      -11.204   8.443   0.103  0.00  0.00    +0.100 A 
ATOM     23  O   LIG    1      -11.927   9.598   0.114  0.00  0.00    -0.320 OA
ATOM     24  C   LIG    1      -12.668   9.883  -1.074  0.00  0.00    +0.230 C 
ATOM     25  C   LIG    1      -14.014   9.176  -1.053  0.00  0.00    -0.010 C 
ATOM     26  C   LIG    1      -13.873   7.662  -1.079  0.00  0.00    +0.230 C 
ATOM     27  O   LIG    1      -13.232   7.192   0.108  0.00  0.00    -0.320 OA
ATOM     28  C   LIG    1      -11.867   7.219   0.100  0.00  0.00    +0.050 A 
ATOM     29  C   LIG    1      -11.150   6.041   0.085  0.00  0.00    +0.090 A 
ENDBRANCH  17  19
ENDBRANCH  16  17
ENDBRANCH   1  16
TORSDOF 5
