REMARK  Name = ZINCrH000004rLvn.0
REMARK                            x       y       z     vdW  Elec       q    Type
REMARK                         _______ _______ _______ _____ _____    ______ ____
ROOT
ATOM      1  C   LIG    1       -1.968   0.108   0.912  0.00  0.00    +0.360 C 
ENDROOT
BRANCH   1   2
ATOM      2  N   LIG    1       -2.724   0.223   2.162  0.00  0.00    -0.560 N 
ATOM      3  C   LIG    1       -3.729   1.085   2.357  0.00  0.00    +0.700 C 
ATOM      4  N   LIG    1       -4.258   0.988   3.592  0.00  0.00    -0.710 N 
ATOM      5  H   LIG    1       -4.992   1.509   3.953  0.00  0.00    +0.440 HD
ATOM      6  C   LIG    1       -3.501  -0.064   4.283  0.00  0.00    +0.130 C 
ATOM      7  C   LIG    1       -4.392  -1.182   4.743  0.00  0.00    +0.050 C 
ATOM      8  C   LIG    1       -5.838  -0.707   5.001  0.00  0.00    +0.030 C 
ATOM      9  C   LIG    1       -5.897   0.658   5.716  0.00  0.00    +0.000 C 
ATOM     10  C   LIG    1       -4.875   0.779   6.813  0.00  0.00    +0.020 C 
ATOM     11  C   LIG    1       -3.619   1.464   6.238  0.00  0.00    +0.010 C 
ATOM     12  C   LIG    1       -2.771   0.539   5.499  0.00  0.00    +0.050 C 
ATOM     13  O   LIG    1       -4.121   1.869   1.514  0.00  0.00    -0.540 OA
ATOM     14  C   LIG    1       -2.497  -0.532   3.257  0.00  0.00    +0.540 C 
ATOM     15  O   LIG    1       -1.662  -1.401   3.391  0.00  0.00    -0.460 OA
ENDBRANCH   1   2
BRANCH   1  18
ATOM     16  N   LIG    1        0.059   1.104  -0.095  0.00  0.00    -0.680 N 
ATOM     17  H   LIG    1       -0.135   0.607  -0.905  0.00  0.00    +0.410 HD
ATOM     18  C   LIG    1       -0.784   1.039   0.954  0.00  0.00    +0.510 C 
ATOM     19  O   LIG    1       -0.591   1.731   1.931  0.00  0.00    -0.510 OA
BRANCH  16  26
ATOM     20  C   LIG    1       -0.118   3.831  -0.887  0.00  0.00    +0.090 C 
ATOM     21  C   LIG    1        1.171   3.227  -0.394  0.00  0.00    -0.070 A 
ATOM     22  C   LIG    1        2.311   4.003  -0.309  0.00  0.00    +0.010 A 
ATOM     23  C   LIG    1        3.496   3.448   0.138  0.00  0.00    +0.030 A 
ATOM     24  C   LIG    1        3.543   2.116   0.507  0.00  0.00    +0.010 A 
ATOM     25  C   LIG    1        2.405   1.337   0.431  0.00  0.00    -0.060 A 
ATOM     26  C   LIG    1        1.214   1.891  -0.017  0.00  0.00    +0.130 A 
BRANCH  25  27
ATOM     27  C   LIG    1        2.457  -0.115   0.835  0.00  0.00    +0.010 C 
ATOM     28  C   LIG    1        2.880  -0.222   2.301  0.00  0.00    +0.040 C 
ATOM     29  C   LIG    1        3.470  -0.852  -0.044  0.00  0.00    +0.040 C 
ENDBRANCH  25  27
ENDBRANCH  16  26
ENDBRANCH   1  18
TORSDOF 4
