REMARK  Name = ZINCtV000002KCYb.0
REMARK                            x       y       z     vdW  Elec       q    Type
REMARK                         _______ _______ _______ _____ _____    ______ ____
ROOT
ATOM      1  C   LIG    1        1.146  -0.674  -0.013  0.00  0.00    +0.200 A 
ATOM      2  C   LIG    1        2.365   0.050  -0.020  0.00  0.00    -0.150 A 
ATOM      3  C   LIG    1        3.743  -0.424  -0.037  0.00  0.00    -0.030 A 
ATOM      4  C   LIG    1        4.658   0.544  -0.041  0.00  0.00    -0.010 A 
ATOM      5  S   LIG    1        3.909   2.128  -0.025  0.00  0.00    +0.200 S 
ATOM      6  C   LIG    1        2.291   1.443  -0.012  0.00  0.00    +0.100 A 
ATOM      7  N   LIG    1        1.086   2.030   0.003  0.00  0.00    -0.490 NA
ATOM      8  C   LIG    1       -0.016   1.316   0.009  0.00  0.00    +0.540 A 
ATOM      9  N   LIG    1        0.002  -0.004   0.002  0.00  0.00    -0.530 NA
ENDROOT
BRANCH   3  10
ATOM     10  C   LIG    1        4.097  -1.864  -0.048  0.00  0.00    -0.040 A 
ATOM     11  C   LIG    1        3.526  -2.732   0.881  0.00  0.00    +0.040 A 
ATOM     12  C   LIG    1        3.854  -4.072   0.862  0.00  0.00    +0.020 A 
ATOM     13  C   LIG    1        4.758  -4.552  -0.068  0.00  0.00    +0.020 A 
ATOM     14  C   LIG    1        5.333  -3.695  -0.989  0.00  0.00    +0.020 A 
ATOM     15  C   LIG    1        5.008  -2.354  -0.983  0.00  0.00    +0.030 A 
ENDBRANCH   3  10
BRANCH   1  16
ATOM     16  S   LIG    1        1.151  -2.436  -0.021  0.00  0.00    +0.060 S 
BRANCH  16  17
ATOM     17  C   LIG    1       -0.630  -2.756  -0.006  0.00  0.00    +0.210 C 
BRANCH  17  21
ATOM     18  C   LIG    1       -1.213  -6.274  -0.645  0.00  0.00    +0.220 A 
ATOM     19  N   LIG    1       -1.191  -6.222   0.666  0.00  0.00    -0.270 NA
ATOM     20  N   LIG    1       -0.982  -5.008   1.039  0.00  0.00    -0.260 NA
ATOM     21  C   LIG    1       -0.874  -4.243  -0.011  0.00  0.00    +0.180 A 
ATOM     22  O   LIG    1       -1.012  -5.020  -1.098  0.00  0.00    -0.210 OA
BRANCH  18  27
ATOM     23 CL   LIG    1       -2.049 -11.165  -3.990  0.00  0.00    -0.050 Cl
ATOM     24  C   LIG    1       -1.806  -9.746  -3.020  0.00  0.00    -0.010 A 
ATOM     25  C   LIG    1       -1.808  -9.847  -1.638  0.00  0.00    +0.040 A 
ATOM     26  C   LIG    1       -1.616  -8.723  -0.862  0.00  0.00    +0.100 A 
ATOM     27  C   LIG    1       -1.419  -7.482  -1.472  0.00  0.00    -0.030 A 
ATOM     28  C   LIG    1       -1.424  -7.387  -2.864  0.00  0.00    +0.070 A 
ATOM     29  C   LIG    1       -1.611  -8.519  -3.630  0.00  0.00    +0.040 A 
ENDBRANCH  18  27
ENDBRANCH  17  21
ENDBRANCH  16  17
ENDBRANCH   1  16
TORSDOF 5
