REMARK  Name = ZINCrD000000AfBf.0
REMARK                            x       y       z     vdW  Elec       q    Type
REMARK                         _______ _______ _______ _____ _____    ______ ____
ROOT
ATOM      1  C   LIG    1        4.819   4.013   0.194  0.00  0.00    +0.070 C 
ENDROOT
BRANCH   1   3
ATOM      2  O   LIG    1        3.554   2.023   0.082  0.00  0.00    -0.510 OA
ATOM      3  C   LIG    1        3.532   3.236   0.088  0.00  0.00    +0.520 C 
ATOM      4  N   LIG    1        2.356   3.889   0.001  0.00  0.00    -0.670 N 
ATOM      5  H   LIG    1        2.342   4.856  -0.071  0.00  0.00    +0.420 HD
BRANCH   4   6
ATOM      6  C   LIG    1        1.155   3.171   0.014  0.00  0.00    +0.140 A 
ATOM      7  C   LIG    1        1.050   2.003   0.758  0.00  0.00    +0.050 A 
ATOM      8  C   LIG    1       -0.137   1.297   0.769  0.00  0.00    +0.040 A 
ATOM      9  C   LIG    1       -1.219   1.749   0.036  0.00  0.00    +0.060 A 
ATOM     10  C   LIG    1       -1.119   2.914  -0.702  0.00  0.00    -0.160 A 
ATOM     11  C   LIG    1        0.065   3.625  -0.718  0.00  0.00    +0.040 A 
BRANCH  10  12
ATOM     12  C   LIG    1       -2.302   3.406  -1.496  0.00  0.00    +0.510 C 
ATOM     13  F   LIG    1       -2.259   4.801  -1.582  0.00  0.00    -0.180 F 
ATOM     14  F   LIG    1       -3.486   3.015  -0.860  0.00  0.00    -0.170 F 
ATOM     15  F   LIG    1       -2.262   2.858  -2.782  0.00  0.00    -0.170 F 
ENDBRANCH  10  12
ENDBRANCH   4   6
ENDBRANCH   1   3
BRANCH   1  16
ATOM     16  C   LIG    1        5.996   3.040   0.280  0.00  0.00    +0.290 C 
BRANCH  16  17
ATOM     17  N   LIG    1        7.247   3.796   0.383  0.00  0.00    -0.720 N 
ATOM     18  H   LIG    1        7.229   4.766   0.388  0.00  0.00    +0.400 HD
ATOM     19  C   LIG    1        8.423   3.143   0.470  0.00  0.00    +0.560 C 
ATOM     20  O   LIG    1        8.446   1.928   0.464  0.00  0.00    -0.510 OA
BRANCH  19  21
ATOM     21  C   LIG    1        9.686   3.906   0.574  0.00  0.00    -0.080 A 
ATOM     22  C   LIG    1        9.664   5.301   0.576  0.00  0.00    +0.060 A 
ATOM     23  C   LIG    1       10.845   6.007   0.679  0.00  0.00    +0.100 A 
ATOM     24  C   LIG    1       12.050   5.334   0.769  0.00  0.00    -0.020 A 
ATOM     25  C   LIG    1       12.080   3.951   0.761  0.00  0.00    +0.100 A 
ATOM     26  C   LIG    1       10.905   3.233   0.665  0.00  0.00    +0.100 A 
BRANCH  24  27
ATOM     27  N   LIG    1       13.314   6.097   0.873  0.00  0.00    +0.020 N 
ATOM     28  O   LIG    1       13.291   7.315   0.879  0.00  0.00    -0.150 OA
ATOM     29  O   LIG    1       14.377   5.508   0.952  0.00  0.00    -0.150 OA
ENDBRANCH  24  27
ENDBRANCH  19  21
ENDBRANCH  16  17
ENDBRANCH   1  16
TORSDOF 7
