REMARK  Name = ZINCvU00000009Gf.0
REMARK                            x       y       z     vdW  Elec       q    Type
REMARK                         _______ _______ _______ _____ _____    ______ ____
ROOT
ATOM      1  C   LIG    1       -0.014   1.212   0.009  0.00  0.00    +0.560 C 
ATOM      2  N   LIG    1        1.143   1.902   0.001  0.00  0.00    -0.720 N 
ATOM      3  H   LIG    1        1.130   2.872   0.007  0.00  0.00    +0.400 HD
ATOM      4  O   LIG    1        0.002  -0.004   0.002  0.00  0.00    -0.510 OA
ENDROOT
BRANCH   1  10
ATOM      5  C   LIG    1       -2.510   1.217   0.015  0.00  0.00    -0.050 A 
ATOM      6  C   LIG    1       -3.716   1.908   0.029  0.00  0.00    -0.020 A 
ATOM      7  C   LIG    1       -3.723   3.287   0.037  0.00  0.00    +0.060 A 
ATOM      8  C   LIG    1       -2.531   3.995   0.035  0.00  0.00    -0.010 A 
ATOM      9  C   LIG    1       -1.325   3.328   0.026  0.00  0.00    +0.070 A 
ATOM     10  C   LIG    1       -1.301   1.931   0.019  0.00  0.00    -0.130 A 
BRANCH   5  11
ATOM     11  S   LIG    1       -2.498  -0.545  -0.002  0.00  0.00    +0.020 S 
BRANCH  11  12
ATOM     12  C   LIG    1       -4.263  -0.965  -0.002  0.00  0.00    +0.120 C 
BRANCH  12  19
ATOM     13  C   LIG    1       -4.493  -2.910  -2.588  0.00  0.00    +0.160 C 
ATOM     14  C   LIG    1       -4.524  -3.317  -1.137  0.00  0.00    +0.040 A 
ATOM     15  N   LIG    1       -4.647  -4.526  -0.669  0.00  0.00    -0.360 NA
ATOM     16  O   LIG    1       -4.644  -4.537   0.540  0.00  0.00    +0.100 OA
ATOM     17  C   LIG    1       -4.509  -3.302   1.044  0.00  0.00    -0.010 A 
ATOM     18  C   LIG    1       -4.463  -2.923   2.502  0.00  0.00    +0.190 C 
ATOM     19  C   LIG    1       -4.423  -2.463  -0.015  0.00  0.00    -0.190 A 
ENDBRANCH  12  19
ENDBRANCH  11  12
ENDBRANCH   5  11
ENDBRANCH   1  10
BRANCH   2  20
ATOM     20  C   LIG    1        2.422   1.187  -0.015  0.00  0.00    +0.290 C 
ATOM     21  C   LIG    1        2.819   0.820   1.417  0.00  0.00    +0.040 C 
BRANCH  20  22
ATOM     22  C   LIG    1        3.483   2.068  -0.621  0.00  0.00    -0.100 A 
ATOM     23  C   LIG    1        3.510   3.419  -0.324  0.00  0.00    +0.040 A 
ATOM     24  C   LIG    1        4.485   4.229  -0.874  0.00  0.00    +0.000 A 
ATOM     25  C   LIG    1        5.431   3.687  -1.733  0.00  0.00    +0.140 A 
ATOM     26  C   LIG    1        5.399   2.332  -2.033  0.00  0.00    +0.010 A 
ATOM     27  C   LIG    1        4.425   1.526  -1.476  0.00  0.00    +0.060 A 
BRANCH  25  28
ATOM     28  N   LIG    1        6.419   4.508  -2.297  0.00  0.00    -0.410 N 
ATOM     29  C   LIG    1        6.571   5.856  -2.097  0.00  0.00    +0.120 A 
ATOM     30  C   LIG    1        7.640   6.239  -2.820  0.00  0.00    +0.160 A 
ATOM     31  N   LIG    1        8.126   5.162  -3.454  0.00  0.00    -0.480 NA
ATOM     32  C   LIG    1        7.403   4.118  -3.148  0.00  0.00    +0.400 A 
ENDBRANCH  25  28
ENDBRANCH  20  22
ENDBRANCH   2  20
TORSDOF 7
