REMARK  Name = ZINCrg00000AoZei.0
REMARK                            x       y       z     vdW  Elec       q    Type
REMARK                         _______ _______ _______ _____ _____    ______ ____
ROOT
ATOM      1  C   LIG    1       -5.903   3.230   0.044  0.00  0.00    +0.250 C 
ENDROOT
BRANCH   1   2
ATOM      2  C   LIG    1       -7.361   2.785   0.174  0.00  0.00    -0.070 C 
ATOM      3  C   LIG    1       -7.728   1.889  -1.011  0.00  0.00    +0.030 C 
ATOM      4  C   LIG    1       -8.271   4.015   0.184  0.00  0.00    +0.030 C 
ATOM      5  C   LIG    1       -7.543   2.006   1.478  0.00  0.00    +0.020 C 
ENDBRANCH   1   2
BRANCH   1   6
ATOM      6  N   LIG    1       -5.551   4.087   1.179  0.00  0.00    -0.730 N 
ATOM      7  H   LIG    1       -5.123   3.706   1.961  0.00  0.00    +0.400 HD
ATOM      8  C   LIG    1       -5.823   5.407   1.135  0.00  0.00    +0.520 C 
ATOM      9  O   LIG    1       -6.358   5.884   0.157  0.00  0.00    -0.510 OA
BRANCH   8  10
ATOM     10  C   LIG    1       -5.461   6.289   2.302  0.00  0.00    +0.190 C 
BRANCH  10  11
ATOM     11  N   LIG    1       -5.857   7.673   2.011  0.00  0.00    -0.480 NA
ATOM     12  C   LIG    1       -7.336   7.815   2.010  0.00  0.00    +0.180 C 
ATOM     13  C   LIG    1       -7.583   9.322   2.236  0.00  0.00    +0.010 C 
ATOM     14  C   LIG    1       -6.311   9.835   2.942  0.00  0.00    +0.130 C 
ATOM     15  C   LIG    1       -6.660  10.401   4.321  0.00  0.00    +0.020 C 
ATOM     16  C   LIG    1       -5.403   8.594   3.084  0.00  0.00    +0.190 C 
BRANCH  14  17
ATOM     17  O   LIG    1       -5.668  10.832   2.146  0.00  0.00    -0.550 OA
ATOM     18  H   LIG    1       -6.210  11.617   1.985  0.00  0.00    +0.380 HD
ENDBRANCH  14  17
ENDBRANCH  10  11
ENDBRANCH   8  10
ENDBRANCH   1   6
BRANCH   1  19
ATOM     19  C   LIG    1       -4.993   1.999   0.034  0.00  0.00    +0.280 C 
BRANCH  19  21
ATOM     20  C   LIG    1       -2.607   1.508   0.021  0.00  0.00    +0.590 C 
ATOM     21  N   LIG    1       -3.592   2.428   0.030  0.00  0.00    -0.730 N 
ATOM     22  H   LIG    1       -3.374   3.373   0.034  0.00  0.00    +0.400 HD
ATOM     23  O   LIG    1       -2.880   0.323   0.016  0.00  0.00    -0.540 OA
BRANCH  20  27
ATOM     24  C   LIG    1        2.495   1.461  -0.013  0.00  0.00    +0.120 C 
ATOM     25  C   LIG    1        1.053   1.897   0.002  0.00  0.00    +0.010 A 
ATOM     26  C   LIG    1       -0.013   1.076   0.008  0.00  0.00    +0.010 A 
ATOM     27  C   LIG    1       -1.198   1.939   0.018  0.00  0.00    -0.230 A 
ATOM     28  C   LIG    1       -0.732   3.225   0.025  0.00  0.00    +0.220 A 
ATOM     29  N   LIG    1        0.614   3.189   0.013  0.00  0.00    -0.440 N 
ATOM     30  C   LIG    1        1.483   4.368   0.010  0.00  0.00    +0.320 C 
ENDBRANCH  20  27
ENDBRANCH  19  21
ENDBRANCH   1  19
TORSDOF 8
