REMARK  Name = ZINCpk00000eb0GE.0
REMARK                            x       y       z     vdW  Elec       q    Type
REMARK                         _______ _______ _______ _____ _____    ______ ____
ROOT
ATOM      1  C   LIG    1       -1.576   2.271  -3.702  0.00  0.00    +0.250 C 
ENDROOT
BRANCH   1   2
ATOM      2  N   LIG    1       -0.988   2.087  -5.035  0.00  0.00    -0.540 NA
ATOM      3  C   LIG    1        0.378   2.638  -5.091  0.00  0.00    +0.310 C 
ATOM      4  C   LIG    1        0.654   2.999  -6.542  0.00  0.00    +0.210 A 
ATOM      5  N   LIG    1        0.860   4.188  -7.027  0.00  0.00    -0.480 NA
ATOM      6  C   LIG    1        1.061   4.091  -8.353  0.00  0.00    +0.140 A 
ATOM      7  C   LIG    1        0.975   2.787  -8.695  0.00  0.00    +0.120 A 
ATOM      8  N   LIG    1        0.720   2.104  -7.545  0.00  0.00    -0.450 N 
ATOM      9  C   LIG    1        0.542   0.648  -7.380  0.00  0.00    +0.310 C 
ATOM     10  C   LIG    1       -0.907   0.422  -6.921  0.00  0.00    +0.000 C 
ATOM     11  C   LIG    1       -1.052   0.699  -5.444  0.00  0.00    +0.180 C 
BRANCH  10  12
ATOM     12  C   LIG    1       -1.304  -1.028  -7.202  0.00  0.00    +0.190 C 
BRANCH  12  13
ATOM     13  O   LIG    1       -1.281  -1.263  -8.612  0.00  0.00    -0.570 OA
ATOM     14  H   LIG    1       -1.523  -2.165  -8.864  0.00  0.00    +0.390 HD
ENDBRANCH  12  13
ENDBRANCH  10  12
ENDBRANCH   1   2
BRANCH   1  15
ATOM     15  C   LIG    1       -0.720   1.543  -2.663  0.00  0.00    +0.000 C 
BRANCH  15  16
ATOM     16  C   LIG    1       -1.329   1.739  -1.273  0.00  0.00    -0.320 C 
BRANCH  16  17
ATOM     17  S   LIG    1       -0.315   0.876  -0.041  0.00  0.00    +2.490 S 
ATOM     18  O   LIG    1        0.948   1.512   0.098  0.00  0.00    -0.930 OA
ATOM     19  O   LIG    1       -0.412  -0.531  -0.212  0.00  0.00    -0.940 OA
BRANCH  17  24
ATOM     20  C   LIG    1       -3.097   1.934   5.208  0.00  0.00    +0.090 C 
ATOM     21  C   LIG    1       -2.402   1.670   3.897  0.00  0.00    -0.030 A 
ATOM     22  C   LIG    1       -2.741   0.560   3.146  0.00  0.00    -0.010 A 
ATOM     23  C   LIG    1       -2.104   0.318   1.943  0.00  0.00    +0.120 A 
ATOM     24  C   LIG    1       -1.127   1.185   1.492  0.00  0.00    -0.670 A 
ATOM     25  C   LIG    1       -0.784   2.292   2.245  0.00  0.00    +0.120 A 
ATOM     26  C   LIG    1       -1.424   2.537   3.446  0.00  0.00    -0.010 A 
ENDBRANCH  17  24
ENDBRANCH  16  17
ENDBRANCH  15  16
ENDBRANCH   1  15
TORSDOF 7
