REMARK  Name = ZINCrD00000F5LAI.0
REMARK                            x       y       z     vdW  Elec       q    Type
REMARK                         _______ _______ _______ _____ _____    ______ ____
ROOT
ATOM      1  C   LIG    1        6.014  -0.641  -0.266  0.00  0.00    -0.010 C 
ATOM      2  C   LIG    1        7.172   0.054  -0.376  0.00  0.00    +0.170 C 
ENDROOT
BRANCH   2   3
ATOM      3  C   LIG    1        8.404  -0.636  -0.498  0.00  0.00    +0.230 A 
ATOM      4  N   LIG    1        8.570  -1.950  -0.519  0.00  0.00    -0.230 NA
ATOM      5  N   LIG    1        9.820  -2.231  -0.641  0.00  0.00    -0.250 NA
ATOM      6  C   LIG    1       10.526  -1.114  -0.705  0.00  0.00    +0.180 A 
ATOM      7  C   LIG    1       11.955  -0.828  -0.841  0.00  0.00    +0.010 A 
ATOM      8  C   LIG    1       12.364   0.527  -0.875  0.00  0.00    -0.110 A 
ATOM      9  C   LIG    1       11.347   1.571  -0.773  0.00  0.00    +0.400 A 
ATOM     10  N   LIG    1       10.091   1.254  -0.652  0.00  0.00    -0.260 NA
ATOM     11  C   LIG    1       13.722   0.831  -1.006  0.00  0.00    +0.080 A 
ATOM     12  C   LIG    1       14.633  -0.183  -1.099  0.00  0.00    +0.030 A 
ATOM     13  C   LIG    1       14.230  -1.512  -1.065  0.00  0.00    +0.060 A 
ATOM     14  C   LIG    1       12.909  -1.841  -0.938  0.00  0.00    +0.070 A 
ATOM     15  N   LIG    1        9.649  -0.068  -0.622  0.00  0.00    -0.310 N 
ENDBRANCH   2   3
BRANCH   1  18
ATOM     16  N   LIG    1        3.631  -0.643  -0.035  0.00  0.00    -0.650 N 
ATOM     17  H   LIG    1        3.651  -1.609   0.040  0.00  0.00    +0.420 HD
ATOM     18  C   LIG    1        4.783   0.049  -0.144  0.00  0.00    +0.550 C 
ATOM     19  O   LIG    1        4.765   1.266  -0.138  0.00  0.00    -0.520 OA
BRANCH  16  25
ATOM     20  C   LIG    1        1.291  -0.540   0.575  0.00  0.00    +0.100 A 
ATOM     21  C   LIG    1        0.081   0.135   0.576  0.00  0.00    -0.060 A 
ATOM     22  C   LIG    1       -0.018   1.377  -0.024  0.00  0.00    +0.030 A 
ATOM     23  C   LIG    1        1.087   1.948  -0.626  0.00  0.00    -0.010 A 
ATOM     24  C   LIG    1        2.298   1.281  -0.632  0.00  0.00    +0.060 A 
ATOM     25  C   LIG    1        2.405   0.035  -0.032  0.00  0.00    +0.120 A 
BRANCH  20  26
ATOM     26  O   LIG    1        1.390  -1.762   1.165  0.00  0.00    -0.320 OA
BRANCH  26  28
ATOM     27  C   LIG    1        0.511  -3.660   2.375  0.00  0.00    +0.070 C 
ATOM     28  C   LIG    1        0.207  -2.289   1.768  0.00  0.00    +0.180 C 
ENDBRANCH  26  28
ENDBRANCH  20  26
ENDBRANCH  16  25
ENDBRANCH   1  18
TORSDOF 5
