REMARK  Name = ZINCrg000000rU2X.0
REMARK                            x       y       z     vdW  Elec       q    Type
REMARK                         _______ _______ _______ _____ _____    ______ ____
ROOT
ATOM      1  C   LIG    1        0.699  -3.256  -0.023  0.00  0.00    +0.600 C 
ATOM      2  N   LIG    1        0.293  -3.793   1.145  0.00  0.00    -0.610 N 
ATOM      3  C   LIG    1        0.755  -3.236   2.424  0.00  0.00    +0.280 C 
ATOM      4  C   LIG    1       -0.478  -2.879   3.272  0.00  0.00    +0.270 C 
ATOM      5  N   LIG    1       -1.385  -4.035   3.289  0.00  0.00    -0.620 N 
ATOM      6  C   LIG    1       -1.842  -4.596   2.009  0.00  0.00    +0.280 C 
ATOM      7  C   LIG    1       -1.790  -4.572   4.457  0.00  0.00    +0.520 C 
ATOM      8  O   LIG    1       -2.539  -5.526   4.458  0.00  0.00    -0.520 OA
ATOM      9  C   LIG    1       -0.614  -4.949   1.162  0.00  0.00    +0.290 C 
ATOM     10  O   LIG    1        0.314  -3.729  -1.076  0.00  0.00    -0.530 OA
ENDROOT
BRANCH   1  13
ATOM     11  C   LIG    1        3.806  -3.385  -0.052  0.00  0.00    +0.160 C 
ATOM     12  C   LIG    1        2.969  -2.132  -0.038  0.00  0.00    +0.140 A 
ATOM     13  C   LIG    1        1.606  -2.100  -0.025  0.00  0.00    -0.230 A 
ATOM     14  C   LIG    1        1.221  -0.677  -0.013  0.00  0.00    -0.070 A 
ATOM     15  C   LIG    1        0.002  -0.004   0.002  0.00  0.00    +0.040 A 
ATOM     16  C   LIG    1       -0.017   1.374   0.010  0.00  0.00    +0.000 A 
ATOM     17  C   LIG    1        1.171   2.090   0.002  0.00  0.00    +0.030 A 
ATOM     18  C   LIG    1        2.385   1.437  -0.013  0.00  0.00    +0.000 A 
ATOM     19  C   LIG    1        2.425   0.047  -0.021  0.00  0.00    +0.090 A 
ATOM     20  N   LIG    1        3.457  -0.868  -0.035  0.00  0.00    -0.580 N 
ATOM     21  H   LIG    1        4.400  -0.639  -0.043  0.00  0.00    +0.420 HD
ENDBRANCH   1  13
BRANCH   7  22
ATOM     22  C   LIG    1       -1.313  -3.987   5.761  0.00  0.00    +0.220 C 
BRANCH  22  23
ATOM     23  N   LIG    1       -1.893  -4.744   6.878  0.00  0.00    -0.520 NA
ATOM     24  C   LIG    1       -3.351  -4.566   6.936  0.00  0.00    +0.150 C 
ATOM     25  C   LIG    1       -3.919  -5.417   8.074  0.00  0.00    +0.230 C 
ATOM     26  O   LIG    1       -3.281  -5.051   9.301  0.00  0.00    -0.390 OA
ATOM     27  C   LIG    1       -1.860  -5.213   9.280  0.00  0.00    +0.220 C 
ATOM     28  C   LIG    1       -1.271  -4.360   8.154  0.00  0.00    +0.160 C 
ENDBRANCH  22  23
ENDBRANCH   7  22
TORSDOF 3
