REMARK  Name = ZINCrH00000No56u.0
REMARK                            x       y       z     vdW  Elec       q    Type
REMARK                         _______ _______ _______ _____ _____    ______ ____
ROOT
ATOM      1  C   LIG    1        0.198   1.639   0.526  0.00  0.00    -0.220 A 
ATOM      2  C   LIG    1        1.362   2.417   0.509  0.00  0.00    +0.100 A 
ATOM      3  C   LIG    1        1.264   3.784   0.411  0.00  0.00    +0.000 A 
ATOM      4  C   LIG    1        0.023   4.409   0.329  0.00  0.00    -0.050 A 
ATOM      5  C   LIG    1        0.003   5.915   0.250  0.00  0.00    +0.340 C 
ATOM      6  N   LIG    1       -1.347   6.375  -0.092  0.00  0.00    -0.610 N 
ATOM      7  C   LIG    1       -2.475   5.746   0.615  0.00  0.00    +0.290 C 
ATOM      8  C   LIG    1       -2.504   4.268   0.230  0.00  0.00    +0.090 C 
ATOM      9  C   LIG    1       -1.547   7.335  -1.017  0.00  0.00    +0.560 C 
ATOM     10  O   LIG    1       -2.674   7.697  -1.281  0.00  0.00    -0.530 OA
ATOM     11  C   LIG    1       -1.131   3.658   0.336  0.00  0.00    -0.110 A 
ATOM     12  C   LIG    1       -1.050   2.270   0.433  0.00  0.00    +0.160 A 
ENDROOT
BRANCH   9  13
ATOM     13  C   LIG    1       -0.371   7.959  -1.722  0.00  0.00    -0.040 C 
ATOM     14  C   LIG    1       -0.572   9.344  -2.344  0.00  0.00    +0.100 C 
ATOM     15  C   LIG    1        0.266   9.185  -1.080  0.00  0.00    -0.070 C 
ATOM     16  C   LIG    1       -0.227   9.719   0.276  0.00  0.00    +0.080 C 
ATOM     17  C   LIG    1        1.029   9.568   1.163  0.00  0.00    +0.080 C 
ATOM     18  C   LIG    1        2.201   9.618   0.205  0.00  0.00    -0.080 A 
ATOM     19  C   LIG    1        3.546   9.840   0.446  0.00  0.00    +0.050 A 
ATOM     20  C   LIG    1        4.450   9.840  -0.600  0.00  0.00    -0.090 A 
ATOM     21  C   LIG    1        4.009   9.617  -1.892  0.00  0.00    +0.050 A 
ATOM     22  C   LIG    1        2.667   9.396  -2.134  0.00  0.00    +0.030 A 
ATOM     23 BR   LIG    1        6.285  10.145  -0.265  0.00  0.00    -0.040 Br
ATOM     24  C   LIG    1        1.760   9.396  -1.088  0.00  0.00    -0.050 A 
ENDBRANCH   9  13
BRANCH   1  26
ATOM     25  O   LIG    1        1.368  -0.362   0.708  0.00  0.00    -0.460 OA
ATOM     26  C   LIG    1        0.284   0.178   0.633  0.00  0.00    +0.490 C 
ENDBRANCH   1  26
BRANCH  12  27
ATOM     27  O   LIG    1       -2.184   1.527   0.444  0.00  0.00    -0.490 OA
ATOM     28  H   LIG    1       -2.546   1.375   1.328  0.00  0.00    +0.400 HD
ENDBRANCH  12  27
TORSDOF 3
