REMARK  Name = ZINCrD000000CQg4.0
REMARK                            x       y       z     vdW  Elec       q    Type
REMARK                         _______ _______ _______ _____ _____    ______ ____
ROOT
ATOM      1  C   LIG    1       -1.187   1.624   0.017  0.00  0.00    +0.510 C 
ATOM      2  N   LIG    1       -0.011   0.966   0.007  0.00  0.00    -0.620 N 
ATOM      3  H   LIG    1        0.002  -0.004   0.002  0.00  0.00    +0.420 HD
ATOM      4  O   LIG    1       -1.204   2.837   0.023  0.00  0.00    -0.480 OA
ENDROOT
BRANCH   1   8
ATOM      5  O   LIG    1       -2.260   0.535  -3.502  0.00  0.00    -0.510 OA
ATOM      6  C   LIG    1       -2.775   0.841  -2.448  0.00  0.00    +0.520 C 
ATOM      7  C   LIG    1       -2.557  -0.021  -1.234  0.00  0.00    +0.110 C 
ATOM      8  C   LIG    1       -2.482   0.853   0.018  0.00  0.00    +0.090 C 
ATOM      9  C   LIG    1       -3.640   1.816   0.030  0.00  0.00    -0.130 A 
ATOM     10  C   LIG    1       -4.219   2.191   1.226  0.00  0.00    +0.110 A 
ATOM     11  C   LIG    1       -5.282   3.076   1.234  0.00  0.00    -0.030 A 
ATOM     12  C   LIG    1       -5.768   3.589   0.043  0.00  0.00    +0.140 A 
ATOM     13  C   LIG    1       -5.191   3.217  -1.158  0.00  0.00    -0.050 A 
ATOM     14  F   LIG    1       -6.805   4.454   0.054  0.00  0.00    -0.130 F 
ATOM     15  C   LIG    1       -4.125   2.328  -1.167  0.00  0.00    +0.210 A 
ATOM     16  N   LIG    1       -3.537   1.949  -2.377  0.00  0.00    -0.660 N 
ATOM     17  H   LIG    1       -3.679   2.487  -3.172  0.00  0.00    +0.420 HD
ENDBRANCH   1   8
BRANCH   2  18
ATOM     18  C   LIG    1        1.183   1.677  -0.000  0.00  0.00    +0.240 A 
ATOM     19  N   LIG    1        2.365   1.144  -0.009  0.00  0.00    -0.490 NA
ATOM     20  C   LIG    1        3.393   1.971  -0.020  0.00  0.00    +0.110 A 
ATOM     21  C   LIG    1        3.065   3.265  -0.009  0.00  0.00    -0.140 A 
ATOM     22  S   LIG    1        1.307   3.382   0.008  0.00  0.00    +0.240 S 
BRANCH  20  23
ATOM     23  C   LIG    1        4.822   1.494  -0.037  0.00  0.00    +0.270 C 
BRANCH  23  24
ATOM     24  N   LIG    1        5.262   1.216   1.337  0.00  0.00    -0.530 NA
ATOM     25  C   LIG    1        5.309   2.449   2.134  0.00  0.00    +0.160 C 
ATOM     26  C   LIG    1        5.628   2.105   3.590  0.00  0.00    +0.020 C 
ATOM     27  C   LIG    1        6.976   1.381   3.655  0.00  0.00    +0.000 C 
ATOM     28  C   LIG    1        6.916   0.127   2.779  0.00  0.00    +0.020 C 
ATOM     29  C   LIG    1        6.559   0.528   1.346  0.00  0.00    +0.170 C 
ENDBRANCH  23  24
ENDBRANCH  20  23
ENDBRANCH   2  18
TORSDOF 4
