REMARK  Name = ZINCpe000000XnlI.0
REMARK                            x       y       z     vdW  Elec       q    Type
REMARK                         _______ _______ _______ _____ _____    ______ ____
ROOT
ATOM      1  N   LIG    1        6.650   2.408   1.622  0.00  0.00    -0.720 N 
ATOM      2  H   LIG    1        7.270   2.342   0.879  0.00  0.00    +0.410 HD
ATOM      3  C   LIG    1        5.331   2.557   1.388  0.00  0.00    +0.500 C 
ATOM      4  O   LIG    1        4.556   2.641   2.318  0.00  0.00    -0.530 OA
ENDROOT
BRANCH   1   5
ATOM      5  C   LIG    1        7.147   2.347   2.999  0.00  0.00    +0.280 C 
BRANCH   5   6
ATOM      6  C   LIG    1        8.668   2.176   2.985  0.00  0.00    +0.180 C 
BRANCH   6   7
ATOM      7  O   LIG    1        9.272   3.339   2.416  0.00  0.00    -0.370 OA
BRANCH   7  14
ATOM      8  C   LIG    1       10.603   3.518  -0.131  0.00  0.00    +0.020 C 
ATOM      9  C   LIG    1       11.192   4.097   1.158  0.00  0.00    -0.010 C 
ATOM     10  C   LIG    1       10.746   5.553   1.313  0.00  0.00    +0.020 C 
ATOM     11  C   LIG    1       11.334   6.131   2.601  0.00  0.00    +0.000 C 
ATOM     12  C   LIG    1       10.842   5.316   3.799  0.00  0.00    +0.020 C 
ATOM     13  C   LIG    1       11.288   3.861   3.643  0.00  0.00    -0.010 C 
ATOM     14  C   LIG    1       10.699   3.282   2.355  0.00  0.00    +0.160 C 
ENDBRANCH   7  14
ENDBRANCH   6   7
ENDBRANCH   5   6
ENDBRANCH   1   5
BRANCH   3  15
ATOM     15  C   LIG    1        4.819   2.620  -0.028  0.00  0.00    +0.340 C 
BRANCH  15  16
ATOM     16  N   LIG    1        3.364   2.784  -0.014  0.00  0.00    -0.530 N 
ATOM     17  C   LIG    1        2.824   4.029  -0.003  0.00  0.00    +0.640 A 
ATOM     18  N   LIG    1        1.541   4.245   0.009  0.00  0.00    -0.530 NA
ATOM     19  C   LIG    1        0.652   3.240   0.012  0.00  0.00    +0.330 A 
ATOM     20  C   LIG    1        1.117   1.915   0.002  0.00  0.00    -0.340 A 
ATOM     21  C   LIG    1       -0.013   1.076   0.008  0.00  0.00    +0.330 A 
ATOM     22  N   LIG    1       -1.080   1.825   0.017  0.00  0.00    -0.270 NA
ATOM     23  N   LIG    1       -0.705   3.174   0.025  0.00  0.00    -0.350 N 
ATOM     24  C   LIG    1       -1.619   4.319   0.038  0.00  0.00    +0.360 C 
ATOM     25  C   LIG    1        2.563   1.692  -0.012  0.00  0.00    +0.580 A 
ATOM     26  O   LIG    1        3.029   0.567  -0.022  0.00  0.00    -0.510 OA
ENDBRANCH  15  16
ENDBRANCH   3  15
TORSDOF 6
