REMARK  Name = ZINCrH00000lkqGD.0
REMARK                            x       y       z     vdW  Elec       q    Type
REMARK                         _______ _______ _______ _____ _____    ______ ____
ROOT
ATOM      1  N   LIG    1        2.394   1.758  -0.010  0.00  0.00    -0.660 N 
ATOM      2  H   LIG    1        2.410   0.791   0.066  0.00  0.00    +0.410 HD
ATOM      3  C   LIG    1        3.550   2.444  -0.119  0.00  0.00    +0.560 C 
ATOM      4  O   LIG    1        3.538   3.659  -0.114  0.00  0.00    -0.510 OA
ENDROOT
BRANCH   1   8
ATOM      5  C   LIG    1       -1.250   3.790   0.003  0.00  0.00    +0.100 A 
ATOM      6  C   LIG    1       -1.150   2.543   0.598  0.00  0.00    +0.010 A 
ATOM      7  C   LIG    1        0.059   1.871   0.599  0.00  0.00    -0.070 A 
ATOM      8  C   LIG    1        1.172   2.441  -0.007  0.00  0.00    +0.170 A 
ATOM      9  C   LIG    1        1.072   3.688  -0.609  0.00  0.00    -0.010 A 
ATOM     10 CL   LIG    1        0.184   0.312   1.351  0.00  0.00    -0.060 Cl
ATOM     11  C   LIG    1       -0.137   4.363  -0.605  0.00  0.00    +0.130 A 
BRANCH   5  13
ATOM     12  C   LIG    1       -3.540   3.805   0.650  0.00  0.00    +0.240 C 
ATOM     13  O   LIG    1       -2.439   4.452   0.008  0.00  0.00    -0.300 OA
ENDBRANCH   5  13
BRANCH  11  14
ATOM     14  O   LIG    1       -0.237   5.585  -1.194  0.00  0.00    -0.300 OA
ATOM     15  C   LIG    1        0.946   6.112  -1.799  0.00  0.00    +0.240 C 
ENDBRANCH  11  14
ENDBRANCH   1   8
BRANCH   3  16
ATOM     16  C   LIG    1        4.831   1.718  -0.246  0.00  0.00    -0.140 A 
ATOM     17  C   LIG    1        4.849   0.322  -0.247  0.00  0.00    +0.050 A 
ATOM     18  C   LIG    1        6.048  -0.349  -0.372  0.00  0.00    +0.000 A 
ATOM     19  C   LIG    1        7.232   0.358  -0.483  0.00  0.00    +0.060 A 
ATOM     20  C   LIG    1        7.221   1.742  -0.477  0.00  0.00    -0.120 A 
ATOM     21  C   LIG    1        6.029   2.425  -0.359  0.00  0.00    +0.110 A 
BRANCH  20  22
ATOM     22  C   LIG    1        8.516   2.504  -0.600  0.00  0.00    +0.350 C 
BRANCH  22  23
ATOM     23  N   LIG    1        9.069   2.746   0.735  0.00  0.00    -0.620 N 
ATOM     24  C   LIG    1        9.990   1.837   1.427  0.00  0.00    +0.250 C 
ATOM     25  C   LIG    1        9.950   2.261   2.912  0.00  0.00    +0.040 C 
ATOM     26  C   LIG    1        9.529   3.745   2.805  0.00  0.00    +0.050 C 
ATOM     27  C   LIG    1        8.801   3.831   1.481  0.00  0.00    +0.520 C 
ATOM     28  O   LIG    1        8.079   4.746   1.144  0.00  0.00    -0.520 OA
ENDBRANCH  22  23
ENDBRANCH  20  22
ENDBRANCH   3  16
TORSDOF 6
