REMARK  Name = ZINCrD00000hQ6eu.0
REMARK                            x       y       z     vdW  Elec       q    Type
REMARK                         _______ _______ _______ _____ _____    ______ ____
ROOT
ATOM      1  N   LIG    1        4.479   0.771  -0.037  0.00  0.00    -0.380 N 
ATOM      2  C   LIG    1        3.796  -0.410  -0.036  0.00  0.00    +0.340 A 
ATOM      3  C   LIG    1        2.471  -0.151  -0.016  0.00  0.00    -0.110 A 
ATOM      4  C   LIG    1        2.295   1.250  -0.013  0.00  0.00    +0.500 A 
ATOM      5  N   LIG    1        1.135   1.899   0.001  0.00  0.00    -0.690 NA
ATOM      6  N   LIG    1        3.547   1.818  -0.022  0.00  0.00    -0.480 N 
ATOM      7  H   LIG    1        3.748   2.767  -0.019  0.00  0.00    +0.450 HD
ENDROOT
BRANCH   5   8
ATOM      8  C   LIG    1       -0.014   1.214   0.009  0.00  0.00    +0.690 C 
ATOM      9  N   LIG    1       -1.191   1.872   0.018  0.00  0.00    -0.600 N 
ATOM     10  C   LIG    1       -1.244   3.340   0.039  0.00  0.00    +0.270 C 
ATOM     11  C   LIG    1       -2.123   3.829  -1.115  0.00  0.00    +0.120 C 
ATOM     12  O   LIG    1       -3.292   3.058  -1.267  0.00  0.00    -0.380 OA
ATOM     13  C   LIG    1       -3.336   1.657  -1.135  0.00  0.00    +0.120 C 
ATOM     14  C   LIG    1       -4.794   1.240  -0.847  0.00  0.00    +0.060 C 
ATOM     15  C   LIG    1       -2.907   0.963  -2.434  0.00  0.00    +0.020 C 
ATOM     16  C   LIG    1       -2.534   5.284  -0.808  0.00  0.00    +0.060 C 
ATOM     17  C   LIG    1       -1.298   3.847  -2.408  0.00  0.00    +0.010 C 
ATOM     18  C   LIG    1       -2.469   1.149   0.020  0.00  0.00    +0.270 C 
ATOM     19  O   LIG    1        0.002  -0.004   0.002  0.00  0.00    -0.620 OA
ENDBRANCH   5   8
BRANCH   1  20
ATOM     20  C   LIG    1        5.936   0.919  -0.050  0.00  0.00    +0.400 C 
BRANCH  20  24
ATOM     21  C   LIG    1        7.428   0.694   3.948  0.00  0.00    +0.140 A 
ATOM     22  C   LIG    1        7.306  -0.459   3.186  0.00  0.00    -0.010 A 
ATOM     23  C   LIG    1        6.823  -0.383   1.894  0.00  0.00    +0.080 A 
ATOM     24  C   LIG    1        6.462   0.840   1.360  0.00  0.00    -0.170 A 
ATOM     25  C   LIG    1        6.589   1.991   2.115  0.00  0.00    +0.070 A 
ATOM     26  C   LIG    1        7.065   1.920   3.410  0.00  0.00    -0.080 A 
BRANCH  21  28
ATOM     27  C   LIG    1        8.001   1.849   5.945  0.00  0.00    +0.240 C 
ATOM     28  O   LIG    1        7.902   0.622   5.220  0.00  0.00    -0.310 OA
ENDBRANCH  21  28
ENDBRANCH  20  24
ENDBRANCH   1  20
TORSDOF 4
