REMARK  Name = ZINCqH0000036URj.0
REMARK                            x       y       z     vdW  Elec       q    Type
REMARK                         _______ _______ _______ _____ _____    ______ ____
ROOT
ATOM      1  C   LIG    1        1.183   1.792   0.016  0.00  0.00    +0.030 A 
ATOM      2  C   LIG    1       -0.002   1.092  -0.156  0.00  0.00    +0.030 A 
ATOM      3  C   LIG    1       -1.209   1.765  -0.151  0.00  0.00    -0.020 A 
ATOM      4  C   LIG    1       -1.237   3.140   0.035  0.00  0.00    +0.180 A 
ATOM      5  C   LIG    1       -0.051   3.842   0.207  0.00  0.00    -0.010 A 
ATOM      6  C   LIG    1        1.157   3.171   0.197  0.00  0.00    +0.150 A 
ATOM      7  F   LIG    1        2.311   3.853   0.364  0.00  0.00    -0.120 F 
ENDROOT
BRANCH   1  11
ATOM      8  C   LIG    1        3.865  -1.676   2.127  0.00  0.00    +0.050 C 
ATOM      9  C   LIG    1        3.832  -0.573   1.067  0.00  0.00    +0.160 C 
ATOM     10  C   LIG    1        2.459   0.105   1.077  0.00  0.00    +0.170 C 
ATOM     11  N   LIG    1        2.407   1.111   0.005  0.00  0.00    -0.490 N 
ATOM     12  C   LIG    1        2.653   0.490  -1.304  0.00  0.00    +0.170 C 
ATOM     13  C   LIG    1        4.024  -0.192  -1.290  0.00  0.00    +0.200 C 
ATOM     14  C   LIG    1        5.115   0.860  -1.081  0.00  0.00    +0.020 C 
ATOM     15  O   LIG    1        4.067  -1.143  -0.224  0.00  0.00    -0.380 OA
ENDBRANCH   1  11
BRANCH   4  16
ATOM     16  N   LIG    1       -2.462   3.821   0.045  0.00  0.00    -0.670 N 
ATOM     17  H   LIG    1       -3.254   3.389   0.401  0.00  0.00    +0.420 HD
ATOM     18  C   LIG    1       -2.540   5.075  -0.442  0.00  0.00    +0.510 C 
ATOM     19  O   LIG    1       -1.574   5.580  -0.974  0.00  0.00    -0.490 OA
BRANCH  18  20
ATOM     20  C   LIG    1       -3.826   5.851  -0.324  0.00  0.00    +0.220 C 
BRANCH  20  21
ATOM     21  O   LIG    1       -3.659   7.144  -0.908  0.00  0.00    -0.360 OA
BRANCH  21  22
ATOM     22  C   LIG    1       -4.827   7.965  -0.849  0.00  0.00    +0.150 C 
ATOM     23  C   LIG    1       -5.674   7.737  -2.102  0.00  0.00    -0.010 C 
ATOM     24  C   LIG    1       -6.925   8.616  -2.039  0.00  0.00    +0.010 C 
ATOM     25  C   LIG    1       -6.511  10.087  -1.963  0.00  0.00    +0.020 C 
ATOM     26  C   LIG    1       -5.664  10.315  -0.710  0.00  0.00    +0.010 C 
ATOM     27  C   LIG    1       -4.413   9.436  -0.773  0.00  0.00    +0.020 C 
ENDBRANCH  21  22
ENDBRANCH  20  21
ENDBRANCH  18  20
ENDBRANCH   4  16
TORSDOF 5
