REMARK  Name = ZINCrH00000No4v4.0
REMARK                            x       y       z     vdW  Elec       q    Type
REMARK                         _______ _______ _______ _____ _____    ______ ____
ROOT
ATOM      1  C   LIG    1       -3.698   3.520   0.039  0.00  0.00    -0.100 A 
ATOM      2  C   LIG    1       -3.360   2.743  -1.054  0.00  0.00    +0.030 A 
ATOM      3  C   LIG    1       -2.166   2.052  -1.071  0.00  0.00    +0.030 A 
ATOM      4  C   LIG    1       -1.298   2.138   0.020  0.00  0.00    -0.060 A 
ATOM      5  C   LIG    1       -1.648   2.919   1.122  0.00  0.00    +0.040 A 
ATOM      6  C   LIG    1       -2.842   3.610   1.123  0.00  0.00    +0.030 A 
ENDROOT
BRANCH   4   7
ATOM      7  C   LIG    1       -0.017   1.399   0.010  0.00  0.00    +0.110 A 
ATOM      8  C   LIG    1        1.208   2.087   0.002  0.00  0.00    -0.150 A 
ATOM      9  C   LIG    1        1.585   3.446   0.006  0.00  0.00    -0.110 A 
ATOM     10  C   LIG    1        2.945   3.466  -0.007  0.00  0.00    +0.220 A 
ATOM     11  N   LIG    1        3.415   2.218  -0.019  0.00  0.00    -0.540 NA
ATOM     12  C   LIG    1        2.420   1.346  -0.014  0.00  0.00    +0.250 A 
ATOM     13  N   LIG    1        2.364  -0.027  -0.021  0.00  0.00    -0.500 N 
ATOM     14  H   LIG    1        3.188  -0.538  -0.032  0.00  0.00    +0.420 HD
ATOM     15  C   LIG    1        1.184  -0.671  -0.013  0.00  0.00    +0.330 A 
ATOM     16  C   LIG    1        0.002  -0.004   0.002  0.00  0.00    -0.060 A 
ENDBRANCH   4   7
BRANCH   1  17
ATOM     17  C   LIG    1       -5.004   4.272   0.050  0.00  0.00    +0.320 C 
BRANCH  17  20
ATOM     18  O   LIG    1       -7.576   5.015   0.365  0.00  0.00    -0.530 OA
ATOM     19  C   LIG    1       -7.308   3.895   0.747  0.00  0.00    +0.510 C 
ATOM     20  N   LIG    1       -6.049   3.428   0.634  0.00  0.00    -0.730 N 
ATOM     21  H   LIG    1       -5.835   2.532   0.939  0.00  0.00    +0.400 HD
BRANCH  19  22
ATOM     22  C   LIG    1       -8.383   3.027   1.347  0.00  0.00    +0.100 C 
BRANCH  22  23
ATOM     23  C   LIG    1       -9.689   3.779   1.358  0.00  0.00    -0.080 A 
ATOM     24  C   LIG    1      -10.032   4.551   2.452  0.00  0.00    +0.030 A 
ATOM     25  C   LIG    1      -11.226   5.246   2.462  0.00  0.00    -0.010 A 
ATOM     26  C   LIG    1      -12.086   5.159   1.377  0.00  0.00    +0.110 A 
ATOM     27  C   LIG    1      -11.743   4.379   0.283  0.00  0.00    -0.010 A 
ATOM     28  C   LIG    1      -10.545   3.691   0.276  0.00  0.00    +0.030 A 
BRANCH  26  29
ATOM     29  O   LIG    1      -13.264   5.837   1.387  0.00  0.00    -0.500 OA
ATOM     30  H   LIG    1      -14.002   5.337   1.762  0.00  0.00    +0.390 HD
ENDBRANCH  26  29
ENDBRANCH  22  23
ENDBRANCH  19  22
ENDBRANCH  17  20
ENDBRANCH   1  17
TORSDOF 6
