REMARK  Name = ZINCtV000002EM1C.0
REMARK                            x       y       z     vdW  Elec       q    Type
REMARK                         _______ _______ _______ _____ _____    ______ ____
ROOT
ATOM      1  N   LIG    1        2.978   0.925  -0.973  0.00  0.00    -0.740 N 
ATOM      2  H   LIG    1        2.345   1.326  -1.588  0.00  0.00    +0.400 HD
ATOM      3  C   LIG    1        4.027   0.224  -1.448  0.00  0.00    +0.710 C 
ATOM      4  N   LIG    1        4.195   0.080  -2.777  0.00  0.00    -0.740 N 
ATOM      5  H   LIG    1        3.562   0.481  -3.393  0.00  0.00    +0.400 HD
ATOM      6  O   LIG    1        4.821  -0.279  -0.677  0.00  0.00    -0.580 OA
ENDROOT
BRANCH   4   7
ATOM      7  C   LIG    1        5.335  -0.682  -3.293  0.00  0.00    +0.310 C 
ATOM      8  C   LIG    1        4.939  -2.152  -3.445  0.00  0.00    +0.040 C 
BRANCH   7   9
ATOM      9  C   LIG    1        5.742  -0.130  -4.635  0.00  0.00    -0.110 A 
ATOM     10  C   LIG    1        4.836   0.589  -5.390  0.00  0.00    +0.060 A 
ATOM     11  C   LIG    1        5.211   1.101  -6.619  0.00  0.00    +0.050 A 
ATOM     12  C   LIG    1        6.489   0.883  -7.099  0.00  0.00    -0.070 A 
ATOM     13  C   LIG    1        7.396   0.159  -6.347  0.00  0.00    +0.030 A 
ATOM     14 BR   LIG    1        6.998   1.577  -8.783  0.00  0.00    -0.030 Br
ATOM     15  C   LIG    1        7.023  -0.349  -5.114  0.00  0.00    +0.120 A 
ATOM     16  F   LIG    1        7.908  -1.056  -4.378  0.00  0.00    -0.120 F 
ENDBRANCH   7   9
ENDBRANCH   4   7
BRANCH   1  17
ATOM     17  C   LIG    1        2.795   1.081   0.472  0.00  0.00    +0.340 C 
BRANCH  17  21
ATOM     18  C   LIG    1       -0.714   3.404   1.222  0.00  0.00    +0.130 A 
ATOM     19  C   LIG    1       -0.803   2.022   1.119  0.00  0.00    -0.020 A 
ATOM     20  C   LIG    1        0.334   1.274   0.882  0.00  0.00    +0.060 A 
ATOM     21  C   LIG    1        1.558   1.900   0.736  0.00  0.00    -0.120 A 
ATOM     22  C   LIG    1        1.650   3.277   0.833  0.00  0.00    +0.070 A 
ATOM     23  C   LIG    1        0.518   4.031   1.075  0.00  0.00    -0.050 A 
ATOM     24 CL   LIG    1        0.634   5.759   1.196  0.00  0.00    -0.050 Cl
BRANCH  18  30
ATOM     25  C   LIG    1       -5.573   3.382   1.336  0.00  0.00    +0.020 C 
ATOM     26  C   LIG    1       -4.310   4.237   1.458  0.00  0.00    -0.010 C 
ATOM     27  C   LIG    1       -4.292   4.929   2.824  0.00  0.00    +0.010 C 
ATOM     28  C   LIG    1       -2.998   5.735   2.962  0.00  0.00    +0.020 C 
ATOM     29  C   LIG    1       -1.799   4.800   2.788  0.00  0.00    +0.180 C 
ATOM     30  N   LIG    1       -1.862   4.163   1.466  0.00  0.00    -0.490 N 
ATOM     31  C   LIG    1       -3.073   3.345   1.328  0.00  0.00    +0.190 C 
ENDBRANCH  18  30
ENDBRANCH  17  21
ENDBRANCH   1  17
TORSDOF 5
