REMARK  Name = ZINCpk00000xIkqE.0
REMARK                            x       y       z     vdW  Elec       q    Type
REMARK                         _______ _______ _______ _____ _____    ______ ____
ROOT
ATOM      1  C   LIG    1        1.517  -2.180  -0.925  0.00  0.00    +0.200 C 
ENDROOT
BRANCH   1   3
ATOM      2  O   LIG    1        2.659  -2.064   1.137  0.00  0.00    -0.510 OA
ATOM      3  C   LIG    1        1.786  -1.595   0.437  0.00  0.00    +0.510 C 
ATOM      4  N   LIG    1        1.057  -0.551   0.878  0.00  0.00    -0.610 N 
ATOM      5  C   LIG    1        0.002  -0.004   0.002  0.00  0.00    +0.250 C 
ATOM      6  C   LIG    1       -0.019   1.535   0.011  0.00  0.00    +0.020 C 
ATOM      7  C   LIG    1        1.391   2.073  -0.000  0.00  0.00    +0.020 C 
ATOM      8  C   LIG    1        1.860   2.290   1.435  0.00  0.00    +0.000 C 
ATOM      9  C   LIG    1        2.420   1.091   2.078  0.00  0.00    -0.020 C 
ATOM     10  C   LIG    1        1.339  -0.013   2.190  0.00  0.00    +0.290 C 
BRANCH   9  11
ATOM     11  C   LIG    1        2.921   1.453   3.477  0.00  0.00    +0.180 C 
BRANCH  11  12
ATOM     12  O   LIG    1        3.588   0.326   4.051  0.00  0.00    -0.570 OA
ATOM     13  H   LIG    1        3.933   0.484   4.940  0.00  0.00    +0.380 HD
ENDBRANCH  11  12
ENDBRANCH   9  11
ENDBRANCH   1   3
BRANCH   1  14
ATOM     14  N   LIG    1        2.438  -3.299  -1.168  0.00  0.00    -0.520 NA
ATOM     15  C   LIG    1        3.826  -2.827  -1.262  0.00  0.00    +0.200 C 
ATOM     16  C   LIG    1        4.760  -4.028  -1.435  0.00  0.00    +0.180 C 
ATOM     17  N   LIG    1        4.377  -4.772  -2.643  0.00  0.00    -0.540 NA
ATOM     18  C   LIG    1        2.988  -5.244  -2.550  0.00  0.00    +0.180 C 
ATOM     19  C   LIG    1        2.055  -4.043  -2.376  0.00  0.00    +0.180 C 
BRANCH  17  20
ATOM     20  C   LIG    1        5.297  -5.890  -2.886  0.00  0.00    +0.210 C 
BRANCH  20  21
ATOM     21  C   LIG    1        6.665  -5.352  -3.219  0.00  0.00    -0.080 A 
ATOM     22  C   LIG    1        7.006  -5.096  -4.534  0.00  0.00    +0.020 A 
ATOM     23  C   LIG    1        8.259  -4.598  -4.839  0.00  0.00    +0.000 A 
ATOM     24  C   LIG    1        9.174  -4.365  -3.830  0.00  0.00    +0.000 A 
ATOM     25  C   LIG    1        8.835  -4.626  -2.516  0.00  0.00    +0.000 A 
ATOM     26  C   LIG    1        7.581  -5.120  -2.210  0.00  0.00    +0.010 A 
ENDBRANCH  20  21
ENDBRANCH  17  20
ENDBRANCH   1  14
TORSDOF 6
