REMARK  Name = ZINCrD00000F5LtA.0
REMARK                            x       y       z     vdW  Elec       q    Type
REMARK                         _______ _______ _______ _____ _____    ______ ____
ROOT
ATOM      1  C   LIG    1        1.138   3.048   0.230  0.00  0.00    +0.100 A 
ATOM      2  C   LIG    1       -0.047   3.750   0.307  0.00  0.00    +0.000 A 
ATOM      3  C   LIG    1       -1.252   3.122  -0.032  0.00  0.00    -0.090 A 
ATOM      4  C   LIG    1       -1.246   1.788  -0.455  0.00  0.00    +0.090 A 
ATOM      5  C   LIG    1       -0.059   1.093  -0.523  0.00  0.00    -0.040 A 
ATOM      6  C   LIG    1        1.135   1.716  -0.185  0.00  0.00    +0.120 A 
ENDROOT
BRANCH   3   7
ATOM      7  C   LIG    1       -2.517   3.864   0.048  0.00  0.00    +0.160 C 
ATOM      8  C   LIG    1       -3.622   3.266   0.551  0.00  0.00    -0.220 C 
ATOM      9  C   LIG    1       -5.026   3.821   0.545  0.00  0.00    +0.160 C 
ATOM     10  C   LIG    1       -5.891   2.784   1.218  0.00  0.00    -0.050 A 
ATOM     11  C   LIG    1       -7.242   2.749   1.492  0.00  0.00    +0.010 A 
ATOM     12  C   LIG    1       -7.792   1.653   2.134  0.00  0.00    +0.050 A 
ATOM     13  C   LIG    1       -6.989   0.588   2.502  0.00  0.00    -0.010 A 
ATOM     14  C   LIG    1       -5.637   0.612   2.234  0.00  0.00    +0.080 A 
ATOM     15  C   LIG    1       -5.073   1.716   1.586  0.00  0.00    -0.180 A 
ATOM     16  C   LIG    1       -3.681   1.996   1.177  0.00  0.00    +0.430 C 
ATOM     17  O   LIG    1       -2.733   1.254   1.353  0.00  0.00    -0.430 OA
ENDBRANCH   3   7
BRANCH   1  18
ATOM     18  O   LIG    1        2.310   3.654   0.559  0.00  0.00    -0.300 OA
BRANCH  18  20
ATOM     19  C   LIG    1        3.646   5.526   1.303  0.00  0.00    +0.070 C 
ATOM     20  C   LIG    1        2.240   5.019   0.976  0.00  0.00    +0.170 C 
ENDBRANCH  18  20
ENDBRANCH   1  18
BRANCH   6  21
ATOM     21  O   LIG    1        2.303   1.027  -0.260  0.00  0.00    -0.280 OA
BRANCH  21  22
ATOM     22  C   LIG    1        2.228  -0.333  -0.694  0.00  0.00    +0.220 C 
BRANCH  22  23
ATOM     23  C   LIG    1        3.611  -0.930  -0.715  0.00  0.00    +0.510 C 
ATOM     24  N   LIG    1        3.785  -2.212  -1.093  0.00  0.00    -0.620 N 
ATOM     25  C   LIG    1        2.630  -3.024  -1.485  0.00  0.00    +0.290 C 
ATOM     26  C   LIG    1        5.130  -2.793  -1.114  0.00  0.00    +0.300 C 
ATOM     27  O   LIG    1        4.567  -0.259  -0.390  0.00  0.00    -0.510 OA
ENDBRANCH  22  23
ENDBRANCH  21  22
ENDBRANCH   6  21
TORSDOF 6
