REMARK  Name = ZINCtV00001bB3Qv.0
REMARK                            x       y       z     vdW  Elec       q    Type
REMARK                         _______ _______ _______ _____ _____    ______ ____
ROOT
ATOM      1  N   LIG    1       -9.124   0.510   3.429  0.00  0.00    -0.510 NA
ATOM      2  C   LIG    1       -8.296   0.710   2.421  0.00  0.00    +0.390 A 
ATOM      3  S   LIG    1       -8.674   0.665   0.689  0.00  0.00    -0.000 S 
ATOM      4  C   LIG    1       -7.021   1.040   0.171  0.00  0.00    -0.040 A 
ATOM      5  C   LIG    1       -6.308   1.164   1.297  0.00  0.00    +0.160 A 
ATOM      6  N   LIG    1       -6.963   0.997   2.487  0.00  0.00    -0.490 N 
ENDROOT
BRANCH   5   7
ATOM      7  C   LIG    1       -4.863   1.478   1.257  0.00  0.00    -0.050 A 
ATOM      8  C   LIG    1       -4.352   2.524   2.025  0.00  0.00    +0.050 A 
ATOM      9  C   LIG    1       -3.004   2.815   1.985  0.00  0.00    +0.030 A 
ATOM     10  C   LIG    1       -2.152   2.069   1.182  0.00  0.00    +0.070 A 
ATOM     11  O   LIG    1       -0.825   2.379   1.153  0.00  0.00    -0.300 OA
ATOM     12  C   LIG    1        0.057   1.380   0.629  0.00  0.00    +0.230 C 
ATOM     13  C   LIG    1       -0.548   0.840  -0.674  0.00  0.00    +0.230 C 
ATOM     14  O   LIG    1       -1.831   0.279  -0.373  0.00  0.00    -0.300 OA
ATOM     15  C   LIG    1       -2.654   1.022   0.416  0.00  0.00    +0.050 A 
ATOM     16  C   LIG    1       -4.006   0.727   0.451  0.00  0.00    +0.060 A 
ENDBRANCH   5   7
BRANCH   1  21
ATOM     17  C   LIG    1      -14.559  -0.640   2.428  0.00  0.00    +0.090 C 
ATOM     18  C   LIG    1      -13.108  -0.334   2.695  0.00  0.00    -0.090 A 
ATOM     19  C   LIG    1      -12.480   0.685   2.000  0.00  0.00    +0.050 A 
ATOM     20  C   LIG    1      -11.154   0.975   2.243  0.00  0.00    -0.030 A 
ATOM     21  C   LIG    1      -10.440   0.231   3.186  0.00  0.00    +0.130 A 
ATOM     22  C   LIG    1      -11.080  -0.796   3.885  0.00  0.00    +0.040 A 
ATOM     23  C   LIG    1      -12.409  -1.072   3.636  0.00  0.00    -0.020 A 
ATOM     24 CL   LIG    1      -13.206  -2.348   4.502  0.00  0.00    -0.060 Cl
ENDBRANCH   1  21
BRANCH   6  25
ATOM     25  C   LIG    1       -6.267   1.121   3.771  0.00  0.00    +0.240 C 
ATOM     26  C   LIG    1       -6.485  -0.152   4.615  0.00  0.00    +0.030 C 
ATOM     27  C   LIG    1       -6.613   0.372   6.066  0.00  0.00    +0.020 C 
ATOM     28  C   LIG    1       -7.411   1.688   5.886  0.00  0.00    +0.020 C 
ATOM     29  C   LIG    1       -6.856   2.290   4.579  0.00  0.00    +0.010 C 
ENDBRANCH   6  25
TORSDOF 3
