REMARK  Name = ZINCpk00001AZizk.1
REMARK                            x       y       z     vdW  Elec       q    Type
REMARK                         _______ _______ _______ _____ _____    ______ ____
ROOT
ATOM      1  C   LIG    1        3.341   2.086   3.724  0.00  0.00    +0.080 C 
ATOM      2  C   LIG    1        3.552   3.023   2.532  0.00  0.00    +0.030 C 
ATOM      3  C   LIG    1        3.362   2.237   1.231  0.00  0.00    +0.280 C 
ATOM      4  N   LIG    1        2.046   1.585   1.260  0.00  0.00    -0.610 N 
ATOM      5  C   LIG    1        1.702   0.738   2.410  0.00  0.00    +0.260 C 
ATOM      6  C   LIG    1        1.168   1.764   0.253  0.00  0.00    +0.520 C 
ATOM      7  O   LIG    1        1.482   2.425  -0.715  0.00  0.00    -0.520 OA
ATOM      8  C   LIG    1        1.913   1.536   3.696  0.00  0.00    +0.020 C 
ENDROOT
BRANCH   6   9
ATOM      9  C   LIG    1       -0.203   1.144   0.329  0.00  0.00    +0.000 C 
ATOM     10  C   LIG    1       -1.032   1.585  -0.881  0.00  0.00    +0.060 C 
ATOM     11  C   LIG    1       -0.371   1.060  -2.159  0.00  0.00    +0.080 C 
ATOM     12  C   LIG    1       -0.237  -0.462  -2.069  0.00  0.00    +0.080 C 
ATOM     13  N   LIG    1        0.588  -0.817  -0.908  0.00  0.00    -0.350 N 
ATOM     14  C   LIG    1        1.896  -0.158  -1.018  0.00  0.00    +0.300 C 
ATOM     15  H   LIG    1        0.718  -1.817  -0.883  0.00  0.00    +0.420 HD
ATOM     16  C   LIG    1       -0.075  -0.381   0.326  0.00  0.00    +0.250 C 
BRANCH  12  17
ATOM     17  C   LIG    1        0.414  -0.983  -3.325  0.00  0.00    +0.490 C 
ATOM     18  O   LIG    1        1.576  -1.352  -3.301  0.00  0.00    -0.670 OA
ATOM     19  O   LIG    1       -0.221  -1.035  -4.364  0.00  0.00    -0.640 OA
ENDBRANCH  12  17
ENDBRANCH   6   9
BRANCH   1  22
ATOM     20  N   LIG    1        4.359   3.478   6.937  0.00  0.00    -0.370 N 
ATOM     21  C   LIG    1        4.482   2.562   5.954  0.00  0.00    +0.230 A 
ATOM     22  C   LIG    1        3.560   2.848   5.006  0.00  0.00    -0.240 A 
ATOM     23  C   LIG    1        2.842   3.971   5.429  0.00  0.00    +0.230 A 
ATOM     24  N   LIG    1        3.320   4.350   6.587  0.00  0.00    -0.290 NA
BRANCH  20  26
ATOM     25  C   LIG    1        5.792   4.935   8.281  0.00  0.00    +0.040 C 
ATOM     26  C   LIG    1        5.164   3.545   8.159  0.00  0.00    +0.320 C 
ENDBRANCH  20  26
ENDBRANCH   1  22
TORSDOF 4
