REMARK  Name = ZINCpk00001AZizk.0
REMARK                            x       y       z     vdW  Elec       q    Type
REMARK                         _______ _______ _______ _____ _____    ______ ____
ROOT
ATOM      1  C   LIG    1       -0.289   0.183   0.244  0.00  0.00    +0.070 C 
ATOM      2  C   LIG    1       -0.160   1.706   0.166  0.00  0.00    +0.030 C 
ATOM      3  C   LIG    1        1.321   2.085   0.069  0.00  0.00    +0.290 C 
ATOM      4  N   LIG    1        2.040   1.476   1.196  0.00  0.00    -0.590 N 
ATOM      5  C   LIG    1        1.912   0.029   1.416  0.00  0.00    +0.270 C 
ATOM      6  C   LIG    1        2.803   2.230   2.012  0.00  0.00    +0.520 C 
ATOM      7  O   LIG    1        2.966   3.407   1.773  0.00  0.00    -0.550 OA
ATOM      8  C   LIG    1        0.424  -0.327   1.498  0.00  0.00    +0.020 C 
ENDROOT
BRANCH   6   9
ATOM      9  C   LIG    1        3.454   1.609   3.221  0.00  0.00    +0.000 C 
ATOM     10  C   LIG    1        4.594   0.691   2.773  0.00  0.00    +0.050 C 
ATOM     11  C   LIG    1        5.663   1.528   2.065  0.00  0.00    +0.060 C 
ATOM     12  C   LIG    1        6.144   2.634   3.008  0.00  0.00    +0.070 C 
ATOM     13  N   LIG    1        5.013   3.493   3.378  0.00  0.00    -0.360 N 
ATOM     14  C   LIG    1        5.493   4.597   4.220  0.00  0.00    +0.310 C 
ATOM     15  H   LIG    1        4.590   3.869   2.543  0.00  0.00    +0.440 HD
ATOM     16  C   LIG    1        4.016   2.711   4.121  0.00  0.00    +0.260 C 
BRANCH  12  17
ATOM     17  C   LIG    1        7.196   3.461   2.315  0.00  0.00    +0.490 C 
ATOM     18  O   LIG    1        8.372   3.152   2.407  0.00  0.00    -0.640 OA
ATOM     19  O   LIG    1        6.871   4.439   1.663  0.00  0.00    -0.670 OA
ENDBRANCH  12  17
ENDBRANCH   6   9
BRANCH   1  22
ATOM     20  N   LIG    1       -3.688  -1.069  -0.177  0.00  0.00    -0.370 N 
ATOM     21  C   LIG    1       -2.407  -0.965  -0.590  0.00  0.00    +0.230 A 
ATOM     22  C   LIG    1       -1.746  -0.195   0.305  0.00  0.00    -0.240 A 
ATOM     23  C   LIG    1       -2.656   0.193   1.294  0.00  0.00    +0.230 A 
ATOM     24  N   LIG    1       -3.820  -0.331   1.006  0.00  0.00    -0.290 NA
BRANCH  20  26
ATOM     25  C   LIG    1       -5.383  -2.804   0.134  0.00  0.00    +0.040 C 
ATOM     26  C   LIG    1       -4.753  -1.816  -0.850  0.00  0.00    +0.320 C 
ENDBRANCH  20  26
ENDBRANCH   1  22
TORSDOF 4
