REMARK  Name = ZINCrg000000qQWD.0
REMARK                            x       y       z     vdW  Elec       q    Type
REMARK                         _______ _______ _______ _____ _____    ______ ____
ROOT
ATOM      1  C   LIG    1       -0.833   5.567  -4.297  0.00  0.00    +0.250 A 
ATOM      2  C   LIG    1        0.143   6.290  -3.628  0.00  0.00    -0.090 A 
ATOM      3  C   LIG    1        0.441   5.997  -2.312  0.00  0.00    +0.210 A 
ATOM      4  C   LIG    1       -0.223   4.975  -1.653  0.00  0.00    -0.730 A 
ATOM      5  C   LIG    1       -1.196   4.246  -2.303  0.00  0.00    +0.240 A 
ATOM      6  C   LIG    1       -1.511   4.535  -3.633  0.00  0.00    -0.180 A 
ENDROOT
BRANCH   4   7
ATOM      7  S   LIG    1        0.174   4.610   0.024  0.00  0.00    +2.700 S 
ATOM      8  O   LIG    1        0.742   5.793   0.569  0.00  0.00    -0.940 OA
ATOM      9  O   LIG    1       -0.969   3.972   0.577  0.00  0.00    -0.930 OA
BRANCH   7  10
ATOM     10  N   LIG    1        1.380   3.476   0.007  0.00  0.00    -0.940 N 
ATOM     11  C   LIG    1        2.814   3.776  -0.005  0.00  0.00    +0.280 C 
ATOM     12  C   LIG    1        3.513   2.407  -0.019  0.00  0.00    +0.100 C 
ATOM     13  C   LIG    1        2.381   1.404  -0.013  0.00  0.00    -0.130 A 
ATOM     14  C   LIG    1        2.395   0.022  -0.021  0.00  0.00    +0.050 A 
ATOM     15  C   LIG    1        1.206  -0.684  -0.013  0.00  0.00    -0.010 A 
ATOM     16  C   LIG    1        0.002  -0.004   0.002  0.00  0.00    +0.050 A 
ATOM     17  C   LIG    1       -0.017   1.375   0.010  0.00  0.00    -0.010 A 
ATOM     18  C   LIG    1        1.179   2.095   0.002  0.00  0.00    +0.150 A 
ENDBRANCH   7  10
ENDBRANCH   4   7
BRANCH   1  20
ATOM     19  C   LIG    1       -0.399   6.922  -6.200  0.00  0.00    +0.250 C 
ATOM     20  O   LIG    1       -1.131   5.857  -5.588  0.00  0.00    -0.280 OA
ENDBRANCH   1  20
BRANCH   6  21
ATOM     21  C   LIG    1       -2.551   3.760  -4.333  0.00  0.00    +0.510 C 
ATOM     22  O   LIG    1       -2.822   4.014  -5.490  0.00  0.00    -0.480 OA
BRANCH  21  23
ATOM     23  O   LIG    1       -3.200   2.769  -3.691  0.00  0.00    -0.330 OA
BRANCH  23  24
ATOM     24  C   LIG    1       -4.212   2.048  -4.442  0.00  0.00    +0.270 C 
BRANCH  24  25
ATOM     25  C   LIG    1       -4.826   0.986  -3.567  0.00  0.00    +0.520 C 
ATOM     26  O   LIG    1       -4.448   0.850  -2.423  0.00  0.00    -0.510 OA
ATOM     27  N   LIG    1       -5.795   0.187  -4.057  0.00  0.00    -0.850 N 
ATOM     28  H   LIG    1       -6.190  -0.496  -3.494  0.00  0.00    +0.410 HD
ATOM     29  H   LIG    1       -6.097   0.296  -4.972  0.00  0.00    +0.400 HD
ENDBRANCH  24  25
ENDBRANCH  23  24
ENDBRANCH  21  23
ENDBRANCH   6  21
TORSDOF 7
