REMARK  Name = ZINCkj00000kJxZ9.0
REMARK                            x       y       z     vdW  Elec       q    Type
REMARK                         _______ _______ _______ _____ _____    ______ ____
ROOT
ATOM      1  N   LIG    1       -2.193   5.019   2.343  0.00  0.00    -0.370 N 
ATOM      2  C   LIG    1       -2.280   4.326   3.634  0.00  0.00    +0.260 C 
ATOM      3  C   LIG    1       -1.068   3.408   3.805  0.00  0.00    +0.060 C 
ATOM      4  C   LIG    1       -1.050   2.378   2.672  0.00  0.00    +0.050 C 
ATOM      5  C   LIG    1       -1.035   3.113   1.328  0.00  0.00    -0.020 C 
ATOM      6  C   LIG    1       -2.248   4.043   1.248  0.00  0.00    +0.280 C 
ATOM      7  H   LIG    1       -2.965   5.664   2.256  0.00  0.00    +0.430 HD
ENDROOT
BRANCH   1   8
ATOM      8  C   LIG    1       -0.928   5.761   2.270  0.00  0.00    +0.260 C 
BRANCH   8  10
ATOM      9  C   LIG    1       -2.202   7.748   3.088  0.00  0.00    +0.140 C 
ATOM     10  C   LIG    1       -0.945   6.901   3.292  0.00  0.00    +0.080 C 
BRANCH  10  11
ATOM     11  C   LIG    1        0.296   7.775   3.101  0.00  0.00    +0.440 C 
ATOM     12  F   LIG    1        1.446   7.000   3.287  0.00  0.00    -0.170 F 
ATOM     13  F   LIG    1        0.280   8.817   4.035  0.00  0.00    -0.150 F 
ATOM     14  F   LIG    1        0.297   8.308   1.808  0.00  0.00    -0.170 F 
ENDBRANCH  10  11
BRANCH  10  15
ATOM     15  O   LIG    1       -0.946   6.356   4.613  0.00  0.00    -0.520 OA
ATOM     16  H   LIG    1       -0.176   5.806   4.812  0.00  0.00    +0.400 HD
ENDBRANCH  10  15
ENDBRANCH   8  10
ENDBRANCH   1   8
BRANCH   5  17
ATOM     17  C   LIG    1       -1.096   2.095   0.188  0.00  0.00    +0.350 C 
BRANCH  17  18
ATOM     18  N   LIG    1        0.121   1.279   0.196  0.00  0.00    -0.390 N 
ATOM     19  C   LIG    1        0.191  -0.062   0.249  0.00  0.00    +0.480 A 
ATOM     20  N   LIG    1        1.454  -0.404   0.232  0.00  0.00    -0.540 NA
ATOM     21  C   LIG    1        2.216   0.688   0.168  0.00  0.00    +0.440 A 
ATOM     22  N   LIG    1        1.445   1.743   0.144  0.00  0.00    -0.320 NA
ENDBRANCH  17  18
ENDBRANCH   5  17
TORSDOF 6
