REMARK  Name = ZINCkj00000kJxZ9.1
REMARK                            x       y       z     vdW  Elec       q    Type
REMARK                         _______ _______ _______ _____ _____    ______ ____
ROOT
ATOM      1  N   LIG    1       -4.168  -1.132   2.259  0.00  0.00    -0.370 N 
ATOM      2  C   LIG    1       -3.460  -1.518   3.485  0.00  0.00    +0.250 C 
ATOM      3  C   LIG    1       -2.164  -0.713   3.606  0.00  0.00    +0.070 C 
ATOM      4  C   LIG    1       -1.277  -0.999   2.391  0.00  0.00    +0.050 C 
ATOM      5  C   LIG    1       -2.053  -0.662   1.114  0.00  0.00    -0.010 C 
ATOM      6  C   LIG    1       -3.353  -1.468   1.085  0.00  0.00    +0.270 C 
ATOM      7  H   LIG    1       -4.343  -0.138   2.271  0.00  0.00    +0.420 HD
ENDROOT
BRANCH   1   8
ATOM      8  C   LIG    1       -5.447  -1.851   2.186  0.00  0.00    +0.270 C 
BRANCH   8  10
ATOM      9  C   LIG    1       -6.380   0.211   1.129  0.00  0.00    +0.130 C 
ATOM     10  C   LIG    1       -6.270  -1.310   1.015  0.00  0.00    +0.080 C 
BRANCH  10  11
ATOM     11  C   LIG    1       -7.670  -1.926   1.049  0.00  0.00    +0.440 C 
ATOM     12  F   LIG    1       -7.570  -3.318   0.945  0.00  0.00    -0.170 F 
ATOM     13  F   LIG    1       -8.423  -1.432  -0.021  0.00  0.00    -0.150 F 
ATOM     14  F   LIG    1       -8.298  -1.592   2.254  0.00  0.00    -0.170 F 
ENDBRANCH  10  11
BRANCH  10  15
ATOM     15  O   LIG    1       -5.629  -1.651  -0.216  0.00  0.00    -0.520 OA
ATOM     16  H   LIG    1       -5.526  -2.603  -0.355  0.00  0.00    +0.400 HD
ENDBRANCH  10  15
ENDBRANCH   8  10
ENDBRANCH   1   8
BRANCH   5  17
ATOM     17  C   LIG    1       -1.204  -1.017  -0.108  0.00  0.00    +0.350 C 
BRANCH  17  18
ATOM     18  N   LIG    1       -0.015  -0.161  -0.143  0.00  0.00    -0.390 N 
ATOM     19  C   LIG    1        1.266  -0.564  -0.200  0.00  0.00    +0.480 A 
ATOM     20  N   LIG    1        2.026   0.500  -0.213  0.00  0.00    -0.540 NA
ATOM     21  C   LIG    1        1.270   1.596  -0.166  0.00  0.00    +0.430 A 
ATOM     22  N   LIG    1        0.012   1.243  -0.121  0.00  0.00    -0.320 NA
ENDBRANCH  17  18
ENDBRANCH   5  17
TORSDOF 6
