REMARK  Name = ZINCqH0000038lmr.0
REMARK                            x       y       z     vdW  Elec       q    Type
REMARK                         _______ _______ _______ _____ _____    ______ ____
ROOT
ATOM      1  N   LIG    1       -1.112  -0.843   0.008  0.00  0.00    -0.650 N 
ATOM      2  H   LIG    1       -2.005  -0.464   0.019  0.00  0.00    +0.410 HD
ATOM      3  C   LIG    1       -0.948  -2.181  -0.001  0.00  0.00    +0.540 C 
ATOM      4  O   LIG    1        0.169  -2.655  -0.014  0.00  0.00    -0.480 OA
ENDROOT
BRANCH   1   9
ATOM      5  N   LIG    1       -0.016   1.348   0.009  0.00  0.00    -0.380 N 
ATOM      6  N   LIG    1        1.310   1.797  -0.001  0.00  0.00    -0.280 NA
ATOM      7  C   LIG    1        2.099   0.753  -0.014  0.00  0.00    +0.250 A 
ATOM      8  C   LIG    1        1.305  -0.397  -0.013  0.00  0.00    -0.110 A 
ATOM      9  C   LIG    1        0.002  -0.004   0.002  0.00  0.00    +0.310 A 
BRANCH   5  10
ATOM     10  C   LIG    1       -1.212   2.194   0.020  0.00  0.00    +0.370 C 
BRANCH  10  16
ATOM     11  C   LIG    1       -3.817   0.964   4.112  0.00  0.00    +0.080 C 
ATOM     12  C   LIG    1       -2.862   1.888   3.402  0.00  0.00    -0.090 A 
ATOM     13  C   LIG    1       -2.356   2.995   4.057  0.00  0.00    +0.020 A 
ATOM     14  C   LIG    1       -1.479   3.843   3.406  0.00  0.00    +0.020 A 
ATOM     15  C   LIG    1       -1.109   3.584   2.100  0.00  0.00    +0.040 A 
ATOM     16  C   LIG    1       -1.615   2.477   1.444  0.00  0.00    -0.120 A 
ATOM     17  C   LIG    1       -2.496   1.632   2.094  0.00  0.00    +0.000 A 
ENDBRANCH  10  16
ENDBRANCH   5  10
ENDBRANCH   1   9
BRANCH   3  18
ATOM     18  C   LIG    1       -2.151  -3.088   0.006  0.00  0.00    +0.110 C 
BRANCH  18  19
ATOM     19  S   LIG    1       -1.605  -4.818  -0.009  0.00  0.00    -0.150 S 
BRANCH  19  20
ATOM     20  C   LIG    1       -3.168  -5.739   0.002  0.00  0.00    +0.180 C 
BRANCH  20  21
ATOM     21  C   LIG    1       -2.879  -7.218  -0.009  0.00  0.00    -0.200 A 
ATOM     22  C   LIG    1       -2.735  -8.032  -1.082  0.00  0.00    -0.000 A 
ATOM     23  O   LIG    1       -2.487  -9.257  -0.599  0.00  0.00    +0.100 OA
ATOM     24  N   LIG    1       -2.475  -9.264   0.611  0.00  0.00    -0.360 NA
ATOM     25  C   LIG    1       -2.833  -7.638  -2.534  0.00  0.00    +0.200 C 
ATOM     26  C   LIG    1       -2.701  -8.078   1.099  0.00  0.00    +0.040 A 
ATOM     27  C   LIG    1       -2.762  -7.699   2.556  0.00  0.00    +0.160 C 
ENDBRANCH  20  21
ENDBRANCH  19  20
ENDBRANCH  18  19
ENDBRANCH   3  18
TORSDOF 7
