REMARK  Name = ZINC650000002vuH.0
REMARK                            x       y       z     vdW  Elec       q    Type
REMARK                         _______ _______ _______ _____ _____    ______ ____
ROOT
ATOM      1  C   LIG    1       -0.018   1.461   0.010  0.00  0.00    +0.400 C 
ATOM      2  N   LIG    1        0.002  -0.004   0.002  0.00  0.00    -0.310 N 
ATOM      3  C   LIG    1       -0.003  -0.798  -1.085  0.00  0.00    +0.400 A 
ATOM      4  N   LIG    1        0.023  -2.033  -0.649  0.00  0.00    -0.310 NA
ATOM      5  N   LIG    1        0.035  -2.001   0.639  0.00  0.00    -0.070 NA
ATOM      6  N   LIG    1        0.022  -0.776   1.036  0.00  0.00    -0.090 NA
ENDROOT
TORSDOF 0
