REMARK  Name = ZINCfl000000kuUk.1
REMARK                            x       y       z     vdW  Elec       q    Type
REMARK                         _______ _______ _______ _____ _____    ______ ____
ROOT
ATOM      1  O   LIG    1       -0.877  -2.032  -2.039  0.00  0.00    -0.560 OA
ATOM      2  C   LIG    1       -1.094  -2.228  -0.863  0.00  0.00    +0.510 C 
ATOM      3  N   LIG    1       -0.284  -1.691   0.071  0.00  0.00    -0.660 NA
ENDROOT
BRANCH   3   4
ATOM      4  C   LIG    1        0.800  -0.911  -0.316  0.00  0.00    +0.360 A 
ATOM      5  N   LIG    1        1.120  -0.640  -1.542  0.00  0.00    -0.560 NA
ATOM      6  C   LIG    1        2.185   0.118  -1.728  0.00  0.00    +0.290 A 
ATOM      7  C   LIG    1        2.793   0.506  -0.605  0.00  0.00    -0.360 A 
ATOM      8 BR   LIG    1        4.337   1.592  -0.496  0.00  0.00    -0.050 Br
ATOM      9  S   LIG    1        1.905  -0.170   0.758  0.00  0.00    +0.040 S 
ENDBRANCH   3   4
BRANCH   2  10
ATOM     10  C   LIG    1       -2.269  -3.074  -0.444  0.00  0.00    -0.040 C 
ATOM     11  C   LIG    1       -2.736  -4.164  -1.411  0.00  0.00    +0.020 C 
ATOM     12  C   LIG    1       -2.002  -4.546  -0.122  0.00  0.00    -0.110 C 
BRANCH  12  13
ATOM     13  C   LIG    1       -0.584  -5.039  -0.248  0.00  0.00    +0.520 C 
ATOM     14  O   LIG    1       -0.044  -5.070  -1.341  0.00  0.00    -0.690 OA
ATOM     15  O   LIG    1        0.024  -5.406   0.743  0.00  0.00    -0.710 OA
ENDBRANCH  12  13
ENDBRANCH   2  10
TORSDOF 3
