REMARK  Name = ZINCvU0000000DIm.0
REMARK                            x       y       z     vdW  Elec       q    Type
REMARK                         _______ _______ _______ _____ _____    ______ ____
ROOT
ATOM      1  N   LIG    1       -2.882   1.989  -0.778  0.00  0.00    -0.590 N 
ATOM      2  C   LIG    1       -4.100   2.071  -0.214  0.00  0.00    +0.520 C 
ATOM      3  C   LIG    1       -4.084   1.430   1.118  0.00  0.00    +0.110 C 
ATOM      4  C   LIG    1       -2.842   0.953   1.366  0.00  0.00    -0.230 C 
ATOM      5  O   LIG    1       -5.071   2.596  -0.724  0.00  0.00    -0.510 OA
ATOM      6  C   LIG    1       -1.998   1.286   0.159  0.00  0.00    +0.350 C 
ENDROOT
BRANCH   6   7
ATOM      7  C   LIG    1       -0.851   2.178   0.558  0.00  0.00    -0.110 A 
ATOM      8  C   LIG    1        0.430   1.665   0.635  0.00  0.00    +0.030 A 
ATOM      9  C   LIG    1        1.483   2.486   0.996  0.00  0.00    +0.020 A 
ATOM     10  C   LIG    1        1.253   3.817   1.286  0.00  0.00    -0.060 A 
ATOM     11  C   LIG    1       -0.029   4.329   1.215  0.00  0.00    +0.010 A 
ATOM     12  C   LIG    1       -1.082   3.509   0.854  0.00  0.00    +0.030 A 
BRANCH  10  13
ATOM     13  C   LIG    1        2.400   4.712   1.679  0.00  0.00    -0.030 C 
ATOM     14  C   LIG    1        3.060   4.166   2.947  0.00  0.00    +0.040 C 
ATOM     15  C   LIG    1        1.878   6.125   1.944  0.00  0.00    +0.030 C 
ATOM     16  C   LIG    1        3.428   4.752   0.546  0.00  0.00    +0.040 C 
ENDBRANCH  10  13
ENDBRANCH   6   7
BRANCH   4  17
ATOM     17  C   LIG    1       -2.402   0.248   2.574  0.00  0.00    +0.470 C 
ATOM     18  O   LIG    1       -2.403   0.821   3.647  0.00  0.00    -0.420 OA
BRANCH  17  19
ATOM     19  C   LIG    1       -1.956  -1.158   2.488  0.00  0.00    -0.160 A 
ATOM     20  C   LIG    1       -2.068  -1.857   1.284  0.00  0.00    +0.080 A 
ATOM     21  C   LIG    1       -1.645  -3.167   1.208  0.00  0.00    +0.020 A 
ATOM     22  C   LIG    1       -1.121  -3.795   2.327  0.00  0.00    -0.000 A 
ATOM     23  C   LIG    1       -1.012  -3.108   3.526  0.00  0.00    +0.020 A 
ATOM     24 CL   LIG    1       -0.598  -5.447   2.226  0.00  0.00    -0.060 Cl
ATOM     25  C   LIG    1       -1.426  -1.796   3.612  0.00  0.00    +0.100 A 
ENDBRANCH  17  19
ENDBRANCH   4  17
BRANCH   3  26
ATOM     26  O   LIG    1       -5.142   1.336   1.956  0.00  0.00    -0.430 OA
ATOM     27  H   LIG    1       -5.953   1.734   1.611  0.00  0.00    +0.410 HD
ENDBRANCH   3  26
BRANCH   1  28
ATOM     28  C   LIG    1       -2.505   2.508  -2.095  0.00  0.00    +0.320 C 
BRANCH  28  29
ATOM     29  C   LIG    1       -2.738   1.429  -3.155  0.00  0.00    +0.020 C 
BRANCH  29  30
ATOM     30  C   LIG    1       -2.344   1.972  -4.530  0.00  0.00    +0.160 C 
BRANCH  30  32
ATOM     31  C   LIG    1       -2.224   1.371  -6.847  0.00  0.00    +0.200 C 
ATOM     32  O   LIG    1       -2.562   0.964  -5.520  0.00  0.00    -0.390 OA
ENDBRANCH  30  32
ENDBRANCH  29  30
ENDBRANCH  28  29
ENDBRANCH   1  28
TORSDOF 9
