REMARK  Name = ZINCvU0000000Cdk.1
REMARK                            x       y       z     vdW  Elec       q    Type
REMARK                         _______ _______ _______ _____ _____    ______ ____
ROOT
ATOM      1  C   LIG    1        0.002  -0.004   0.002  0.00  0.00    +0.440 A 
ATOM      2  N   LIG    1       -0.463  -0.642   1.040  0.00  0.00    -0.570 NA
ATOM      3  C   LIG    1       -0.471  -1.985   1.089  0.00  0.00    +0.540 A 
ATOM      4  C   LIG    1        0.060  -2.742  -0.060  0.00  0.00    -0.220 A 
ATOM      5  C   LIG    1        0.540  -2.013  -1.133  0.00  0.00    +0.060 A 
ATOM      6  S   LIG    1        1.121  -3.098  -2.387  0.00  0.00    +0.190 S 
ATOM      7  C   LIG    1        0.708  -4.519  -1.446  0.00  0.00    -0.040 A 
ATOM      8  C   LIG    1        0.172  -4.178  -0.274  0.00  0.00    +0.010 A 
ATOM      9  O   LIG    1       -0.910  -2.568   2.068  0.00  0.00    -0.470 OA
ATOM     10  N   LIG    1        0.493  -0.636  -1.075  0.00  0.00    -0.590 N 
ATOM     11  H   LIG    1        0.824  -0.116  -1.824  0.00  0.00    +0.420 HD
ENDROOT
BRANCH   8  12
ATOM     12  C   LIG    1       -0.272  -5.176   0.727  0.00  0.00    -0.040 A 
ATOM     13  C   LIG    1        0.143  -5.069   2.054  0.00  0.00    +0.060 A 
ATOM     14  C   LIG    1       -0.277  -5.999   2.983  0.00  0.00    +0.000 A 
ATOM     15  C   LIG    1       -1.101  -7.042   2.598  0.00  0.00    +0.010 A 
ATOM     16  C   LIG    1       -1.512  -7.156   1.282  0.00  0.00    -0.010 A 
ATOM     17  C   LIG    1       -1.102  -6.229   0.345  0.00  0.00    +0.020 A 
ENDBRANCH   8  12
BRANCH   1  18
ATOM     18  C   LIG    1       -0.018   1.503   0.010  0.00  0.00    +0.210 C 
ATOM     19  C   LIG    1       -0.758   2.010  -1.229  0.00  0.00    +0.070 C 
BRANCH  18  20
ATOM     20  N   LIG    1       -0.706   1.976   1.219  0.00  0.00    -0.660 NA
ATOM     21  H   LIG    1       -0.574   1.334   1.985  0.00  0.00    +0.370 HD
BRANCH  20  23
ATOM     22  C   LIG    1        1.015   3.235   2.424  0.00  0.00    +0.010 C 
ATOM     23  C   LIG    1       -0.260   3.328   1.583  0.00  0.00    +0.210 C 
BRANCH  23  24
ATOM     24  C   LIG    1       -1.339   4.016   2.380  0.00  0.00    -0.070 A 
ATOM     25  C   LIG    1       -2.061   3.309   3.323  0.00  0.00    +0.020 A 
ATOM     26  C   LIG    1       -3.046   3.946   4.050  0.00  0.00    +0.000 A 
ATOM     27  C   LIG    1       -3.324   5.289   3.834  0.00  0.00    -0.080 A 
ATOM     28  C   LIG    1       -4.425   5.917   4.649  0.00  0.00    +0.060 C 
ATOM     29  C   LIG    1       -4.312   7.439   4.621  0.00  0.00    +0.010 C 
ATOM     30  C   LIG    1       -4.203   7.889   3.159  0.00  0.00    +0.020 C 
ATOM     31  C   LIG    1       -2.840   7.456   2.622  0.00  0.00    +0.060 C 
ATOM     32  C   LIG    1       -2.604   5.993   2.896  0.00  0.00    -0.080 A 
ATOM     33  C   LIG    1       -1.612   5.351   2.166  0.00  0.00    +0.000 A 
ENDBRANCH  23  24
ENDBRANCH  20  23
ENDBRANCH  18  20
ENDBRANCH   1  18
TORSDOF 5
