REMARK  Name = ZINCpk00000xXJtz.2
REMARK                            x       y       z     vdW  Elec       q    Type
REMARK                         _______ _______ _______ _____ _____    ______ ____
ROOT
ATOM      1  C   LIG    1       -0.136   0.969  -5.053  0.00  0.00    +0.230 C 
ENDROOT
BRANCH   1   4
ATOM      2  C   LIG    1       -0.662   1.320  -1.340  0.00  0.00    +0.140 C 
ATOM      3  C   LIG    1        0.035   0.905  -2.639  0.00  0.00    +0.190 C 
ATOM      4  N   LIG    1       -0.732   1.411  -3.786  0.00  0.00    -0.530 NA
ATOM      5  C   LIG    1       -0.842   2.875  -3.738  0.00  0.00    +0.190 C 
ATOM      6  C   LIG    1       -1.539   3.290  -2.440  0.00  0.00    +0.190 C 
ATOM      7  N   LIG    1       -0.772   2.785  -1.293  0.00  0.00    -0.530 NA
BRANCH   2   9
ATOM      8  C   LIG    1        0.189  -0.700  -0.140  0.00  0.00    +0.030 C 
ATOM      9  C   LIG    1        0.155   0.830  -0.143  0.00  0.00    +0.020 C 
ENDBRANCH   2   9
BRANCH   7  10
ATOM     10  C   LIG    1       -1.368   3.227  -0.025  0.00  0.00    +0.140 C 
BRANCH  10  11
ATOM     11  C   LIG    1       -1.342   4.755   0.045  0.00  0.00    +0.200 C 
ATOM     12  C   LIG    1       -1.963   5.215   1.366  0.00  0.00    +0.000 C 
BRANCH  11  13
ATOM     13  O   LIG    1        0.010   5.212  -0.030  0.00  0.00    -0.550 OA
ATOM     14  H   LIG    1        0.577   4.883   0.682  0.00  0.00    +0.370 HD
ENDBRANCH  11  13
ENDBRANCH  10  11
ENDBRANCH   7  10
ENDBRANCH   1   4
BRANCH   1  15
ATOM     15  C   LIG    1       -0.267  -0.528  -5.175  0.00  0.00    +0.510 C 
ATOM     16  N   LIG    1        0.157  -1.153  -6.292  0.00  0.00    -0.630 N 
ATOM     17  H   LIG    1        0.545  -0.639  -7.017  0.00  0.00    +0.430 HD
ATOM     18  O   LIG    1       -0.752  -1.170  -4.268  0.00  0.00    -0.470 OA
BRANCH  16  19
ATOM     19  C   LIG    1        0.037  -2.527  -6.404  0.00  0.00    +0.320 A 
ATOM     20  C   LIG    1        0.423  -3.293  -7.491  0.00  0.00    -0.170 A 
ATOM     21  C   LIG    1        0.095  -4.681  -7.128  0.00  0.00    -0.120 A 
ATOM     22  C   LIG    1       -0.447  -4.626  -5.904  0.00  0.00    -0.010 A 
ATOM     23  C   LIG    1       -0.946  -5.814  -5.121  0.00  0.00    +0.190 C 
ATOM     24  C   LIG    1        0.318  -5.913  -7.966  0.00  0.00    +0.140 C 
ATOM     25  O   LIG    1       -0.479  -3.351  -5.481  0.00  0.00    -0.150 OA
BRANCH  20  26
ATOM     26  C   LIG    1        1.018  -2.832  -8.710  0.00  0.00    +0.280 C 
ATOM     27  N   LIG    1        1.490  -2.467  -9.676  0.00  0.00    -0.420 NA
ENDBRANCH  20  26
ENDBRANCH  16  19
ENDBRANCH   1  15
TORSDOF 8
