REMARK  Name = ZINCrg000000tGja.0
REMARK                            x       y       z     vdW  Elec       q    Type
REMARK                         _______ _______ _______ _____ _____    ______ ____
ROOT
ATOM      1  O   LIG    1        2.367   4.063  -0.133  0.00  0.00    -0.570 OA
ATOM      2  C   LIG    1        3.449   3.507  -0.113  0.00  0.00    +0.710 C 
ATOM      3  N   LIG    1        4.580   4.230  -0.221  0.00  0.00    -0.630 N 
ATOM      4  C   LIG    1        4.540   5.700  -0.221  0.00  0.00    +0.320 C 
ATOM      5  C   LIG    1        5.542   6.210   0.827  0.00  0.00    +0.210 C 
ATOM      6  N   LIG    1        6.863   5.626   0.558  0.00  0.00    -0.460 N 
ATOM      7  C   LIG    1        6.837   4.164   0.699  0.00  0.00    +0.230 C 
ATOM      8  C   LIG    1        5.889   3.570  -0.348  0.00  0.00    +0.290 C 
ATOM      9  N   LIG    1        3.515   2.167   0.017  0.00  0.00    -0.680 N 
ATOM     10  H   LIG    1        4.371   1.736   0.169  0.00  0.00    +0.410 HD
ENDROOT
BRANCH   6  11
ATOM     11  C   LIG    1        7.828   6.186   1.377  0.00  0.00    +0.490 A 
ATOM     12  N   LIG    1        8.564   5.395   2.144  0.00  0.00    -0.550 NA
ATOM     13  C   LIG    1        9.499   5.898   2.933  0.00  0.00    +0.340 A 
ATOM     14  C   LIG    1        9.696   7.270   2.959  0.00  0.00    -0.110 A 
ATOM     15  C   LIG    1        8.905   8.069   2.148  0.00  0.00    +0.350 A 
ATOM     16  N   LIG    1        7.991   7.501   1.378  0.00  0.00    -0.530 NA
ENDBRANCH   6  11
BRANCH   9  17
ATOM     17  C   LIG    1        2.347   1.395  -0.067  0.00  0.00    +0.090 A 
ATOM     18  C   LIG    1        2.412   0.056  -0.445  0.00  0.00    +0.050 A 
ATOM     19  C   LIG    1        1.235  -0.667  -0.515  0.00  0.00    -0.020 A 
ATOM     20  C   LIG    1        0.034  -0.038  -0.207  0.00  0.00    +0.290 A 
ATOM     21  N   LIG    1        0.010   1.237   0.148  0.00  0.00    -0.500 NA
ATOM     22  C   LIG    1        1.113   1.956   0.225  0.00  0.00    +0.300 A 
BRANCH  20  23
ATOM     23  N   LIG    1       -1.157  -0.757  -0.275  0.00  0.00    -0.480 N 
ATOM     24  C   LIG    1       -1.343  -1.345  -1.609  0.00  0.00    +0.170 C 
ATOM     25  C   LIG    1       -2.630  -2.174  -1.621  0.00  0.00    +0.220 C 
ATOM     26  O   LIG    1       -3.729  -1.343  -1.238  0.00  0.00    -0.380 OA
ATOM     27  C   LIG    1       -3.582  -0.754   0.057  0.00  0.00    +0.220 C 
ATOM     28  C   LIG    1       -2.304   0.089   0.086  0.00  0.00    +0.190 C 
ENDBRANCH  20  23
ENDBRANCH   9  17
TORSDOF 3
