REMARK  Name = ZINCqH0000031BXd.0
REMARK                            x       y       z     vdW  Elec       q    Type
REMARK                         _______ _______ _______ _____ _____    ______ ____
ROOT
ATOM      1  N   LIG    1       -5.698   0.898  -2.014  0.00  0.00    -0.540 NA
ATOM      2  C   LIG    1       -5.668   2.257  -2.569  0.00  0.00    +0.180 C 
ATOM      3  C   LIG    1       -7.098   2.785  -2.706  0.00  0.00    +0.050 C 
ATOM      4  C   LIG    1       -7.894   1.855  -3.626  0.00  0.00    -0.040 C 
ATOM      5  C   LIG    1       -7.869   0.437  -3.050  0.00  0.00    +0.070 C 
ATOM      6  C   LIG    1       -6.417  -0.023  -2.904  0.00  0.00    +0.190 C 
ENDROOT
BRANCH   4   7
ATOM      7  C   LIG    1       -9.320   2.337  -3.717  0.00  0.00    +0.400 C 
ATOM      8  O   LIG    1      -10.146   1.936  -2.925  0.00  0.00    -0.440 OA
BRANCH   7   9
ATOM      9  C   LIG    1       -9.708   3.292  -4.766  0.00  0.00    -0.180 A 
ATOM     10  C   LIG    1       -8.737   3.852  -5.601  0.00  0.00    +0.070 A 
ATOM     11  C   LIG    1       -9.109   4.747  -6.583  0.00  0.00    -0.010 A 
ATOM     12  C   LIG    1      -10.440   5.091  -6.742  0.00  0.00    -0.050 A 
ATOM     13  C   LIG    1      -11.408   4.540  -5.920  0.00  0.00    -0.010 A 
ATOM     14  C   LIG    1      -10.838   6.069  -7.817  0.00  0.00    +0.100 C 
ATOM     15  C   LIG    1      -11.052   3.640  -4.938  0.00  0.00    -0.020 A 
ATOM     16  C   LIG    1      -12.108   3.037  -4.047  0.00  0.00    +0.110 C 
ENDBRANCH   7   9
ENDBRANCH   4   7
BRANCH   1  17
ATOM     17  C   LIG    1       -4.339   0.412  -1.740  0.00  0.00    +0.530 C 
BRANCH  17  21
ATOM     18  N   LIG    1       -2.274   2.967  -0.272  0.00  0.00    -0.500 N 
ATOM     19  C   LIG    1       -2.247   3.336  -1.594  0.00  0.00    +0.500 A 
ATOM     20  N   LIG    1       -2.955   2.495  -2.277  0.00  0.00    -0.280 NA
ATOM     21  N   LIG    1       -3.477   1.544  -1.390  0.00  0.00    -0.380 N 
ATOM     22  C   LIG    1       -3.037   1.863  -0.155  0.00  0.00    +0.470 A 
ATOM     23  S   LIG    1       -3.386   1.020   1.294  0.00  0.00    -0.560 S 
BRANCH  18  24
ATOM     24  C   LIG    1       -1.594   3.660   0.826  0.00  0.00    +0.370 C 
BRANCH  24  26
ATOM     25  C   LIG    1        0.835   3.869   0.966  0.00  0.00    +0.050 C 
ATOM     26  C   LIG    1       -0.213   3.083   1.005  0.00  0.00    -0.060 C 
ENDBRANCH  24  26
ENDBRANCH  18  24
ENDBRANCH  17  21
ENDBRANCH   1  17
TORSDOF 6
