REMARK  Name = ZINCrH000004jGIw.0
REMARK                            x       y       z     vdW  Elec       q    Type
REMARK                         _______ _______ _______ _____ _____    ______ ____
ROOT
ATOM      1  C   LIG    1       -3.601   1.692   0.130  0.00  0.00    +0.560 C 
ATOM      2  N   LIG    1       -2.428   1.038   0.019  0.00  0.00    -0.670 N 
ATOM      3  H   LIG    1       -2.417   0.071  -0.064  0.00  0.00    +0.410 HD
ATOM      4  O   LIG    1       -3.621   2.908   0.137  0.00  0.00    -0.490 OA
ENDROOT
BRANCH   1   9
ATOM      5  C   LIG    1       -6.025  -1.168   0.339  0.00  0.00    -0.690 A 
ATOM      6  C   LIG    1       -7.229  -0.494   0.453  0.00  0.00    +0.180 A 
ATOM      7  C   LIG    1       -7.256   0.889   0.462  0.00  0.00    +0.020 A 
ATOM      8  C   LIG    1       -6.081   1.607   0.357  0.00  0.00    +0.070 A 
ATOM      9  C   LIG    1       -4.863   0.932   0.242  0.00  0.00    -0.150 A 
ATOM     10 CL   LIG    1       -6.117   3.342   0.368  0.00  0.00    -0.010 Cl
ATOM     11  C   LIG    1       -4.844  -0.464   0.228  0.00  0.00    +0.170 A 
BRANCH   5  12
ATOM     12  S   LIG    1       -6.003  -2.930   0.329  0.00  0.00    +2.690 S 
ATOM     13  O   LIG    1       -7.192  -3.350   0.983  0.00  0.00    -0.940 OA
ATOM     14  O   LIG    1       -4.703  -3.317   0.754  0.00  0.00    -0.950 OA
BRANCH  12  16
ATOM     15  C   LIG    1       -4.939  -3.609  -2.063  0.00  0.00    +0.310 C 
ATOM     16  N   LIG    1       -6.141  -3.412  -1.250  0.00  0.00    -1.000 NA
ATOM     17  C   LIG    1       -7.465  -3.643  -1.832  0.00  0.00    +0.310 C 
ENDBRANCH  12  16
ENDBRANCH   5  12
ENDBRANCH   1   9
BRANCH   2  18
ATOM     18  C   LIG    1       -1.224   1.753   0.023  0.00  0.00    +0.130 A 
ATOM     19  C   LIG    1       -1.107   2.912   0.781  0.00  0.00    +0.070 A 
ATOM     20  C   LIG    1        0.082   3.613   0.790  0.00  0.00    +0.050 A 
ATOM     21  C   LIG    1        1.158   3.164   0.038  0.00  0.00    +0.090 A 
ATOM     22  C   LIG    1        1.041   2.010  -0.723  0.00  0.00    -0.030 A 
ATOM     23  C   LIG    1       -0.148   1.308  -0.733  0.00  0.00    +0.040 A 
BRANCH  21  24
ATOM     24  O   LIG    1        2.329   3.856   0.048  0.00  0.00    -0.310 OA
BRANCH  24  25
ATOM     25  C   LIG    1        3.396   3.336  -0.749  0.00  0.00    +0.600 C 
ATOM     26  F   LIG    1        3.717   2.046  -0.314  0.00  0.00    -0.160 F 
ATOM     27  F   LIG    1        4.517   4.163  -0.623  0.00  0.00    -0.130 F 
ATOM     28  F   LIG    1        2.997   3.291  -2.089  0.00  0.00    -0.160 F 
ENDBRANCH  24  25
ENDBRANCH  21  24
ENDBRANCH   2  18
TORSDOF 6
