REMARK  Name = ZINCrH00000No4uX.0
REMARK                            x       y       z     vdW  Elec       q    Type
REMARK                         _______ _______ _______ _____ _____    ______ ____
ROOT
ATOM      1  C   LIG    1        3.120   5.054  -4.049  0.00  0.00    +0.400 C 
ATOM      2  O   LIG    1        3.889   5.051  -3.108  0.00  0.00    -0.490 OA
ENDROOT
BRANCH   1   3
ATOM      3  C   LIG    1        3.264   6.005  -5.069  0.00  0.00    -0.230 C 
ATOM      4  C   LIG    1        4.170   7.005  -4.940  0.00  0.00    +0.280 C 
ATOM      5  N   LIG    1        4.628   7.538  -3.775  0.00  0.00    -0.500 N 
ATOM      6  C   LIG    1        5.558   8.552  -3.996  0.00  0.00    +0.130 A 
ATOM      7  C   LIG    1        6.266   9.347  -3.096  0.00  0.00    -0.010 A 
ATOM      8  C   LIG    1        7.143  10.306  -3.560  0.00  0.00    +0.050 A 
ATOM      9  C   LIG    1        7.326  10.486  -4.918  0.00  0.00    -0.010 A 
ATOM     10  C   LIG    1        6.627   9.701  -5.818  0.00  0.00    +0.070 A 
ATOM     11  C   LIG    1        5.751   8.743  -5.359  0.00  0.00    -0.130 A 
ATOM     12  C   LIG    1        4.197   7.096  -2.446  0.00  0.00    +0.330 C 
ATOM     13  C   LIG    1        4.859   7.748  -6.064  0.00  0.00    -0.010 C 
ATOM     14  C   LIG    1        3.832   8.471  -6.938  0.00  0.00    +0.070 C 
ATOM     15  C   LIG    1        5.695   6.784  -6.909  0.00  0.00    +0.070 C 
ENDBRANCH   1   3
BRANCH   1  16
ATOM     16  C   LIG    1        2.011   4.036  -4.119  0.00  0.00    -0.010 C 
ATOM     17  C   LIG    1        2.466   2.844  -4.965  0.00  0.00    +0.090 C 
BRANCH  16  18
ATOM     18  S   LIG    1        1.605   3.470  -2.449  0.00  0.00    +0.070 S 
BRANCH  18  25
ATOM     19  N   LIG    1       -0.508   1.727  -1.877  0.00  0.00    -0.530 N 
ATOM     20  C   LIG    1       -1.486   1.064  -2.526  0.00  0.00    +0.650 A 
ATOM     21  N   LIG    1       -1.368   1.348  -3.840  0.00  0.00    -0.540 N 
ATOM     22  H   LIG    1       -1.935   1.014  -4.552  0.00  0.00    +0.460 HD
ATOM     23  N   LIG    1       -0.277   2.216  -3.985  0.00  0.00    -0.280 NA
ATOM     24  O   LIG    1       -2.323   0.339  -2.018  0.00  0.00    -0.550 OA
ATOM     25  C   LIG    1        0.222   2.437  -2.803  0.00  0.00    +0.250 A 
BRANCH  19  26
ATOM     26  C   LIG    1       -0.267   1.701  -0.432  0.00  0.00    +0.320 C 
BRANCH  26  28
ATOM     27  C   LIG    1        0.947   0.533   1.413  0.00  0.00    +0.030 C 
ATOM     28  C   LIG    1        0.696   0.560  -0.096  0.00  0.00    +0.000 C 
ENDBRANCH  26  28
ENDBRANCH  19  26
ENDBRANCH  18  25
ENDBRANCH  16  18
ENDBRANCH   1  16
TORSDOF 6
