REMARK  Name = ZINCrD0000071nk6.0
REMARK                            x       y       z     vdW  Elec       q    Type
REMARK                         _______ _______ _______ _____ _____    ______ ____
ROOT
ATOM      1  C   LIG    1       -1.711   3.773   4.878  0.00  0.00    +0.250 C 
ENDROOT
BRANCH   1   2
ATOM      2  O   LIG    1       -0.980   3.271   3.728  0.00  0.00    -0.340 OA
BRANCH   2   3
ATOM      3  C   LIG    1       -1.455   3.595   2.515  0.00  0.00    +0.470 C 
ATOM      4  O   LIG    1       -2.448   4.277   2.417  0.00  0.00    -0.490 OA
BRANCH   3   5
ATOM      5  C   LIG    1       -0.750   3.109   1.275  0.00  0.00    +0.080 C 
BRANCH   5   6
ATOM      6  C   LIG    1       -1.478   3.608   0.054  0.00  0.00    -0.070 A 
ATOM      7  C   LIG    1       -2.798   3.253  -0.156  0.00  0.00    +0.060 A 
ATOM      8  C   LIG    1       -3.468   3.714  -1.274  0.00  0.00    +0.020 A 
ATOM      9  C   LIG    1       -2.816   4.524  -2.186  0.00  0.00    -0.030 A 
ATOM     10  C   LIG    1       -1.494   4.875  -1.977  0.00  0.00    +0.030 A 
ATOM     11 CL   LIG    1       -3.655   5.098  -3.593  0.00  0.00    -0.070 Cl
ATOM     12  C   LIG    1       -0.826   4.417  -0.857  0.00  0.00    +0.040 A 
ENDBRANCH   5   6
BRANCH   5  14
ATOM     13  C   LIG    1       -0.013   1.086   0.008  0.00  0.00    +0.030 C 
ATOM     14  C   LIG    1       -0.729   1.579   1.267  0.00  0.00    +0.000 C 
ATOM     15  C   LIG    1        0.011   1.072   2.506  0.00  0.00    +0.040 C 
ENDBRANCH   5  14
ENDBRANCH   3   5
ENDBRANCH   2   3
ENDBRANCH   1   2
BRANCH   1  16
ATOM     16  C   LIG    1       -1.025   3.304   6.163  0.00  0.00    +0.230 C 
BRANCH  16  17
ATOM     17  O   LIG    1        0.274   3.893   6.252  0.00  0.00    -0.300 OA
BRANCH  17  18
ATOM     18  C   LIG    1        1.021   3.577   7.343  0.00  0.00    +0.190 A 
ATOM     19  C   LIG    1        0.512   2.722   8.309  0.00  0.00    -0.090 A 
ATOM     20  C   LIG    1        1.276   2.398   9.414  0.00  0.00    +0.170 A 
ATOM     21  C   LIG    1        2.542   2.934   9.562  0.00  0.00    -0.720 A 
ATOM     22  C   LIG    1        3.049   3.791   8.603  0.00  0.00    +0.170 A 
ATOM     23  C   LIG    1        2.291   4.114   7.494  0.00  0.00    -0.030 A 
BRANCH  21  24
ATOM     24  S   LIG    1        3.510   2.524  10.976  0.00  0.00    +2.710 S 
ATOM     25  O   LIG    1        4.867   2.733  10.607  0.00  0.00    -0.960 OA
ATOM     26  O   LIG    1        3.017   1.280  11.453  0.00  0.00    -0.960 OA
BRANCH  24  27
ATOM     27  N   LIG    1        3.166   3.643  12.147  0.00  0.00    -1.250 NA
ATOM     28  H   LIG    1        3.603   3.590  13.011  0.00  0.00    +0.420 HD
ATOM     29  H   LIG    1        2.528   4.351  11.968  0.00  0.00    +0.420 HD
ENDBRANCH  24  27
ENDBRANCH  21  24
ENDBRANCH  17  18
ENDBRANCH  16  17
ENDBRANCH   1  16
TORSDOF 10
