REMARK  Name = ZINCvU00000008sI.0
REMARK                            x       y       z     vdW  Elec       q    Type
REMARK                         _______ _______ _______ _____ _____    ______ ____
ROOT
ATOM      1  C   LIG    1       -3.754  -1.020   0.014  0.00  0.00    +0.300 C 
ENDROOT
BRANCH   1   2
ATOM      2  C   LIG    1       -3.537  -2.511   0.005  0.00  0.00    +0.520 C 
ATOM      3  N   LIG    1       -4.595  -3.346   0.006  0.00  0.00    -0.620 N 
ATOM      4  H   LIG    1       -5.496  -2.987   0.012  0.00  0.00    +0.430 HD
ATOM      5  O   LIG    1       -2.410  -2.960  -0.003  0.00  0.00    -0.480 OA
BRANCH   3   6
ATOM      6  C   LIG    1       -4.395  -4.721  -0.003  0.00  0.00    +0.270 A 
ATOM      7  N   LIG    1       -5.334  -5.615   0.002  0.00  0.00    -0.500 NA
ATOM      8  C   LIG    1       -4.956  -6.885  -0.011  0.00  0.00    +0.130 A 
ATOM      9  C   LIG    1       -3.627  -7.091  -0.018  0.00  0.00    -0.110 A 
ATOM     10  S   LIG    1       -2.826  -5.521  -0.014  0.00  0.00    +0.210 S 
BRANCH   8  11
ATOM     11  C   LIG    1       -5.931  -8.003  -0.012  0.00  0.00    -0.030 A 
ATOM     12  C   LIG    1       -5.483  -9.322  -0.026  0.00  0.00    +0.030 A 
ATOM     13  C   LIG    1       -6.395 -10.358  -0.022  0.00  0.00    +0.010 A 
ATOM     14  C   LIG    1       -7.752 -10.089  -0.015  0.00  0.00    -0.080 A 
ATOM     15  C   LIG    1       -8.203  -8.781  -0.006  0.00  0.00    +0.010 A 
ATOM     16  C   LIG    1       -8.743 -11.224  -0.016  0.00  0.00    +0.090 C 
ATOM     17  C   LIG    1       -7.300  -7.737  -0.004  0.00  0.00    +0.050 A 
ENDBRANCH   8  11
ENDBRANCH   3   6
ENDBRANCH   1   2
BRANCH   1  18
ATOM     18  O   LIG    1       -2.469  -0.344   0.012  0.00  0.00    -0.330 OA
BRANCH  18  19
ATOM     19  C   LIG    1       -2.486   1.004   0.019  0.00  0.00    +0.510 C 
ATOM     20  O   LIG    1       -3.546   1.597   0.027  0.00  0.00    -0.480 OA
BRANCH  19  30
ATOM     21  C   LIG    1       -1.243   3.169   0.030  0.00  0.00    +0.190 A 
ATOM     22  C   LIG    1       -0.082   3.884   0.023  0.00  0.00    -0.090 A 
ATOM     23  C   LIG    1        1.155   3.217   0.008  0.00  0.00    +0.020 A 
ATOM     24  C   LIG    1        2.363   3.934   0.000  0.00  0.00    +0.000 A 
ATOM     25  C   LIG    1        3.547   3.261  -0.015  0.00  0.00    +0.050 A 
ATOM     26  C   LIG    1        3.581   1.868  -0.022  0.00  0.00    +0.000 A 
ATOM     27  C   LIG    1        2.432   1.139  -0.015  0.00  0.00    +0.050 A 
ATOM     28  C   LIG    1        1.189   1.798   0.000  0.00  0.00    -0.100 A 
ATOM     29  C   LIG    1       -0.013   1.076   0.008  0.00  0.00    +0.170 A 
ATOM     30  C   LIG    1       -1.219   1.757   0.017  0.00  0.00    -0.150 A 
BRANCH  21  32
ATOM     31  C   LIG    1       -2.391   5.249   0.052  0.00  0.00    +0.250 C 
ATOM     32  O   LIG    1       -2.433   3.821   0.045  0.00  0.00    -0.290 OA
ENDBRANCH  21  32
ENDBRANCH  19  30
ENDBRANCH  18  19
ENDBRANCH   1  18
TORSDOF 7
