REMARK  Name = ZINCvU0000000Jh1.0
REMARK                            x       y       z     vdW  Elec       q    Type
REMARK                         _______ _______ _______ _____ _____    ______ ____
ROOT
ATOM      1  S   LIG    1       -6.270   3.032   3.154  0.00  0.00    +0.050 S 
ENDROOT
BRANCH   1   2
ATOM      2  C   LIG    1       -7.493   2.850   1.900  0.00  0.00    +0.200 A 
ATOM      3  C   LIG    1       -8.855   3.149   2.171  0.00  0.00    -0.170 A 
ATOM      4  C   LIG    1       -9.488   3.615   3.386  0.00  0.00    +0.070 A 
ATOM      5  C   LIG    1      -10.806   3.797   3.291  0.00  0.00    -0.120 A 
ATOM      6  S   LIG    1      -11.386   3.406   1.683  0.00  0.00    +0.200 S 
ATOM      7  C   LIG    1       -9.774   2.982   1.129  0.00  0.00    +0.100 A 
ATOM      8  N   LIG    1       -9.335   2.554  -0.062  0.00  0.00    -0.490 NA
ATOM      9  C   LIG    1       -8.065   2.291  -0.262  0.00  0.00    +0.350 A 
ATOM     10  C   LIG    1       -7.626   1.812  -1.622  0.00  0.00    +0.190 C 
ATOM     11  N   LIG    1       -7.157   2.436   0.686  0.00  0.00    -0.530 NA
BRANCH   5  12
ATOM     12  C   LIG    1      -11.665   4.268   4.398  0.00  0.00    -0.030 A 
ATOM     13  C   LIG    1      -11.109   4.549   5.647  0.00  0.00    +0.030 A 
ATOM     14  C   LIG    1      -11.916   4.993   6.674  0.00  0.00    +0.020 A 
ATOM     15  C   LIG    1      -13.276   5.149   6.471  0.00  0.00    +0.020 A 
ATOM     16  C   LIG    1      -13.834   4.867   5.237  0.00  0.00    +0.020 A 
ATOM     17  C   LIG    1      -13.038   4.428   4.200  0.00  0.00    +0.010 A 
ENDBRANCH   5  12
ENDBRANCH   1   2
BRANCH   1  18
ATOM     18  C   LIG    1       -4.797   2.520   2.234  0.00  0.00    +0.080 C 
BRANCH  18  19
ATOM     19  C   LIG    1       -3.591   2.598   3.133  0.00  0.00    +0.440 C 
ATOM     20  O   LIG    1       -3.714   2.965   4.284  0.00  0.00    -0.430 OA
BRANCH  19  25
ATOM     21  C   LIG    1       -0.117   1.842   2.465  0.00  0.00    -0.220 A 
ATOM     22  C   LIG    1       -0.718   1.572   1.248  0.00  0.00    +0.140 A 
ATOM     23  N   LIG    1       -2.032   1.819   1.354  0.00  0.00    -0.510 N 
ATOM     24  H   LIG    1       -2.682   1.714   0.642  0.00  0.00    +0.430 HD
ATOM     25  C   LIG    1       -2.313   2.244   2.636  0.00  0.00    -0.100 A 
ATOM     26  C   LIG    1       -0.013   1.086   0.008  0.00  0.00    +0.150 C 
ATOM     27  C   LIG    1       -1.133   2.270   3.346  0.00  0.00    +0.000 A 
ATOM     28  C   LIG    1       -0.959   2.677   4.787  0.00  0.00    +0.140 C 
BRANCH  21  29
ATOM     29  C   LIG    1        1.316   1.708   2.781  0.00  0.00    +0.550 C 
ATOM     30  O   LIG    1        2.066   2.649   2.612  0.00  0.00    -0.490 OA
BRANCH  29  32
ATOM     31  C   LIG    1        3.216   0.482   3.547  0.00  0.00    +0.260 C 
ATOM     32  O   LIG    1        1.794   0.542   3.258  0.00  0.00    -0.350 OA
ENDBRANCH  29  32
ENDBRANCH  21  29
ENDBRANCH  19  25
ENDBRANCH  18  19
ENDBRANCH   1  18
TORSDOF 7
