REMARK  Name = ZINCrD000000AmQu.0
REMARK                            x       y       z     vdW  Elec       q    Type
REMARK                         _______ _______ _______ _____ _____    ______ ____
ROOT
ATOM      1  O   LIG    1        7.362  -5.316  -2.291  0.00  0.00    -0.510 OA
ATOM      2  C   LIG    1        7.145  -5.132  -1.111  0.00  0.00    +0.520 C 
ATOM      3  N   LIG    1        5.909  -4.789  -0.699  0.00  0.00    -0.620 N 
ATOM      4  C   LIG    1        4.814  -4.632  -1.666  0.00  0.00    +0.280 C 
ATOM      5  C   LIG    1        4.181  -3.251  -1.475  0.00  0.00    +0.030 C 
ATOM      6  C   LIG    1        3.758  -3.085  -0.014  0.00  0.00    +0.100 C 
ATOM      7  C   LIG    1        4.989  -3.182   0.890  0.00  0.00    +0.020 C 
ATOM      8  C   LIG    1        5.631  -4.563   0.726  0.00  0.00    +0.280 C 
ENDROOT
BRANCH   6   9
ATOM      9  C   LIG    1        3.104  -1.740   0.171  0.00  0.00    +0.290 A 
ATOM     10  N   LIG    1        1.822  -1.522   0.127  0.00  0.00    -0.490 NA
ATOM     11  C   LIG    1        1.576  -0.203   0.333  0.00  0.00    +0.050 A 
ATOM     12  C   LIG    1        0.408   0.562   0.389  0.00  0.00    +0.070 A 
ATOM     13  C   LIG    1        0.485   1.906   0.620  0.00  0.00    +0.000 A 
ATOM     14  C   LIG    1        1.714   2.524   0.801  0.00  0.00    +0.030 A 
ATOM     15  C   LIG    1        2.880   1.789   0.749  0.00  0.00    +0.010 A 
ATOM     16  C   LIG    1        2.821   0.422   0.516  0.00  0.00    +0.050 A 
ATOM     17  N   LIG    1        3.768  -0.577   0.408  0.00  0.00    -0.600 N 
ATOM     18  H   LIG    1        4.729  -0.469   0.486  0.00  0.00    +0.420 HD
ENDBRANCH   6   9
BRANCH   2  19
ATOM     19  C   LIG    1        8.258  -5.289  -0.107  0.00  0.00    +0.220 C 
BRANCH  19  20
ATOM     20  N   LIG    1        9.459  -5.799  -0.783  0.00  0.00    -0.470 N 
ATOM     21  C   LIG    1        9.327  -7.241  -1.081  0.00  0.00    +0.230 C 
ATOM     22  C   LIG    1       10.018  -7.902   0.134  0.00  0.00    +0.060 C 
ATOM     23  C   LIG    1       10.982  -6.828   0.598  0.00  0.00    -0.140 A 
ATOM     24  C   LIG    1       12.078  -6.881   1.432  0.00  0.00    +0.030 A 
ATOM     25  C   LIG    1       12.807  -5.734   1.694  0.00  0.00    +0.000 A 
ATOM     26  C   LIG    1       12.434  -4.535   1.117  0.00  0.00    +0.030 A 
ATOM     27  C   LIG    1       11.336  -4.476   0.283  0.00  0.00    +0.010 A 
ATOM     28  C   LIG    1       10.596  -5.626   0.017  0.00  0.00    +0.090 A 
ENDBRANCH  19  20
ENDBRANCH   2  19
TORSDOF 3
