REMARK  Name = ZINCnE00000rhnzF.0
REMARK                            x       y       z     vdW  Elec       q    Type
REMARK                         _______ _______ _______ _____ _____    ______ ____
ROOT
ATOM      1  C   LIG    1        1.149   8.079  -1.408  0.00  0.00    +0.290 C 
ATOM      2  N   LIG    1       -0.110   7.330  -1.401  0.00  0.00    -0.620 N 
ATOM      3  C   LIG    1       -1.286   7.988  -1.387  0.00  0.00    +0.520 C 
ATOM      4  O   LIG    1       -2.328   7.367  -1.381  0.00  0.00    -0.520 OA
ENDROOT
BRANCH   3   5
ATOM      5  C   LIG    1       -1.307   9.494  -1.379  0.00  0.00    +0.090 C 
BRANCH   5   6
ATOM      6  C   LIG    1       -2.756   9.985  -1.363  0.00  0.00    +0.130 C 
BRANCH   6   7
ATOM      7  S   LIG    1       -2.780  11.799  -1.353  0.00  0.00    -0.140 S 
BRANCH   7   8
ATOM      8  S   LIG    1       -2.120  12.279  -3.233  0.00  0.00    -0.190 S 
BRANCH   8   9
ATOM      9  C   LIG    1       -3.635  12.206  -4.229  0.00  0.00    +0.150 C 
BRANCH   9  10
ATOM     10  C   LIG    1       -4.549  13.373  -3.853  0.00  0.00    -0.040 C 
BRANCH  10  11
ATOM     11  C   LIG    1       -5.808  13.312  -4.680  0.00  0.00    +0.500 C 
ATOM     12  O   LIG    1       -6.674  14.157  -4.534  0.00  0.00    -0.700 OA
ATOM     13  O   LIG    1       -5.959  12.418  -5.495  0.00  0.00    -0.700 OA
ENDBRANCH  10  11
ENDBRANCH   9  10
ENDBRANCH   8   9
ENDBRANCH   7   8
ENDBRANCH   6   7
ENDBRANCH   5   6
ENDBRANCH   3   5
BRANCH   2  14
ATOM     14  C   LIG    1       -0.090   5.865  -1.409  0.00  0.00    +0.310 C 
BRANCH  14  15
ATOM     15  C   LIG    1       -0.070   5.347   0.031  0.00  0.00    +0.320 C 
ATOM     16  F   LIG    1        1.071   5.825   0.683  0.00  0.00    -0.190 F 
ATOM     17  F   LIG    1       -1.213   5.794   0.703  0.00  0.00    -0.180 F 
BRANCH  15  18
ATOM     18  C   LIG    1       -0.050   3.840   0.022  0.00  0.00    -0.160 A 
ATOM     19  C   LIG    1        1.156   3.165   0.008  0.00  0.00    +0.040 A 
ATOM     20  C   LIG    1        1.175   1.783   0.000  0.00  0.00    +0.010 A 
ATOM     21  C   LIG    1       -0.013   1.076   0.008  0.00  0.00    +0.030 A 
ATOM     22  C   LIG    1       -1.219   1.751   0.017  0.00  0.00    +0.010 A 
ATOM     23  C   LIG    1       -1.238   3.133   0.029  0.00  0.00    +0.050 A 
ENDBRANCH  15  18
ENDBRANCH  14  15
ENDBRANCH   2  14
TORSDOF 10
