REMARK  Name = ZINCpe00000MJJgy.0
REMARK                            x       y       z     vdW  Elec       q    Type
REMARK                         _______ _______ _______ _____ _____    ______ ____
ROOT
ATOM      1  N   LIG    1        2.017  -2.519  -1.613  0.00  0.00    -1.000 NA
ATOM      2  C   LIG    1        0.892  -3.144  -2.325  0.00  0.00    +0.300 C 
ATOM      3  C   LIG    1        1.384  -4.430  -2.988  0.00  0.00    +0.200 C 
ATOM      4  N   LIG    1        2.558  -4.132  -3.820  0.00  0.00    -0.530 NA
ATOM      5  C   LIG    1        3.676  -3.637  -3.006  0.00  0.00    +0.270 C 
ATOM      6  C   LIG    1        2.958  -5.306  -4.606  0.00  0.00    +0.200 C 
ATOM      7  C   LIG    1        3.276  -2.314  -2.345  0.00  0.00    +0.330 C 
ENDROOT
BRANCH   5   8
ATOM      8  C   LIG    1        4.879  -3.416  -3.886  0.00  0.00    +0.190 A 
ATOM      9  N   LIG    1        6.115  -3.768  -3.622  0.00  0.00    -0.470 NA
ATOM     10  C   LIG    1        6.838  -3.373  -4.685  0.00  0.00    +0.170 A 
ATOM     11  N   LIG    1        6.023  -2.804  -5.521  0.00  0.00    -0.380 NA
ATOM     12  C   LIG    1        8.323  -3.552  -4.869  0.00  0.00    +0.210 C 
ATOM     13  O   LIG    1        4.892  -2.819  -5.081  0.00  0.00    +0.100 OA
ENDBRANCH   5   8
BRANCH   1  14
ATOM     14  S   LIG    1        1.872  -2.064  -0.027  0.00  0.00    +2.720 S 
ATOM     15  O   LIG    1        0.827  -2.855   0.523  0.00  0.00    -0.960 OA
ATOM     16  O   LIG    1        3.189  -2.038   0.505  0.00  0.00    -0.950 OA
BRANCH  14  20
ATOM     17  N   LIG    1       -0.016   1.345   0.009  0.00  0.00    -0.360 N 
ATOM     18  N   LIG    1        1.311   1.794  -0.001  0.00  0.00    -0.290 NA
ATOM     19  C   LIG    1        2.096   0.748  -0.014  0.00  0.00    +0.160 A 
ATOM     20  C   LIG    1        1.296  -0.399  -0.013  0.00  0.00    -0.820 A 
ATOM     21  C   LIG    1        3.603   0.775  -0.028  0.00  0.00    +0.160 C 
ATOM     22  C   LIG    1        0.002  -0.004   0.002  0.00  0.00    +0.220 A 
ATOM     23  C   LIG    1       -1.203  -0.909   0.009  0.00  0.00    +0.170 C 
BRANCH  17  25
ATOM     24  C   LIG    1       -1.622   2.478   1.466  0.00  0.00    +0.040 C 
ATOM     25  C   LIG    1       -1.212   2.191   0.020  0.00  0.00    +0.320 C 
ENDBRANCH  17  25
ENDBRANCH  14  20
ENDBRANCH   1  14
TORSDOF 4
