REMARK  Name = ZINCnE000001K5zo.1
REMARK                            x       y       z     vdW  Elec       q    Type
REMARK                         _______ _______ _______ _____ _____    ______ ____
ROOT
ATOM      1  N   LIG    1        4.638  -2.096  -0.053  0.00  0.00    -0.730 N 
ATOM      2  H   LIG    1        4.234  -2.978  -0.054  0.00  0.00    +0.400 HD
ATOM      3  C   LIG    1        3.858  -0.998  -0.040  0.00  0.00    +0.660 C 
ATOM      4  N   LIG    1        2.516  -1.124  -0.028  0.00  0.00    -0.710 NA
ATOM      5  O   LIG    1        4.364   0.108  -0.038  0.00  0.00    -0.630 OA
ENDROOT
BRANCH   4   6
ATOM      6  C   LIG    1        1.711   0.009  -0.014  0.00  0.00    +0.360 A 
ATOM      7  N   LIG    1        2.146   1.226  -0.011  0.00  0.00    -0.570 NA
ATOM      8  C   LIG    1        1.246   2.202   0.002  0.00  0.00    +0.120 A 
ATOM      9  C   LIG    1       -0.022   1.755   0.012  0.00  0.00    -0.340 A 
ATOM     10  C   LIG    1       -1.254   2.628   0.034  0.00  0.00    +0.110 C 
ATOM     11  C   LIG    1       -0.841   4.047   0.434  0.00  0.00    +0.010 C 
ATOM     12  C   LIG    1        0.357   4.480  -0.415  0.00  0.00    +0.010 C 
ATOM     13  C   LIG    1        1.594   3.683   0.006  0.00  0.00    +0.100 C 
ATOM     14  S   LIG    1        0.002  -0.004   0.002  0.00  0.00    +0.000 S 
ENDBRANCH   4   6
BRANCH   1  15
ATOM     15  C   LIG    1        6.097  -1.959  -0.066  0.00  0.00    +0.370 C 
BRANCH  15  16
ATOM     16  C   LIG    1        6.712  -3.190  -0.679  0.00  0.00    +0.010 A 
ATOM     17  C   LIG    1        7.761  -3.209  -1.520  0.00  0.00    -0.060 A 
ATOM     18  C   LIG    1        8.001  -4.564  -1.845  0.00  0.00    -0.070 A 
ATOM     19  C   LIG    1        7.084  -5.292  -1.183  0.00  0.00    -0.020 A 
ATOM     20  C   LIG    1        6.952  -6.793  -1.224  0.00  0.00    +0.170 C 
ATOM     21  O   LIG    1        6.309  -4.455  -0.474  0.00  0.00    -0.150 OA
ENDBRANCH  15  16
BRANCH  15  22
ATOM     22  C   LIG    1        6.606  -1.794   1.367  0.00  0.00    +0.170 C 
BRANCH  22  24
ATOM     23  C   LIG    1        6.785  -2.940   3.465  0.00  0.00    +0.180 C 
ATOM     24  O   LIG    1        6.346  -2.989   2.106  0.00  0.00    -0.380 OA
ENDBRANCH  22  24
ENDBRANCH  15  22
ENDBRANCH   1  15
TORSDOF 5
