REMARK  Name = ZINCkj00000y7Aa3.1
REMARK                            x       y       z     vdW  Elec       q    Type
REMARK                         _______ _______ _______ _____ _____    ______ ____
ROOT
ATOM      1  C   LIG    1        1.932  -3.848  -1.437  0.00  0.00    +0.140 C 
ATOM      2  C   LIG    1        3.129  -4.080  -2.382  0.00  0.00    +0.080 C 
ATOM      3  C   LIG    1        3.080  -2.843  -3.318  0.00  0.00    +0.080 C 
ATOM      4  C   LIG    1        2.605  -1.734  -2.346  0.00  0.00    +0.260 C 
ATOM      5  N   LIG    1        1.634  -2.404  -1.454  0.00  0.00    -0.380 N 
ATOM      6  H   LIG    1        0.699  -2.255  -1.801  0.00  0.00    +0.430 HD
ENDROOT
BRANCH   1   7
ATOM      7  C   LIG    1        2.294  -4.287  -0.016  0.00  0.00    +0.320 C 
BRANCH   7  10
ATOM      8  C   LIG    1        0.045  -5.981   0.329  0.00  0.00    +0.100 C 
ATOM      9  C   LIG    1        1.436  -6.554   0.237  0.00  0.00    +0.510 C 
ATOM     10  N   LIG    1        2.486  -5.739   0.012  0.00  0.00    -0.590 N 
ATOM     11  O   LIG    1        1.610  -7.747   0.366  0.00  0.00    -0.500 OA
BRANCH  10  12
ATOM     12  C   LIG    1        3.819  -6.307  -0.205  0.00  0.00    +0.180 C 
ATOM     13  C   LIG    1        3.906  -7.796  -0.545  0.00  0.00    +0.050 C 
ATOM     14  C   LIG    1        4.343  -7.299   0.835  0.00  0.00    +0.020 C 
ENDBRANCH  10  12
ENDBRANCH   7  10
ENDBRANCH   1   7
BRANCH   5  15
ATOM     15  C   LIG    1        1.753  -1.858  -0.096  0.00  0.00    +0.350 C 
BRANCH  15  16
ATOM     16  C   LIG    1        1.322  -0.414  -0.095  0.00  0.00    -0.320 A 
ATOM     17  C   LIG    1        2.137   0.660  -0.204  0.00  0.00    +0.280 A 
ATOM     18  N   LIG    1        1.367   1.767  -0.161  0.00  0.00    -0.350 N 
ATOM     19  N   LIG    1        0.034   1.360  -0.021  0.00  0.00    -0.270 NA
ATOM     20  C   LIG    1        1.841   3.151  -0.245  0.00  0.00    +0.380 C 
ATOM     21  C   LIG    1        0.008   0.052   0.018  0.00  0.00    +0.260 A 
ENDBRANCH  15  16
ENDBRANCH   5  15
TORSDOF 5
