REMARK  Name = ZINCkj00000y7Aa3.0
REMARK                            x       y       z     vdW  Elec       q    Type
REMARK                         _______ _______ _______ _____ _____    ______ ____
ROOT
ATOM      1  C   LIG    1       -0.516   1.871  -1.335  0.00  0.00    +0.150 C 
ATOM      2  C   LIG    1        0.823   1.794  -2.111  0.00  0.00    +0.080 C 
ATOM      3  C   LIG    1        1.836   2.401  -1.114  0.00  0.00    +0.080 C 
ATOM      4  C   LIG    1        1.179   2.248   0.271  0.00  0.00    +0.250 C 
ATOM      5  N   LIG    1       -0.116   1.565   0.063  0.00  0.00    -0.390 N 
ATOM      6  H   LIG    1       -0.008   0.570   0.183  0.00  0.00    +0.430 HD
ENDROOT
BRANCH   1   7
ATOM      7  C   LIG    1       -1.503   0.825  -1.856  0.00  0.00    +0.340 C 
BRANCH   7  10
ATOM      8  C   LIG    1       -3.916  -0.357   0.869  0.00  0.00    +0.120 C 
ATOM      9  C   LIG    1       -2.690  -0.206   0.006  0.00  0.00    +0.520 C 
ATOM     10  N   LIG    1       -2.651   0.743  -0.950  0.00  0.00    -0.600 N 
ATOM     11  O   LIG    1       -1.738  -0.940   0.171  0.00  0.00    -0.540 OA
BRANCH  10  12
ATOM     12  C   LIG    1       -3.758   1.694  -1.083  0.00  0.00    +0.200 C 
ATOM     13  C   LIG    1       -3.693   2.697  -2.236  0.00  0.00    +0.050 C 
ATOM     14  C   LIG    1       -3.462   3.168  -0.799  0.00  0.00    +0.010 C 
ENDBRANCH  10  12
ENDBRANCH   7  10
ENDBRANCH   1   7
BRANCH   5  15
ATOM     15  C   LIG    1       -1.119   2.084   1.003  0.00  0.00    +0.340 C 
BRANCH  15  16
ATOM     16  C   LIG    1       -0.720   1.726   2.411  0.00  0.00    -0.320 A 
ATOM     17  C   LIG    1       -1.073   0.602   3.077  0.00  0.00    +0.290 A 
ATOM     18  N   LIG    1       -0.513   0.658   4.304  0.00  0.00    -0.350 N 
ATOM     19  N   LIG    1        0.200   1.860   4.397  0.00  0.00    -0.270 NA
ATOM     20  C   LIG    1       -0.635  -0.356   5.354  0.00  0.00    +0.380 C 
ATOM     21  C   LIG    1        0.076   2.499   3.263  0.00  0.00    +0.260 A 
ENDBRANCH  15  16
ENDBRANCH   5  15
TORSDOF 5
