REMARK  Name = ZINCpe000000SzwH.0
REMARK                            x       y       z     vdW  Elec       q    Type
REMARK                         _______ _______ _______ _____ _____    ______ ____
ROOT
ATOM      1  C   LIG    1       -0.017   1.393   0.010  0.00  0.00    +0.100 A 
ATOM      2  C   LIG    1       -1.228   2.072   0.019  0.00  0.00    -0.030 A 
ATOM      3  C   LIG    1       -1.243   3.453   0.032  0.00  0.00    +0.020 A 
ATOM      4  C   LIG    1       -0.054   4.159   0.024  0.00  0.00    +0.010 A 
ATOM      5  C   LIG    1        1.153   3.486   0.009  0.00  0.00    +0.040 A 
ATOM      6  C   LIG    1        1.176   2.105   0.002  0.00  0.00    -0.090 A 
ENDROOT
BRANCH   1  12
ATOM      7  C   LIG    1       -2.234  -4.234  -1.391  0.00  0.00    +0.100 C 
ATOM      8  C   LIG    1       -1.785  -3.665  -0.070  0.00  0.00    +0.510 C 
ATOM      9  N   LIG    1       -0.917  -2.635  -0.039  0.00  0.00    -0.620 N 
ATOM     10  C   LIG    1       -0.466  -2.065   1.240  0.00  0.00    +0.300 C 
ATOM     11  C   LIG    1       -0.665  -0.546   1.193  0.00  0.00    +0.180 C 
ATOM     12  N   LIG    1        0.002  -0.004   0.002  0.00  0.00    -0.500 N 
ATOM     13  C   LIG    1       -0.597  -0.532  -1.231  0.00  0.00    +0.190 C 
ATOM     14  C   LIG    1       -0.395  -2.050  -1.284  0.00  0.00    +0.280 C 
ATOM     15  O   LIG    1       -2.204  -4.135   0.967  0.00  0.00    -0.540 OA
ENDBRANCH   1  12
BRANCH   6  16
ATOM     16  C   LIG    1        2.492   1.372  -0.014  0.00  0.00    +0.340 C 
BRANCH  16  17
ATOM     17  N   LIG    1        2.789   0.932  -1.380  0.00  0.00    -0.700 N 
ATOM     18  H   LIG    1        2.170   1.131  -2.099  0.00  0.00    +0.400 HD
ATOM     19  C   LIG    1        3.924   0.252  -1.637  0.00  0.00    +0.600 C 
ATOM     20  O   LIG    1        4.701   0.002  -0.735  0.00  0.00    -0.500 OA
BRANCH  19  21
ATOM     21  C   LIG    1        4.222  -0.190  -3.009  0.00  0.00    -0.020 A 
ATOM     22  N   LIG    1        3.418   0.046  -4.015  0.00  0.00    -0.430 NA
ATOM     23  S   LIG    1        4.024  -0.548  -5.324  0.00  0.00    +0.620 S 
ATOM     24  N   LIG    1        5.436  -1.194  -4.648  0.00  0.00    -0.760 N 
ATOM     25  H   LIG    1        6.138  -1.676  -5.113  0.00  0.00    +0.450 HD
ATOM     26  C   LIG    1        5.386  -0.901  -3.335  0.00  0.00    +0.510 A 
ATOM     27  O   LIG    1        6.247  -1.216  -2.530  0.00  0.00    -0.460 OA
ENDBRANCH  19  21
ENDBRANCH  16  17
ENDBRANCH   6  16
TORSDOF 4
