REMARK  Name = ZINCvU00000008qZ.0
REMARK                            x       y       z     vdW  Elec       q    Type
REMARK                         _______ _______ _______ _____ _____    ______ ____
ROOT
ATOM      1  C   LIG    1        0.063   5.908   1.119  0.00  0.00    +0.270 A 
ATOM      2  N   LIG    1       -0.131   7.181   1.247  0.00  0.00    -0.400 NA
ATOM      3  C   LIG    1       -0.204   7.636   2.503  0.00  0.00    +0.060 A 
ATOM      4  C   LIG    1       -0.060   6.674   3.464  0.00  0.00    -0.040 A 
ATOM      5  S   LIG    1        0.166   5.158   2.707  0.00  0.00    +0.190 S 
ENDROOT
BRANCH   3   6
ATOM      6  C   LIG    1       -0.412   9.003   2.812  0.00  0.00    +0.260 C 
ATOM      7  C   LIG    1       -1.261   9.767   2.031  0.00  0.00    -0.060 C 
ATOM      8  N   LIG    1       -1.470  11.113   2.111  0.00  0.00    -0.450 NA
ATOM      9  C   LIG    1       -2.340  11.464   1.205  0.00  0.00    +0.340 C 
ATOM     10  O   LIG    1       -2.763  10.404   0.490  0.00  0.00    -0.290 OA
ATOM     11  C   LIG    1       -2.134   9.298   0.945  0.00  0.00    +0.480 C 
ATOM     12  O   LIG    1       -2.263   8.157   0.540  0.00  0.00    -0.390 OA
BRANCH   9  13
ATOM     13  C   LIG    1       -2.808  12.849   0.994  0.00  0.00    -0.040 A 
ATOM     14  C   LIG    1       -3.748  13.127   0.001  0.00  0.00    +0.080 A 
ATOM     15  C   LIG    1       -4.182  14.423  -0.191  0.00  0.00    +0.020 A 
ATOM     16  C   LIG    1       -3.687  15.446   0.599  0.00  0.00    +0.070 A 
ATOM     17  C   LIG    1       -2.754  15.178   1.586  0.00  0.00    +0.030 A 
ATOM     18  C   LIG    1       -2.316  13.886   1.792  0.00  0.00    +0.010 A 
ATOM     19 CL   LIG    1       -1.151  13.550   3.035  0.00  0.00    -0.020 Cl
ENDBRANCH   9  13
ENDBRANCH   3   6
BRANCH   1  22
ATOM     20  C   LIG    1       -2.290   4.960  -0.067  0.00  0.00    +0.110 C 
ATOM     21  C   LIG    1       -0.943   4.810  -0.726  0.00  0.00    +0.530 C 
ATOM     22  N   LIG    1        0.169   5.234  -0.091  0.00  0.00    -0.490 N 
ATOM     23  O   LIG    1       -0.858   4.308  -1.827  0.00  0.00    -0.500 OA
BRANCH  22  24
ATOM     24  C   LIG    1        1.430   4.994  -0.652  0.00  0.00    +0.120 A 
ATOM     25  C   LIG    1        1.993   5.920  -1.519  0.00  0.00    -0.050 A 
ATOM     26  C   LIG    1        3.236   5.681  -2.070  0.00  0.00    +0.010 A 
ATOM     27  C   LIG    1        3.920   4.520  -1.760  0.00  0.00    +0.030 A 
ATOM     28  C   LIG    1        3.359   3.592  -0.901  0.00  0.00    +0.010 A 
ATOM     29  C   LIG    1        1.249   7.187  -1.857  0.00  0.00    +0.100 C 
ATOM     30  C   LIG    1        2.119   3.829  -0.342  0.00  0.00    -0.070 A 
ATOM     31  C   LIG    1        1.510   2.820   0.598  0.00  0.00    +0.100 C 
ENDBRANCH  22  24
ENDBRANCH   1  22
TORSDOF 4
