REMARK  Name = ZINCrD000000A1nk.1
REMARK                            x       y       z     vdW  Elec       q    Type
REMARK                         _______ _______ _______ _____ _____    ______ ____
ROOT
ATOM      1  C   LIG    1        8.142   0.006  -2.813  0.00  0.00    +0.490 C 
ATOM      2  N   LIG    1        6.964  -0.282  -2.225  0.00  0.00    -0.610 N 
ATOM      3  C   LIG    1        5.946  -1.070  -2.934  0.00  0.00    +0.270 C 
ATOM      4  C   LIG    1        4.626  -0.292  -2.924  0.00  0.00    +0.020 C 
ATOM      5  C   LIG    1        4.257   0.060  -1.481  0.00  0.00    -0.010 C 
ATOM      6  C   LIG    1        5.346   0.949  -0.876  0.00  0.00    +0.020 C 
ATOM      7  C   LIG    1        6.674   0.185  -0.863  0.00  0.00    +0.250 C 
ATOM      8  O   LIG    1        8.370  -0.385  -3.938  0.00  0.00    -0.530 OA
ENDROOT
BRANCH   1   9
ATOM      9  C   LIG    1        9.176   0.814  -2.073  0.00  0.00    +0.190 C 
BRANCH   9  10
ATOM     10  C   LIG    1        8.816   2.299  -2.153  0.00  0.00    +0.170 C 
ATOM     11  C   LIG    1        9.947   3.161  -1.538  0.00  0.00    +0.040 C 
ATOM     12  C   LIG    1        9.721   4.511  -2.274  0.00  0.00    -0.010 C 
ATOM     13  C   LIG    1        9.231   4.050  -3.664  0.00  0.00    +0.190 C 
ATOM     14  O   LIG    1        8.727   2.717  -3.525  0.00  0.00    -0.370 OA
ENDBRANCH   9  10
BRANCH   9  15
ATOM     15  N   LIG    1       10.495   0.597  -2.682  0.00  0.00    -0.810 NA
ATOM     16  H   LIG    1       10.498   0.878  -3.651  0.00  0.00    +0.360 HD
ATOM     17  H   LIG    1       10.784  -0.365  -2.584  0.00  0.00    +0.350 HD
ENDBRANCH   9  15
ENDBRANCH   1   9
BRANCH   5  18
ATOM     18  C   LIG    1        2.922   0.806  -1.464  0.00  0.00    +0.030 C 
BRANCH  18  19
ATOM     19  C   LIG    1        2.490   1.048  -0.016  0.00  0.00    +0.080 C 
BRANCH  19  20
ATOM     20  C   LIG    1        1.175   1.783   0.000  0.00  0.00    -0.080 A 
ATOM     21  C   LIG    1        1.157   3.165   0.008  0.00  0.00    +0.040 A 
ATOM     22  C   LIG    1       -0.050   3.840   0.022  0.00  0.00    +0.020 A 
ATOM     23  C   LIG    1       -1.238   3.133   0.030  0.00  0.00    +0.060 A 
ATOM     24  C   LIG    1       -1.219   1.750   0.017  0.00  0.00    -0.180 A 
ATOM     25  C   LIG    1       -0.013   1.076   0.008  0.00  0.00    +0.070 A 
BRANCH  24  26
ATOM     26  C   LIG    1       -2.514   0.979   0.019  0.00  0.00    +0.510 C 
ATOM     27  F   LIG    1       -2.333  -0.237  -0.648  0.00  0.00    -0.180 F 
ATOM     28  F   LIG    1       -3.502   1.726  -0.631  0.00  0.00    -0.180 F 
ATOM     29  F   LIG    1       -2.908   0.734   1.339  0.00  0.00    -0.180 F 
ENDBRANCH  24  26
ENDBRANCH  19  20
ENDBRANCH  18  19
ENDBRANCH   5  18
TORSDOF 7
