REMARK  Name = ZINCqH0000003Sqq.0
REMARK                            x       y       z     vdW  Elec       q    Type
REMARK                         _______ _______ _______ _____ _____    ______ ____
ROOT
ATOM      1  N   LIG    1        7.687   2.521  -0.078  0.00  0.00    -0.940 N 
ATOM      2  C   LIG    1        8.327   1.210  -0.216  0.00  0.00    +0.280 C 
ATOM      3  C   LIG    1        7.169   0.200  -0.270  0.00  0.00    +0.100 C 
ATOM      4  C   LIG    1        5.921   1.047  -0.154  0.00  0.00    -0.130 A 
ATOM      5  C   LIG    1        4.588   0.693  -0.143  0.00  0.00    +0.070 A 
ATOM      6  C   LIG    1        3.605   1.674  -0.024  0.00  0.00    -0.050 A 
ATOM      7  C   LIG    1        3.980   3.013   0.079  0.00  0.00    +0.090 A 
ATOM      8  C   LIG    1        5.312   3.360   0.072  0.00  0.00    +0.000 A 
ATOM      9  C   LIG    1        6.299   2.377  -0.047  0.00  0.00    +0.170 A 
ENDROOT
BRANCH   6  10
ATOM     10  C   LIG    1        2.171   1.298  -0.012  0.00  0.00    +0.140 A 
ATOM     11  C   LIG    1        1.764   0.017  -0.015  0.00  0.00    -0.080 A 
ATOM     12  S   LIG    1        0.002  -0.004   0.002  0.00  0.00    +0.050 S 
ATOM     13  C   LIG    1       -0.022   1.757   0.012  0.00  0.00    +0.270 A 
ATOM     14  N   LIG    1        1.196   2.205   0.003  0.00  0.00    -0.490 NA
BRANCH  13  15
ATOM     15  N   LIG    1       -1.164   2.541   0.022  0.00  0.00    -0.440 N 
ATOM     16  C   LIG    1       -1.155   3.469   1.160  0.00  0.00    +0.210 C 
ATOM     17  C   LIG    1       -2.353   4.415   1.058  0.00  0.00    +0.040 C 
ATOM     18  C   LIG    1       -3.646   3.595   1.054  0.00  0.00    +0.010 C 
ATOM     19  C   LIG    1       -3.609   2.603  -0.112  0.00  0.00    +0.000 C 
ATOM     20  C   LIG    1       -4.870   1.738  -0.088  0.00  0.00    +0.030 C 
ATOM     21  C   LIG    1       -2.374   1.710   0.024  0.00  0.00    +0.200 C 
ENDBRANCH  13  15
ENDBRANCH   6  10
BRANCH   1  22
ATOM     22  S   LIG    1        8.494   3.964   0.026  0.00  0.00    +2.610 S 
ATOM     23  O   LIG    1        7.566   4.920  -0.467  0.00  0.00    -0.930 OA
ATOM     24  O   LIG    1        9.726   3.725  -0.642  0.00  0.00    -0.940 OA
BRANCH  22  26
ATOM     25  C   LIG    1        9.516   5.516   2.033  0.00  0.00    +0.090 C 
ATOM     26  C   LIG    1        8.770   4.201   1.804  0.00  0.00    -0.360 C 
ENDBRANCH  22  26
ENDBRANCH   1  22
TORSDOF 4
