REMARK  Name = ZINCkj000005iCaE.0
REMARK                            x       y       z     vdW  Elec       q    Type
REMARK                         _______ _______ _______ _____ _____    ______ ____
ROOT
ATOM      1  C   LIG    1       -2.746   4.457   4.770  0.00  0.00    +0.520 C 
ATOM      2  N   LIG    1       -3.332   5.118   5.788  0.00  0.00    -0.730 N 
ATOM      3  H   LIG    1       -3.740   4.623   6.516  0.00  0.00    +0.410 HD
ATOM      4  O   LIG    1       -2.236   5.076   3.860  0.00  0.00    -0.510 OA
ENDROOT
BRANCH   2   5
ATOM      5  C   LIG    1       -3.353   6.582   5.796  0.00  0.00    +0.230 C 
ATOM      6  C   LIG    1       -3.481   7.085   7.237  0.00  0.00    +0.070 C 
ATOM      7  C   LIG    1       -3.582   8.612   7.231  0.00  0.00    +0.280 C 
ATOM      8  N   LIG    1       -4.762   9.025   6.461  0.00  0.00    -0.510 N 
ATOM      9  C   LIG    1       -4.614   8.608   5.061  0.00  0.00    +0.270 C 
ATOM     10  H   LIG    1       -4.855  10.029   6.503  0.00  0.00    +0.440 HD
ATOM     11  H   LIG    1       -5.586   8.595   6.853  0.00  0.00    +0.430 HD
ATOM     12  C   LIG    1       -4.551   7.081   4.982  0.00  0.00    +0.180 C 
ATOM     13  F   LIG    1       -5.729   6.539   5.504  0.00  0.00    -0.190 F 
ENDBRANCH   2   5
BRANCH   1  14
ATOM     14  C   LIG    1       -2.724   2.950   4.763  0.00  0.00    +0.120 C 
BRANCH  14  17
ATOM     15  C   LIG    1        0.003   1.807   2.410  0.00  0.00    +0.130 A 
ATOM     16  C   LIG    1       -0.649   2.254   3.550  0.00  0.00    -0.060 A 
ATOM     17  C   LIG    1       -2.015   2.465   3.525  0.00  0.00    -0.050 A 
ATOM     18  C   LIG    1       -2.731   2.230   2.366  0.00  0.00    -0.020 A 
ATOM     19  C   LIG    1       -2.082   1.789   1.227  0.00  0.00    +0.050 A 
ATOM     20  C   LIG    1       -0.718   1.572   1.248  0.00  0.00    -0.110 A 
ATOM     21  C   LIG    1       -0.013   1.086   0.008  0.00  0.00    +0.100 C 
BRANCH  15  23
ATOM     22  C   LIG    1        2.023   1.861   3.662  0.00  0.00    +0.240 C 
ATOM     23  O   LIG    1        1.346   1.598   2.432  0.00  0.00    -0.310 OA
ENDBRANCH  15  23
ENDBRANCH  14  17
ENDBRANCH   1  14
TORSDOF 4
