REMARK  Name = ZINCrD000000f6Ve.0
REMARK                            x       y       z     vdW  Elec       q    Type
REMARK                         _______ _______ _______ _____ _____    ______ ____
ROOT
ATOM      1  N   LIG    1       -3.420  10.182  -1.888  0.00  0.00    -0.730 N 
ATOM      2  H   LIG    1       -3.981   9.750  -2.552  0.00  0.00    +0.400 HD
ATOM      3  C   LIG    1       -2.565   9.448  -1.149  0.00  0.00    +0.510 C 
ATOM      4  O   LIG    1       -1.864   9.987  -0.319  0.00  0.00    -0.520 OA
ENDROOT
BRANCH   1   5
ATOM      5  C   LIG    1       -3.503  11.631  -1.689  0.00  0.00    +0.250 C 
BRANCH   5   6
ATOM      6  C   LIG    1       -4.466  11.934  -0.540  0.00  0.00    +0.160 C 
BRANCH   6   8
ATOM      7  C   LIG    1       -3.477  10.973   1.718  0.00  0.00    +0.030 C 
ATOM      8  C   LIG    1       -3.916  11.399   0.716  0.00  0.00    -0.200 C 
ENDBRANCH   6   8
ENDBRANCH   5   6
BRANCH   5   9
ATOM      9  C   LIG    1       -4.012  12.293  -2.971  0.00  0.00    +0.080 C 
BRANCH   9  10
ATOM     10  C   LIG    1       -3.003  12.099  -4.073  0.00  0.00    -0.080 A 
ATOM     11  C   LIG    1       -2.004  13.034  -4.268  0.00  0.00    +0.010 A 
ATOM     12  C   LIG    1       -1.075  12.854  -5.276  0.00  0.00    +0.000 A 
ATOM     13  C   LIG    1       -1.151  11.742  -6.095  0.00  0.00    +0.000 A 
ATOM     14  C   LIG    1       -2.153  10.809  -5.902  0.00  0.00    +0.000 A 
ATOM     15  C   LIG    1       -3.079  10.988  -4.892  0.00  0.00    +0.010 A 
ENDBRANCH   9  10
ENDBRANCH   5   9
ENDBRANCH   1   5
BRANCH   3  16
ATOM     16  C   LIG    1       -2.480   7.957  -1.353  0.00  0.00    +0.040 C 
BRANCH  16  17
ATOM     17  C   LIG    1       -1.442   7.369  -0.395  0.00  0.00    +0.080 C 
BRANCH  17  18
ATOM     18  C   LIG    1       -1.446   5.844  -0.512  0.00  0.00    +0.010 C 
ATOM     19  C   LIG    1       -0.974   5.442  -1.910  0.00  0.00    +0.110 C 
ATOM     20  C   LIG    1       -0.700   3.960  -1.945  0.00  0.00    -0.130 A 
ATOM     21  C   LIG    1       -0.932   3.242  -3.102  0.00  0.00    +0.050 A 
ATOM     22  C   LIG    1       -0.653   1.889  -3.145  0.00  0.00    -0.010 A 
ATOM     23  C   LIG    1       -0.140   1.250  -2.030  0.00  0.00    +0.040 A 
ATOM     24  C   LIG    1        0.083   1.960  -0.867  0.00  0.00    -0.020 A 
ATOM     25  C   LIG    1       -0.198   3.320  -0.820  0.00  0.00    +0.160 A 
ATOM     26  N   LIG    1        0.001   4.033   0.365  0.00  0.00    -0.670 N 
ATOM     27  H   LIG    1        0.524   3.638   1.080  0.00  0.00    +0.410 HD
ATOM     28  C   LIG    1       -0.524   5.260   0.525  0.00  0.00    +0.520 C 
ATOM     29  O   LIG    1       -0.252   5.904   1.517  0.00  0.00    -0.510 OA
ENDBRANCH  17  18
ENDBRANCH  16  17
ENDBRANCH   3  16
TORSDOF 8
