REMARK  Name = ZINCpe00000VRf4Y.0
REMARK                            x       y       z     vdW  Elec       q    Type
REMARK                         _______ _______ _______ _____ _____    ______ ____
ROOT
ATOM      1  O   LIG    1        0.002  -0.004   0.002  0.00  0.00    -0.520 OA
ATOM      2  C   LIG    1       -0.014   1.209   0.009  0.00  0.00    +0.510 C 
ATOM      3  N   LIG    1       -1.191   1.867   0.018  0.00  0.00    -0.740 N 
ATOM      4  H   LIG    1       -1.204   2.837   0.023  0.00  0.00    +0.400 HD
ENDROOT
BRANCH   3   5
ATOM      5  C   LIG    1       -2.449   1.117   0.020  0.00  0.00    +0.270 C 
BRANCH   5   6
ATOM      6  C   LIG    1       -3.626   2.095   0.031  0.00  0.00    +0.110 C 
BRANCH   6   7
ATOM      7  C   LIG    1       -4.920   1.324   0.033  0.00  0.00    -0.170 A 
ATOM      8  C   LIG    1       -5.662   1.007  -1.040  0.00  0.00    +0.230 A 
ATOM      9  N   LIG    1       -6.767   0.300  -0.651  0.00  0.00    -0.590 N 
ATOM     10  H   LIG    1       -7.450  -0.041  -1.249  0.00  0.00    +0.420 HD
ATOM     11  C   LIG    1       -6.768   0.149   0.718  0.00  0.00    +0.090 A 
ATOM     12  C   LIG    1       -7.636  -0.467   1.613  0.00  0.00    -0.010 A 
ATOM     13  C   LIG    1       -7.355  -0.448   2.962  0.00  0.00    +0.030 A 
ATOM     14  C   LIG    1       -6.213   0.180   3.438  0.00  0.00    -0.020 A 
ATOM     15  C   LIG    1       -5.346   0.791   2.577  0.00  0.00    +0.050 A 
ATOM     16  C   LIG    1       -5.611   0.784   1.206  0.00  0.00    -0.100 A 
ENDBRANCH   6   7
ENDBRANCH   5   6
ENDBRANCH   3   5
BRANCH   2  17
ATOM     17  C   LIG    1        1.280   1.980   0.001  0.00  0.00    +0.210 C 
BRANCH  17  18
ATOM     18  N   LIG    1        2.410   1.040  -0.015  0.00  0.00    -0.520 NA
ATOM     19  C   LIG    1        2.473   0.271   1.235  0.00  0.00    +0.190 C 
ATOM     20  C   LIG    1        3.611  -0.748   1.147  0.00  0.00    +0.190 C 
ATOM     21  N   LIG    1        4.877  -0.045   0.901  0.00  0.00    -0.540 NA
ATOM     22  C   LIG    1        4.814   0.724  -0.350  0.00  0.00    +0.180 C 
ATOM     23  C   LIG    1        3.676   1.744  -0.262  0.00  0.00    +0.190 C 
BRANCH  21  24
ATOM     24  C   LIG    1        6.006  -0.984   0.885  0.00  0.00    +0.180 C 
BRANCH  24  25
ATOM     25  C   LIG    1        6.192  -1.583   2.281  0.00  0.00    +0.030 C 
BRANCH  25  26
ATOM     26  C   LIG    1        7.368  -2.561   2.264  0.00  0.00    +0.170 C 
BRANCH  26  27
ATOM     27  O   LIG    1        7.541  -3.119   3.568  0.00  0.00    -0.570 OA
ATOM     28  H   LIG    1        8.271  -3.750   3.632  0.00  0.00    +0.380 HD
ENDBRANCH  26  27
ENDBRANCH  25  26
ENDBRANCH  24  25
ENDBRANCH  21  24
ENDBRANCH  17  18
ENDBRANCH   2  17
TORSDOF 9
