REMARK  Name = ZINCc70000000hpQ.0
REMARK                            x       y       z     vdW  Elec       q    Type
REMARK                         _______ _______ _______ _____ _____    ______ ____
ROOT
ATOM      1  C   LIG    1        4.018   0.639  -1.474  0.00  0.00    +0.260 C 
ENDROOT
BRANCH   1   3
ATOM      2  C   LIG    1        6.146   0.616  -2.660  0.00  0.00    +0.550 C 
ATOM      3  N   LIG    1        5.482   0.619  -1.487  0.00  0.00    -0.730 N 
ATOM      4  H   LIG    1        5.975   0.608  -0.652  0.00  0.00    +0.400 HD
ATOM      5  O   LIG    1        5.529   0.630  -3.708  0.00  0.00    -0.540 OA
BRANCH   2   7
ATOM      6  C   LIG    1        8.271   0.593  -3.831  0.00  0.00    +0.160 C 
ATOM      7  C   LIG    1        7.617   0.596  -2.674  0.00  0.00    -0.090 C 
ENDBRANCH   2   7
ENDBRANCH   1   3
BRANCH   1   8
ATOM      8  C   LIG    1        3.521   0.638  -0.027  0.00  0.00    +0.300 C 
BRANCH   8   9
ATOM      9  N   LIG    1        2.056   0.658  -0.014  0.00  0.00    -0.460 N 
ATOM     10  C   LIG    1        1.259   1.771  -0.000  0.00  0.00    +0.120 A 
ATOM     11  C   LIG    1       -0.016   1.337   0.009  0.00  0.00    +0.140 A 
ATOM     12  N   LIG    1        0.002  -0.004   0.002  0.00  0.00    -0.490 NA
ATOM     13  C   LIG    1        1.240  -0.418  -0.012  0.00  0.00    +0.390 A 
ENDBRANCH   8   9
ENDBRANCH   1   8
TORSDOF 4
