REMARK  Name = ZINCpe000000YzkC.0
REMARK                            x       y       z     vdW  Elec       q    Type
REMARK                         _______ _______ _______ _____ _____    ______ ____
ROOT
ATOM      1  N   LIG    1       -1.960   2.365  -0.676  0.00  0.00    -0.500 NA
ATOM      2  C   LIG    1       -1.565   2.817   0.682  0.00  0.00    +0.170 C 
ATOM      3  C   LIG    1       -0.778   1.605   1.246  0.00  0.00    +0.040 C 
ATOM      4  C   LIG    1       -0.013   1.086   0.008  0.00  0.00    +0.030 C 
ATOM      5  C   LIG    1       -0.799   1.616  -1.205  0.00  0.00    +0.180 C 
ENDROOT
BRANCH   5   6
ATOM      6  C   LIG    1       -1.273   0.464  -2.053  0.00  0.00    -0.070 A 
ATOM      7  C   LIG    1       -2.382  -0.265  -1.668  0.00  0.00    +0.060 A 
ATOM      8  C   LIG    1       -2.821  -1.322  -2.443  0.00  0.00    +0.010 A 
ATOM      9  C   LIG    1       -2.148  -1.655  -3.609  0.00  0.00    +0.050 A 
ATOM     10  O   LIG    1       -2.586  -2.703  -4.358  0.00  0.00    -0.310 OA
ATOM     11  C   LIG    1       -2.114  -2.772  -5.708  0.00  0.00    +0.220 C 
ATOM     12  C   LIG    1       -0.600  -2.521  -5.700  0.00  0.00    +0.220 C 
ATOM     13  O   LIG    1       -0.363  -1.224  -5.142  0.00  0.00    -0.310 OA
ATOM     14  C   LIG    1       -1.034  -0.920  -3.998  0.00  0.00    +0.050 A 
ATOM     15  C   LIG    1       -0.602   0.142  -3.218  0.00  0.00    +0.020 A 
ENDBRANCH   5   6
BRANCH   1  16
ATOM     16  C   LIG    1       -2.285   3.509  -1.538  0.00  0.00    +0.220 C 
BRANCH  16  17
ATOM     17  C   LIG    1       -3.318   4.396  -0.840  0.00  0.00    -0.320 C 
BRANCH  17  18
ATOM     18  S   LIG    1       -3.720   5.809  -1.904  0.00  0.00    +2.420 S 
ATOM     19  O   LIG    1       -4.369   5.326  -3.072  0.00  0.00    -0.930 OA
ATOM     20  O   LIG    1       -2.560   6.618  -2.039  0.00  0.00    -0.930 OA
BRANCH  18  21
ATOM     21  C   LIG    1       -4.934   6.704  -0.896  0.00  0.00    -0.320 C 
BRANCH  21  22
ATOM     22  C   LIG    1       -5.398   7.953  -1.646  0.00  0.00    +0.080 C 
BRANCH  22  26
ATOM     23  N   LIG    1       -6.958   9.837  -1.271  0.00  0.00    -0.850 N 
ATOM     24  H   LIG    1       -7.607  10.315  -0.732  0.00  0.00    +0.410 HD
ATOM     25  H   LIG    1       -6.705  10.179  -2.143  0.00  0.00    +0.400 HD
ATOM     26  C   LIG    1       -6.407   8.697  -0.809  0.00  0.00    +0.530 C 
ATOM     27  O   LIG    1       -6.723   8.269   0.281  0.00  0.00    -0.540 OA
ENDBRANCH  22  26
ENDBRANCH  21  22
ENDBRANCH  18  21
ENDBRANCH  17  18
ENDBRANCH  16  17
ENDBRANCH   1  16
TORSDOF 7
