REMARK  Name = ZINCrH000004qKjv.1
REMARK                            x       y       z     vdW  Elec       q    Type
REMARK                         _______ _______ _______ _____ _____    ______ ____
ROOT
ATOM      1  N   LIG    1       -1.158   2.093   0.542  0.00  0.00    -0.490 N 
ATOM      2  C   LIG    1       -2.231   1.689  -0.377  0.00  0.00    +0.210 C 
ATOM      3  C   LIG    1       -3.525   2.413   0.004  0.00  0.00    +0.210 C 
ATOM      4  N   LIG    1       -3.305   3.865  -0.052  0.00  0.00    -0.530 NA
ATOM      5  C   LIG    1       -2.232   4.269   0.867  0.00  0.00    +0.190 C 
ATOM      6  C   LIG    1       -0.939   3.545   0.486  0.00  0.00    +0.200 C 
ENDROOT
BRANCH   1  10
ATOM      7  C   LIG    1        1.202  -2.184   0.001  0.00  0.00    +0.130 C 
ATOM      8  C   LIG    1        1.195  -0.677  -0.002  0.00  0.00    +0.010 A 
ATOM      9  C   LIG    1        0.028   0.008   0.273  0.00  0.00    +0.000 A 
ATOM     10  C   LIG    1        0.022   1.397   0.270  0.00  0.00    +0.180 A 
ATOM     11  C   LIG    1        1.191   2.093  -0.011  0.00  0.00    -0.030 A 
ATOM     12  C   LIG    1        2.355   1.402  -0.285  0.00  0.00    +0.130 A 
ATOM     13  C   LIG    1        2.357   0.019  -0.282  0.00  0.00    -0.080 A 
BRANCH  13  14
ATOM     14  N   LIG    1        3.606  -0.718  -0.577  0.00  0.00    +0.040 N 
ATOM     15  O   LIG    1        3.586  -1.931  -0.689  0.00  0.00    -0.160 OA
ATOM     16  O   LIG    1        4.655  -0.112  -0.707  0.00  0.00    -0.170 OA
ENDBRANCH  13  14
ENDBRANCH   1  10
BRANCH   4  17
ATOM     17  C   LIG    1       -4.547   4.597   0.234  0.00  0.00    +0.240 C 
BRANCH  17  18
ATOM     18  C   LIG    1       -5.544   4.345  -0.868  0.00  0.00    -0.060 A 
ATOM     19  C   LIG    1       -5.723   5.269  -1.850  0.00  0.00    +0.050 A 
ATOM     20  C   LIG    1       -6.640   5.057  -2.878  0.00  0.00    +0.020 A 
ATOM     21  C   LIG    1       -7.381   3.917  -2.929  0.00  0.00    +0.030 A 
ATOM     22  C   LIG    1       -7.222   2.941  -1.932  0.00  0.00    -0.100 A 
ATOM     23  C   LIG    1       -7.969   1.748  -1.947  0.00  0.00    +0.080 A 
ATOM     24  C   LIG    1       -7.761   0.844  -0.945  0.00  0.00    -0.040 A 
ATOM     25  C   LIG    1       -6.830   1.116   0.055  0.00  0.00    +0.290 A 
ATOM     26  N   LIG    1       -6.136   2.229   0.067  0.00  0.00    -0.470 NA
ATOM     27  C   LIG    1       -6.288   3.152  -0.888  0.00  0.00    +0.130 A 
ENDBRANCH  17  18
ENDBRANCH   4  17
TORSDOF 4
