REMARK  Name = ZINCrD0000074p65.0
REMARK                            x       y       z     vdW  Elec       q    Type
REMARK                         _______ _______ _______ _____ _____    ______ ____
ROOT
ATOM      1  O   LIG    1        5.040  -4.127   0.676  0.00  0.00    -0.340 OA
ENDROOT
BRANCH   1   2
ATOM      2  C   LIG    1        5.054  -2.797   0.897  0.00  0.00    +0.510 C 
ATOM      3  O   LIG    1        6.111  -2.199   0.936  0.00  0.00    -0.480 OA
BRANCH   2   4
ATOM      4  C   LIG    1        3.788  -2.069   1.092  0.00  0.00    +0.100 A 
ATOM      5  C   LIG    1        3.827  -0.731   1.313  0.00  0.00    +0.080 A 
ATOM      6  C   LIG    1        2.575   0.001   1.508  0.00  0.00    -0.020 A 
ATOM      7  C   LIG    1        2.557   1.377   1.739  0.00  0.00    +0.030 A 
ATOM      8  C   LIG    1        1.351   2.021   1.916  0.00  0.00    +0.040 A 
ATOM      9  C   LIG    1        0.158   1.315   1.868  0.00  0.00    +0.020 A 
ATOM     10  C   LIG    1        0.152  -0.046   1.642  0.00  0.00    +0.090 A 
ATOM     11  C   LIG    1        1.358  -0.718   1.460  0.00  0.00    -0.130 A 
ATOM     12  C   LIG    1        1.408  -2.167   1.215  0.00  0.00    +0.550 A 
ATOM     13  O   LIG    1        0.380  -2.817   1.167  0.00  0.00    -0.520 OA
ATOM     14  N   LIG    1        2.601  -2.769   1.045  0.00  0.00    -0.620 N 
ATOM     15  H   LIG    1        2.626  -3.725   0.883  0.00  0.00    +0.430 HD
ENDBRANCH   2   4
ENDBRANCH   1   2
BRANCH   1  16
ATOM     16  C   LIG    1        6.324  -4.778   0.493  0.00  0.00    +0.250 C 
BRANCH  16  17
ATOM     17  C   LIG    1        6.111  -6.252   0.259  0.00  0.00    +0.430 C 
ATOM     18  O   LIG    1        4.987  -6.708   0.248  0.00  0.00    -0.450 OA
BRANCH  17  22
ATOM     19  C   LIG    1       10.873  -7.973  -0.305  0.00  0.00    +0.130 C 
ATOM     20  C   LIG    1        9.373  -7.877  -0.202  0.00  0.00    +0.020 A 
ATOM     21  C   LIG    1        8.679  -6.749   0.021  0.00  0.00    -0.010 A 
ATOM     22  C   LIG    1        7.261  -7.133   0.045  0.00  0.00    -0.270 A 
ATOM     23  C   LIG    1        7.235  -8.496  -0.181  0.00  0.00    +0.130 A 
ATOM     24  C   LIG    1        6.000  -9.357  -0.254  0.00  0.00    +0.150 C 
ATOM     25  N   LIG    1        8.503  -8.922  -0.325  0.00  0.00    -0.410 N 
BRANCH  25  26
ATOM     26  C   LIG    1        8.895 -10.310  -0.580  0.00  0.00    +0.180 C 
ATOM     27  C   LIG    1        9.903 -10.565  -1.701  0.00  0.00    +0.060 C 
ATOM     28  C   LIG    1        8.433 -10.945  -1.893  0.00  0.00    +0.040 C 
ENDBRANCH  25  26
ENDBRANCH  17  22
ENDBRANCH  16  17
ENDBRANCH   1  16
TORSDOF 6
