REMARK  Name = ZINCtV00000L6jJA.0
REMARK                            x       y       z     vdW  Elec       q    Type
REMARK                         _______ _______ _______ _____ _____    ______ ____
ROOT
ATOM      1  C   LIG    1       -0.657   1.853   1.412  0.00  0.00    +0.240 C 
ENDROOT
BRANCH   1   2
ATOM      2  C   LIG    1       -0.804   3.352   1.455  0.00  0.00    +0.510 C 
ATOM      3  N   LIG    1       -1.917   3.934   0.965  0.00  0.00    -0.660 N 
ATOM      4  H   LIG    1       -2.653   3.386   0.651  0.00  0.00    +0.410 HD
ATOM      5  O   LIG    1        0.079   4.035   1.930  0.00  0.00    -0.500 OA
BRANCH   3   6
ATOM      6  C   LIG    1       -2.010   5.329   0.910  0.00  0.00    +0.150 A 
ATOM      7  C   LIG    1       -0.858   6.104   0.902  0.00  0.00    +0.020 A 
ATOM      8  C   LIG    1       -0.954   7.481   0.848  0.00  0.00    +0.020 A 
ATOM      9  C   LIG    1       -2.195   8.088   0.801  0.00  0.00    -0.010 A 
ATOM     10  C   LIG    1       -3.345   7.319   0.808  0.00  0.00    +0.030 A 
ATOM     11  C   LIG    1       -3.256   5.942   0.857  0.00  0.00    -0.100 A 
BRANCH  11  12
ATOM     12  C   LIG    1       -4.509   5.104   0.858  0.00  0.00    -0.030 C 
ATOM     13  C   LIG    1       -4.497   4.171   2.070  0.00  0.00    +0.030 C 
ATOM     14  C   LIG    1       -4.568   4.273  -0.425  0.00  0.00    +0.040 C 
ATOM     15  C   LIG    1       -5.733   6.019   0.930  0.00  0.00    +0.040 C 
ENDBRANCH  11  12
ENDBRANCH   3   6
ENDBRANCH   1   2
BRANCH   1  17
ATOM     16  C   LIG    1        1.023   1.945  -0.435  0.00  0.00    +0.030 C 
ATOM     17  C   LIG    1       -0.349   1.411  -0.020  0.00  0.00    -0.020 C 
ATOM     18  C   LIG    1       -0.345  -0.117  -0.092  0.00  0.00    +0.030 C 
ENDBRANCH   1  17
BRANCH   1  19
ATOM     19  N   LIG    1        0.439   1.445   2.295  0.00  0.00    -0.710 N 
ATOM     20  H   LIG    1        1.235   1.995   2.367  0.00  0.00    +0.420 HD
BRANCH  19  21
ATOM     21  C   LIG    1        0.341   0.260   3.029  0.00  0.00    +0.260 A 
ATOM     22  C   LIG    1       -0.839  -0.472   3.014  0.00  0.00    -0.050 A 
ATOM     23  C   LIG    1       -0.933  -1.643   3.741  0.00  0.00    +0.130 A 
ATOM     24  C   LIG    1        0.145  -2.088   4.482  0.00  0.00    -0.230 A 
ATOM     25  C   LIG    1        1.323  -1.362   4.500  0.00  0.00    +0.140 A 
ATOM     26  C   LIG    1        1.425  -0.192   3.772  0.00  0.00    -0.120 A 
ATOM     27 CL   LIG    1        2.906   0.715   3.789  0.00  0.00    -0.050 Cl
BRANCH  24  28
ATOM     28  C   LIG    1        0.039  -3.366   5.273  0.00  0.00    +0.520 C 
ATOM     29  F   LIG    1       -1.287  -3.555   5.677  0.00  0.00    -0.180 F 
ATOM     30  F   LIG    1        0.863  -3.287   6.400  0.00  0.00    -0.180 F 
ATOM     31  F   LIG    1        0.441  -4.443   4.475  0.00  0.00    -0.180 F 
ENDBRANCH  24  28
ENDBRANCH  19  21
ENDBRANCH   1  19
TORSDOF 7
