REMARK  Name = ZINCqH0000003bK8.0
REMARK                            x       y       z     vdW  Elec       q    Type
REMARK                         _______ _______ _______ _____ _____    ______ ____
ROOT
ATOM      1  N   LIG    1        0.298   3.555   1.836  0.00  0.00    -0.720 N 
ATOM      2  H   LIG    1        0.970   3.999   1.295  0.00  0.00    +0.400 HD
ATOM      3  C   LIG    1       -0.216   2.375   1.436  0.00  0.00    +0.540 C 
ATOM      4  O   LIG    1       -1.055   1.819   2.112  0.00  0.00    -0.510 OA
ENDROOT
BRANCH   1   5
ATOM      5  C   LIG    1       -0.157   4.166   3.087  0.00  0.00    +0.310 C 
BRANCH   5   6
ATOM      6  C   LIG    1        0.579   5.490   3.305  0.00  0.00    -0.090 C 
ATOM      7  C   LIG    1        0.284   6.435   2.138  0.00  0.00    +0.070 C 
ATOM      8  C   LIG    1        2.084   5.230   3.383  0.00  0.00    +0.070 C 
BRANCH   6  11
ATOM      9  N   LIG    1        0.624   7.299   4.991  0.00  0.00    -0.730 N 
ATOM     10  H   LIG    1        1.296   7.744   4.450  0.00  0.00    +0.400 HD
ATOM     11  C   LIG    1        0.110   6.119   4.591  0.00  0.00    +0.530 C 
ATOM     12  O   LIG    1       -0.729   5.563   5.268  0.00  0.00    -0.530 OA
BRANCH   9  14
ATOM     13  C   LIG    1        0.905   9.234   6.460  0.00  0.00    +0.030 C 
ATOM     14  C   LIG    1        0.169   7.911   6.242  0.00  0.00    +0.250 C 
ENDBRANCH   9  14
ENDBRANCH   6  11
ENDBRANCH   5   6
ENDBRANCH   1   5
BRANCH   3  15
ATOM     15  C   LIG    1        0.253   1.746   0.149  0.00  0.00    +0.040 C 
BRANCH  15  16
ATOM     16  C   LIG    1       -0.446   2.401  -1.014  0.00  0.00    -0.090 A 
ATOM     17  C   LIG    1       -1.822   2.321  -1.127  0.00  0.00    +0.040 A 
ATOM     18  C   LIG    1       -2.463   2.926  -2.192  0.00  0.00    +0.010 A 
ATOM     19  C   LIG    1       -1.729   3.603  -3.148  0.00  0.00    +0.010 A 
ATOM     20  C   LIG    1       -0.353   3.678  -3.037  0.00  0.00    +0.000 A 
ATOM     21  C   LIG    1        0.288   3.077  -1.970  0.00  0.00    +0.010 A 
ENDBRANCH  15  16
BRANCH  15  22
ATOM     22  S   LIG    1       -0.134  -0.026   0.167  0.00  0.00    -0.060 S 
BRANCH  22  23
ATOM     23  C   LIG    1        0.666  -0.621  -1.286  0.00  0.00    -0.140 A 
ATOM     24  C   LIG    1       -0.049  -0.752  -2.471  0.00  0.00    +0.070 A 
ATOM     25  C   LIG    1        0.583  -1.214  -3.609  0.00  0.00    +0.000 A 
ATOM     26  C   LIG    1        1.922  -1.555  -3.568  0.00  0.00    +0.040 A 
ATOM     27  C   LIG    1        2.635  -1.431  -2.389  0.00  0.00    +0.000 A 
ATOM     28  C   LIG    1        2.012  -0.965  -1.249  0.00  0.00    +0.060 A 
ENDBRANCH  22  23
ENDBRANCH  15  22
ENDBRANCH   3  15
TORSDOF 8
