REMARK  Name = ZINCvU000000093y.0
REMARK                            x       y       z     vdW  Elec       q    Type
REMARK                         _______ _______ _______ _____ _____    ______ ____
ROOT
ATOM      1  C   LIG    1       -2.720  -2.326  -1.296  0.00  0.00    +0.530 C 
ATOM      2  N   LIG    1       -3.019  -3.151  -2.319  0.00  0.00    -0.610 N 
ATOM      3  C   LIG    1       -2.131  -3.473  -3.451  0.00  0.00    +0.230 C 
ATOM      4  C   LIG    1       -2.629  -4.850  -3.963  0.00  0.00    +0.170 C 
ATOM      5  C   LIG    1       -4.164  -4.708  -3.787  0.00  0.00    +0.070 C 
ATOM      6  C   LIG    1       -4.287  -3.872  -2.495  0.00  0.00    +0.270 C 
ATOM      7  O   LIG    1       -3.533  -2.129  -0.418  0.00  0.00    -0.510 OA
ENDROOT
BRANCH   6   8
ATOM      8  C   LIG    1       -5.423  -2.890  -2.624  0.00  0.00    -0.060 A 
ATOM      9  C   LIG    1       -5.252  -1.728  -3.353  0.00  0.00    +0.030 A 
ATOM     10  C   LIG    1       -6.295  -0.828  -3.474  0.00  0.00    +0.070 A 
ATOM     11  C   LIG    1       -7.505  -1.087  -2.859  0.00  0.00    -0.180 A 
ATOM     12  C   LIG    1       -7.675  -2.246  -2.126  0.00  0.00    +0.070 A 
ATOM     13  C   LIG    1       -6.633  -3.148  -2.008  0.00  0.00    +0.040 A 
BRANCH  11  14
ATOM     14  C   LIG    1       -8.641  -0.104  -2.988  0.00  0.00    +0.510 C 
ATOM     15  F   LIG    1       -9.859  -0.789  -2.927  0.00  0.00    -0.180 F 
ATOM     16  F   LIG    1       -8.542   0.564  -4.213  0.00  0.00    -0.180 F 
ATOM     17  F   LIG    1       -8.575   0.824  -1.944  0.00  0.00    -0.180 F 
ENDBRANCH  11  14
ENDBRANCH   6   8
BRANCH   4  18
ATOM     18  O   LIG    1       -2.286  -5.037  -5.338  0.00  0.00    -0.550 OA
ATOM     19  H   LIG    1       -1.337  -5.131  -5.498  0.00  0.00    +0.390 HD
ENDBRANCH   4  18
BRANCH   1  20
ATOM     20  C   LIG    1       -1.374  -1.649  -1.242  0.00  0.00    +0.070 C 
BRANCH  20  22
ATOM     21  C   LIG    1       -1.349  -1.663   1.256  0.00  0.00    +0.040 C 
ATOM     22  C   LIG    1       -1.293  -0.775   0.011  0.00  0.00    +0.040 C 
BRANCH  22  23
ATOM     23  C   LIG    1        0.002  -0.004   0.002  0.00  0.00    -0.030 A 
ATOM     24  C   LIG    1        1.208  -0.679  -0.013  0.00  0.00    +0.010 A 
ATOM     25  C   LIG    1        2.396   0.029  -0.021  0.00  0.00    +0.050 A 
ATOM     26  C   LIG    1        2.377   1.411  -0.015  0.00  0.00    +0.020 A 
ATOM     27  C   LIG    1        1.171   2.086   0.002  0.00  0.00    +0.070 A 
ATOM     28  C   LIG    1       -0.017   1.378   0.010  0.00  0.00    -0.180 A 
BRANCH  28  29
ATOM     29  C   LIG    1       -1.332   2.114   0.020  0.00  0.00    +0.510 C 
ATOM     30  F   LIG    1       -2.055   1.760   1.164  0.00  0.00    -0.170 F 
ATOM     31  F   LIG    1       -2.066   1.772  -1.121  0.00  0.00    -0.180 F 
ATOM     32  F   LIG    1       -1.095   3.493   0.026  0.00  0.00    -0.180 F 
ENDBRANCH  28  29
ENDBRANCH  22  23
ENDBRANCH  20  22
ENDBRANCH   1  20
TORSDOF 7
