REMARK  Name = ZINCvU0000000C57.0
REMARK                            x       y       z     vdW  Elec       q    Type
REMARK                         _______ _______ _______ _____ _____    ______ ____
ROOT
ATOM      1  C   LIG    1        9.229  -0.962   1.337  0.00  0.00    +0.270 C 
ENDROOT
BRANCH   1   2
ATOM      2  C   LIG    1        9.745  -1.537   2.631  0.00  0.00    -0.090 A 
ATOM      3  C   LIG    1        9.075  -1.287   3.814  0.00  0.00    +0.060 A 
ATOM      4  C   LIG    1        9.543  -1.819   5.000  0.00  0.00    -0.060 A 
ATOM      5  C   LIG    1       10.693  -2.595   5.005  0.00  0.00    +0.100 A 
ATOM      6  C   LIG    1       11.367  -2.840   3.818  0.00  0.00    +0.010 A 
ATOM      7  C   LIG    1       10.892  -2.311   2.633  0.00  0.00    +0.050 A 
BRANCH   5   8
ATOM      8  O   LIG    1       11.158  -3.114   6.172  0.00  0.00    -0.320 OA
BRANCH   8   9
ATOM      9  C   LIG    1       10.413  -2.821   7.355  0.00  0.00    +0.590 C 
ATOM     10  F   LIG    1        9.110  -3.310   7.219  0.00  0.00    -0.200 F 
ATOM     11  F   LIG    1       10.374  -1.436   7.550  0.00  0.00    -0.200 F 
ENDBRANCH   8   9
ENDBRANCH   5   8
ENDBRANCH   1   2
BRANCH   1  12
ATOM     12  C   LIG    1        9.644   0.483   1.230  0.00  0.00    -0.110 A 
ATOM     13  C   LIG    1        8.931   1.459   1.903  0.00  0.00    +0.010 A 
ATOM     14  C   LIG    1        9.314   2.784   1.807  0.00  0.00    +0.010 A 
ATOM     15  C   LIG    1       10.404   3.134   1.033  0.00  0.00    +0.000 A 
ATOM     16  C   LIG    1       11.113   2.160   0.357  0.00  0.00    +0.000 A 
ATOM     17  C   LIG    1       10.733   0.834   0.455  0.00  0.00    +0.010 A 
ENDBRANCH   1  12
BRANCH   1  18
ATOM     18  N   LIG    1        7.764  -1.054   1.311  0.00  0.00    -0.670 NA
ATOM     19  H   LIG    1        7.344  -0.300   1.834  0.00  0.00    +0.350 HD
BRANCH  18  20
ATOM     20  C   LIG    1        7.263  -1.078  -0.070  0.00  0.00    +0.320 C 
BRANCH  20  23
ATOM     21  C   LIG    1        3.695  -0.684  -0.036  0.00  0.00    +0.230 A 
ATOM     22  N   LIG    1        4.900  -0.142  -0.045  0.00  0.00    -0.470 NA
ATOM     23  C   LIG    1        5.759  -1.173  -0.057  0.00  0.00    +0.180 A 
ATOM     24  N   LIG    1        5.059  -2.269  -0.056  0.00  0.00    -0.360 NA
ATOM     25  O   LIG    1        3.873  -2.015  -0.039  0.00  0.00    +0.090 OA
BRANCH  21  30
ATOM     26  C   LIG    1       -1.334   2.112   0.020  0.00  0.00    +0.100 C 
ATOM     27  C   LIG    1       -0.017   1.379   0.010  0.00  0.00    -0.050 A 
ATOM     28  C   LIG    1        1.168   2.094   0.002  0.00  0.00    +0.000 A 
ATOM     29  C   LIG    1        2.377   1.429  -0.013  0.00  0.00    +0.080 A 
ATOM     30  C   LIG    1        2.403   0.034  -0.021  0.00  0.00    -0.040 A 
ATOM     31  C   LIG    1        1.204  -0.681  -0.013  0.00  0.00    +0.070 A 
ATOM     32  C   LIG    1        0.002  -0.004   0.002  0.00  0.00    +0.010 A 
ENDBRANCH  21  30
ENDBRANCH  20  23
ENDBRANCH  18  20
ENDBRANCH   1  18
TORSDOF 8
