REMARK  Name = ZINCqH0000002y53.0
REMARK                            x       y       z     vdW  Elec       q    Type
REMARK                         _______ _______ _______ _____ _____    ______ ____
ROOT
ATOM      1  N   LIG    1       -5.971  -0.983  -0.281  0.00  0.00    -0.360 N 
ATOM      2  N   LIG    1       -4.829  -0.413  -0.191  0.00  0.00    -0.190 NA
ATOM      3  C   LIG    1       -3.683  -1.050  -0.199  0.00  0.00    +0.050 A 
ATOM      4  C   LIG    1       -3.678  -2.516  -0.325  0.00  0.00    -0.030 A 
ATOM      5  C   LIG    1       -2.507  -3.266  -0.347  0.00  0.00    +0.070 A 
ATOM      6  C   LIG    1       -2.585  -4.638  -0.468  0.00  0.00    +0.060 A 
ATOM      7  C   LIG    1       -3.814  -5.275  -0.567  0.00  0.00    +0.030 A 
ATOM      8  C   LIG    1       -4.988  -4.551  -0.536  0.00  0.00    +0.090 A 
ATOM      9  C   LIG    1       -4.931  -3.166  -0.420  0.00  0.00    -0.140 A 
ATOM     10  C   LIG    1       -6.130  -2.317  -0.396  0.00  0.00    +0.520 A 
ATOM     11  O   LIG    1       -7.242  -2.807  -0.478  0.00  0.00    -0.490 OA
ENDROOT
BRANCH   3  12
ATOM     12  C   LIG    1       -2.414  -0.305  -0.090  0.00  0.00    +0.600 C 
ATOM     13  N   LIG    1       -2.428   1.038   0.019  0.00  0.00    -0.650 N 
ATOM     14  H   LIG    1       -3.271   1.509   0.107  0.00  0.00    +0.420 HD
ATOM     15  O   LIG    1       -1.355  -0.903  -0.098  0.00  0.00    -0.500 OA
BRANCH  13  16
ATOM     16  C   LIG    1       -1.224   1.754   0.006  0.00  0.00    +0.110 A 
ATOM     17  C   LIG    1       -0.102   1.218  -0.610  0.00  0.00    +0.100 A 
ATOM     18  C   LIG    1        1.083   1.928  -0.627  0.00  0.00    +0.010 A 
ATOM     19  C   LIG    1        1.154   3.173  -0.025  0.00  0.00    +0.120 A 
ATOM     20  C   LIG    1        0.038   3.710   0.596  0.00  0.00    -0.020 A 
ATOM     21  F   LIG    1        2.314   3.865  -0.043  0.00  0.00    -0.130 F 
ATOM     22  C   LIG    1       -1.149   3.003   0.616  0.00  0.00    +0.100 A 
ATOM     23  F   LIG    1       -2.238   3.526   1.221  0.00  0.00    -0.130 F 
ENDBRANCH  13  16
ENDBRANCH   3  12
BRANCH   1  24
ATOM     24  C   LIG    1       -7.170  -0.141  -0.258  0.00  0.00    +0.320 C 
BRANCH  24  25
ATOM     25  C   LIG    1       -7.642   0.035   1.186  0.00  0.00    +0.000 C 
BRANCH  25  27
ATOM     26  C   LIG    1       -9.366   1.089   2.655  0.00  0.00    +0.020 C 
ATOM     27  C   LIG    1       -8.894   0.914   1.210  0.00  0.00    +0.020 C 
ENDBRANCH  25  27
ENDBRANCH  24  25
ENDBRANCH   1  24
TORSDOF 5
