REMARK  Name = ZINCpk00000ebstu.0
REMARK                            x       y       z     vdW  Elec       q    Type
REMARK                         _______ _______ _______ _____ _____    ______ ____
ROOT
ATOM      1  O   LIG    1        0.002  -0.004   0.002  0.00  0.00    -0.530 OA
ATOM      2  C   LIG    1       -0.014   1.209   0.009  0.00  0.00    +0.520 C 
ATOM      3  N   LIG    1       -1.191   1.867   0.018  0.00  0.00    -0.730 N 
ATOM      4  H   LIG    1       -1.204   2.837   0.023  0.00  0.00    +0.400 HD
ENDROOT
BRANCH   3   5
ATOM      5  C   LIG    1       -2.449   1.117   0.020  0.00  0.00    +0.290 C 
BRANCH   5   6
ATOM      6  C   LIG    1       -2.824   0.761  -1.396  0.00  0.00    -0.100 A 
ATOM      7  C   LIG    1       -2.639   1.680  -2.412  0.00  0.00    +0.020 A 
ATOM      8  C   LIG    1       -2.979   1.353  -3.711  0.00  0.00    +0.000 A 
ATOM      9  C   LIG    1       -3.512   0.109  -3.993  0.00  0.00    +0.010 A 
ATOM     10  C   LIG    1       -3.703  -0.808  -2.976  0.00  0.00    +0.010 A 
ATOM     11  C   LIG    1       -3.359  -0.482  -1.678  0.00  0.00    +0.020 A 
ENDBRANCH   5   6
BRANCH   5  12
ATOM     12  C   LIG    1       -3.554   1.976   0.639  0.00  0.00    +0.350 C 
BRANCH  12  13
ATOM     13  N   LIG    1       -3.247   2.222   2.050  0.00  0.00    -0.380 N 
ATOM     14  C   LIG    1       -3.149   3.418   2.657  0.00  0.00    +0.470 A 
ATOM     15  N   LIG    1       -2.864   3.211   3.917  0.00  0.00    -0.540 NA
ATOM     16  C   LIG    1       -2.765   1.903   4.150  0.00  0.00    +0.420 A 
ATOM     17  N   LIG    1       -2.991   1.256   3.037  0.00  0.00    -0.310 NA
ENDBRANCH  12  13
ENDBRANCH   5  12
ENDBRANCH   3   5
BRANCH   2  18
ATOM     18  C   LIG    1        1.280   1.980   0.001  0.00  0.00    +0.060 C 
BRANCH  18  19
ATOM     19  C   LIG    1        2.457   1.002  -0.016  0.00  0.00    +0.040 C 
BRANCH  19  20
ATOM     20  C   LIG    1        3.771   1.784  -0.024  0.00  0.00    +0.260 C 
BRANCH  20  21
ATOM     21  N   LIG    1        4.897   0.848  -0.040  0.00  0.00    -0.730 N 
ATOM     22  H   LIG    1        4.733  -0.108  -0.044  0.00  0.00    +0.400 HD
ATOM     23  C   LIG    1        6.162   1.314  -0.050  0.00  0.00    +0.540 C 
ATOM     24  O   LIG    1        6.367   2.510  -0.045  0.00  0.00    -0.540 OA
BRANCH  23  25
ATOM     25  C   LIG    1        7.320   0.351  -0.066  0.00  0.00    -0.080 C 
ATOM     26  C   LIG    1        8.192   0.273   1.189  0.00  0.00    +0.060 C 
ATOM     27  C   LIG    1        8.731   0.942  -0.076  0.00  0.00    +0.060 C 
ENDBRANCH  23  25
ENDBRANCH  20  21
ENDBRANCH  19  20
ENDBRANCH  18  19
ENDBRANCH   2  18
TORSDOF 9
