REMARK  Name = ZINCpk00000y6xr6.0
REMARK                            x       y       z     vdW  Elec       q    Type
REMARK                         _______ _______ _______ _____ _____    ______ ____
ROOT
ATOM      1  C   LIG    1        1.102   3.105   0.535  0.00  0.00    +0.260 C 
ATOM      2  C   LIG    1        1.277   1.684  -0.003  0.00  0.00    +0.300 C 
ATOM      3  N   LIG    1        0.009   0.967   0.011  0.00  0.00    -0.710 N 
ATOM      4  H   LIG    1        0.039  -0.003   0.009  0.00  0.00    +0.410 HD
ATOM      5  C   LIG    1       -1.191   1.550   0.022  0.00  0.00    +0.510 C 
ATOM      6  C   LIG    1       -1.377   3.039   0.127  0.00  0.00    +0.340 C 
ATOM      7  O   LIG    1       -2.176   0.847  -0.053  0.00  0.00    -0.540 OA
ATOM      8  N   LIG    1       -0.083   3.698  -0.107  0.00  0.00    -0.610 N 
ATOM      9  C   LIG    1        0.014   4.798  -0.879  0.00  0.00    +0.540 C 
ATOM     10  O   LIG    1        1.104   5.264  -1.136  0.00  0.00    -0.480 OA
ENDROOT
BRANCH   9  11
ATOM     11  C   LIG    1       -1.231   5.451  -1.421  0.00  0.00    -0.060 C 
ATOM     12  C   LIG    1       -1.470   5.371  -2.930  0.00  0.00    +0.070 C 
ATOM     13  C   LIG    1       -1.055   6.697  -2.291  0.00  0.00    +0.060 C 
BRANCH  13  14
ATOM     14  C   LIG    1        0.352   7.179  -2.538  0.00  0.00    -0.060 A 
ATOM     15  C   LIG    1        1.267   6.350  -3.160  0.00  0.00    +0.060 A 
ATOM     16  C   LIG    1        2.555   6.794  -3.391  0.00  0.00    -0.010 A 
ATOM     17  C   LIG    1        2.932   8.063  -2.992  0.00  0.00    -0.070 A 
ATOM     18  C   LIG    1        2.018   8.890  -2.365  0.00  0.00    -0.010 A 
ATOM     19  C   LIG    1        0.728   8.448  -2.139  0.00  0.00    +0.020 A 
BRANCH  17  20
ATOM     20  C   LIG    1        4.338   8.544  -3.239  0.00  0.00    +0.010 C 
ATOM     21  C   LIG    1        4.626   8.530  -4.741  0.00  0.00    +0.040 C 
ATOM     22  C   LIG    1        5.326   7.622  -2.521  0.00  0.00    +0.030 C 
ENDBRANCH  17  20
ENDBRANCH  13  14
ENDBRANCH   9  11
BRANCH   1  23
ATOM     23  C   LIG    1        2.322   3.926   0.207  0.00  0.00    +0.490 C 
ATOM     24  O   LIG    1        3.016   3.628  -0.736  0.00  0.00    -0.500 OA
BRANCH  23  26
ATOM     25  C   LIG    1        3.827   5.735   0.588  0.00  0.00    +0.280 C 
ATOM     26  O   LIG    1        2.639   4.990   0.963  0.00  0.00    -0.350 OA
ENDBRANCH  23  26
ENDBRANCH   1  23
TORSDOF 5
