REMARK  Name = ZINCpk000000p0Qv.0
REMARK                            x       y       z     vdW  Elec       q    Type
REMARK                         _______ _______ _______ _____ _____    ______ ____
ROOT
ATOM      1  C   LIG    1       -3.659  -4.975   0.008  0.00  0.00    +0.270 C 
ENDROOT
BRANCH   1   2
ATOM      2  N   LIG    1       -2.405  -4.218   0.001  0.00  0.00    -0.700 N 
ATOM      3  H   LIG    1       -1.556  -4.687  -0.010  0.00  0.00    +0.410 HD
ATOM      4  C   LIG    1       -2.430  -2.871   0.009  0.00  0.00    +0.570 C 
ATOM      5  O   LIG    1       -3.494  -2.283   0.022  0.00  0.00    -0.520 OA
BRANCH   4   6
ATOM      6  C   LIG    1       -1.164  -2.107   0.001  0.00  0.00    -0.100 A 
ATOM      7  C   LIG    1        0.059  -2.780  -0.014  0.00  0.00    +0.010 A 
ATOM      8  C   LIG    1        1.239  -2.064  -0.022  0.00  0.00    +0.060 A 
ATOM      9  C   LIG    1        1.214  -0.681  -0.019  0.00  0.00    -0.040 A 
ATOM     10  C   LIG    1        0.002  -0.004   0.002  0.00  0.00    +0.120 A 
ATOM     11  C   LIG    1       -1.188  -0.712   0.010  0.00  0.00    +0.060 A 
BRANCH  10  12
ATOM     12  O   LIG    1       -0.016   1.355   0.009  0.00  0.00    -0.310 OA
ATOM     13  C   LIG    1        1.248   2.021   0.001  0.00  0.00    +0.250 C 
ENDBRANCH  10  12
ENDBRANCH   4   6
ENDBRANCH   1   2
BRANCH   1  14
ATOM     14  C   LIG    1       -4.140  -5.136   1.427  0.00  0.00    +0.440 C 
ATOM     15  O   LIG    1       -3.501  -4.667   2.339  0.00  0.00    -0.480 OA
BRANCH  14  16
ATOM     16  O   LIG    1       -5.279  -5.801   1.679  0.00  0.00    -0.340 OA
BRANCH  16  18
ATOM     17  C   LIG    1       -6.993  -6.701   3.157  0.00  0.00    +0.060 C 
ATOM     18  C   LIG    1       -5.681  -5.917   3.069  0.00  0.00    +0.190 C 
ENDBRANCH  16  18
ENDBRANCH  14  16
ENDBRANCH   1  14
BRANCH   1  19
ATOM     19  C   LIG    1       -3.427  -6.354  -0.611  0.00  0.00    +0.290 C 
BRANCH  19  20
ATOM     20  C   LIG    1       -4.740  -7.086  -0.716  0.00  0.00    -0.090 A 
ATOM     21  C   LIG    1       -5.286  -7.725   0.386  0.00  0.00    +0.010 A 
ATOM     22  C   LIG    1       -6.495  -8.382   0.253  0.00  0.00    +0.260 A 
ATOM     23  N   LIG    1       -7.122  -8.413  -0.907  0.00  0.00    -0.470 NA
ATOM     24  C   LIG    1       -6.630  -7.821  -1.977  0.00  0.00    +0.260 A 
ATOM     25  C   LIG    1       -5.428  -7.140  -1.919  0.00  0.00    -0.010 A 
ENDBRANCH  19  20
BRANCH  19  26
ATOM     26  O   LIG    1       -2.530  -7.101   0.213  0.00  0.00    -0.540 OA
ATOM     27  H   LIG    1       -2.850  -7.244   1.114  0.00  0.00    +0.380 HD
ENDBRANCH  19  26
ENDBRANCH   1  19
TORSDOF 9
