REMARK  Name = ZINCpe000000YyjC.0
REMARK                            x       y       z     vdW  Elec       q    Type
REMARK                         _______ _______ _______ _____ _____    ______ ____
ROOT
ATOM      1  C   LIG    1        0.085   7.853   0.364  0.00  0.00    +0.530 C 
ATOM      2  N   LIG    1       -0.122   6.618  -0.136  0.00  0.00    -0.660 N 
ATOM      3  H   LIG    1       -0.973   6.398  -0.546  0.00  0.00    +0.420 HD
ATOM      4  O   LIG    1        1.175   8.154   0.802  0.00  0.00    -0.500 OA
ENDROOT
BRANCH   2   5
ATOM      5  C   LIG    1        0.890   5.655  -0.063  0.00  0.00    +0.170 A 
ATOM      6  C   LIG    1        2.220   6.032  -0.204  0.00  0.00    +0.000 A 
ATOM      7  C   LIG    1        3.220   5.081  -0.132  0.00  0.00    +0.060 A 
ATOM      8  C   LIG    1        2.902   3.754   0.085  0.00  0.00    -0.040 A 
ATOM      9  C   LIG    1        1.574   3.370   0.221  0.00  0.00    +0.180 A 
ATOM     10  C   LIG    1        0.567   4.322   0.150  0.00  0.00    -0.020 A 
BRANCH   9  11
ATOM     11  N   LIG    1        1.252   2.026   0.436  0.00  0.00    -0.560 N 
ATOM     12  C   LIG    1        2.224   0.927   0.408  0.00  0.00    +0.260 C 
ATOM     13  C   LIG    1        1.526  -0.259   1.110  0.00  0.00    +0.060 C 
ATOM     14  C   LIG    1        0.034   0.073   0.881  0.00  0.00    +0.070 C 
ATOM     15  C   LIG    1        0.012   1.574   0.694  0.00  0.00    +0.520 C 
ATOM     16  O   LIG    1       -0.980   2.269   0.762  0.00  0.00    -0.510 OA
ENDBRANCH   9  11
ENDBRANCH   2   5
BRANCH   1  17
ATOM     17  C   LIG    1       -1.037   8.858   0.378  0.00  0.00    +0.100 C 
BRANCH  17  18
ATOM     18  S   LIG    1       -0.450  10.408   1.106  0.00  0.00    +0.120 S 
BRANCH  18  23
ATOM     19  C   LIG    1       -4.134  11.574   0.397  0.00  0.00    +0.640 A 
ATOM     20  N   LIG    1       -4.140  12.828   0.839  0.00  0.00    -0.660 NA
ATOM     21  C   LIG    1       -3.037  13.354   1.361  0.00  0.00    +0.640 A 
ATOM     22  N   LIG    1       -1.927  12.627   1.442  0.00  0.00    -0.620 NA
ATOM     23  C   LIG    1       -1.921  11.372   0.999  0.00  0.00    +0.390 A 
ATOM     24  N   LIG    1       -3.024  10.848   0.472  0.00  0.00    -0.650 NA
BRANCH  19  25
ATOM     25  N   LIG    1       -5.280  11.028  -0.145  0.00  0.00    -0.800 N 
ATOM     26  H   LIG    1       -5.276  10.113  -0.468  0.00  0.00    +0.420 HD
ATOM     27  H   LIG    1       -6.090  11.559  -0.203  0.00  0.00    +0.420 HD
ENDBRANCH  19  25
BRANCH  21  28
ATOM     28  N   LIG    1       -3.043  14.656   1.819  0.00  0.00    -0.800 N 
ATOM     29  H   LIG    1       -3.853  15.187   1.761  0.00  0.00    +0.420 HD
ATOM     30  H   LIG    1       -2.238  15.040   2.201  0.00  0.00    +0.420 HD
ENDBRANCH  21  28
ENDBRANCH  18  23
ENDBRANCH  17  18
ENDBRANCH   1  17
TORSDOF 7
