REMARK  Name = ZINCnE000001Ub6w.0
REMARK                            x       y       z     vdW  Elec       q    Type
REMARK                         _______ _______ _______ _____ _____    ______ ____
ROOT
ATOM      1  C   LIG    1       -1.237   3.147   0.031  0.00  0.00    +0.290 A 
ATOM      2  C   LIG    1       -0.041   3.850   0.022  0.00  0.00    -0.120 A 
ATOM      3  C   LIG    1        1.161   3.167   0.007  0.00  0.00    +0.070 A 
ATOM      4  C   LIG    1        1.176   1.784   0.000  0.00  0.00    -0.120 A 
ATOM      5  C   LIG    1       -0.013   1.076   0.008  0.00  0.00    +0.050 A 
ATOM      6 CL   LIG    1        2.690   0.934  -0.018  0.00  0.00    -0.100 Cl
ATOM      7  C   LIG    1       -1.222   1.753   0.017  0.00  0.00    +0.080 A 
ENDROOT
BRANCH   7   8
ATOM      8  N   LIG    1       -2.429   1.037   0.019  0.00  0.00    -0.280 N 
ATOM      9  C   LIG    1       -2.555  -0.309   0.012  0.00  0.00    +0.180 A 
ATOM     10  C   LIG    1       -3.878  -0.599   0.017  0.00  0.00    -0.140 A 
ATOM     11  C   LIG    1       -4.583   0.609   0.027  0.00  0.00    +0.170 A 
ATOM     12  N   LIG    1       -3.716   1.590   0.034  0.00  0.00    -0.200 NA
ENDBRANCH   7   8
BRANCH   1  13
ATOM     13  N   LIG    1       -2.454   3.836   0.047  0.00  0.00    -1.030 NA
BRANCH  13  15
ATOM     14  O   LIG    1       -1.915   5.891   1.302  0.00  0.00    -1.020 OA
ATOM     15  S   LIG    1       -2.469   5.492   0.056  0.00  0.00    +2.600 S 
ATOM     16  O   LIG    1       -1.941   5.904  -1.197  0.00  0.00    -1.020 OA
BRANCH  15  17
ATOM     17  C   LIG    1       -4.156   5.998   0.076  0.00  0.00    -0.580 A 
ATOM     18  C   LIG    1       -4.828   6.209  -1.113  0.00  0.00    +0.110 A 
ATOM     19  C   LIG    1       -6.154   6.602  -1.099  0.00  0.00    +0.020 A 
ATOM     20  C   LIG    1       -6.805   6.795   0.104  0.00  0.00    +0.020 A 
ATOM     21  C   LIG    1       -6.131   6.589   1.296  0.00  0.00    +0.070 A 
ATOM     22  F   LIG    1       -6.767   6.777   2.474  0.00  0.00    -0.140 F 
ATOM     23  C   LIG    1       -4.805   6.191   1.281  0.00  0.00    +0.100 A 
ENDBRANCH  15  17
ENDBRANCH  13  15
ENDBRANCH   1  13
TORSDOF 4
