REMARK  Name = ZINCnE000001Lf22.1
REMARK                            x       y       z     vdW  Elec       q    Type
REMARK                         _______ _______ _______ _____ _____    ______ ____
ROOT
ATOM      1  N   LIG    1        2.403   1.101  -0.014  0.00  0.00    -0.670 N 
ATOM      2  H   LIG    1        3.234   1.595  -0.100  0.00  0.00    +0.410 HD
ATOM      3  C   LIG    1        2.425  -0.243   0.081  0.00  0.00    +0.580 C 
ATOM      4  O   LIG    1        1.382  -0.869   0.088  0.00  0.00    -0.550 OA
ENDROOT
BRANCH   3   5
ATOM      5  C   LIG    1        3.714  -0.956   0.177  0.00  0.00    -0.260 A 
ATOM      6  C   LIG    1        4.912  -0.238   0.170  0.00  0.00    +0.100 A 
ATOM      7  C   LIG    1        6.116  -0.905   0.260  0.00  0.00    -0.230 A 
ATOM      8  C   LIG    1        6.140  -2.290   0.358  0.00  0.00    +0.310 A 
ATOM      9  C   LIG    1        4.947  -3.012   0.367  0.00  0.00    -0.010 A 
ATOM     10  O   LIG    1        7.327  -2.943   0.446  0.00  0.00    -0.650 OA
ATOM     11 BR   LIG    1        7.737   0.068   0.249  0.00  0.00    -0.080 Br
ATOM     12  C   LIG    1        3.738  -2.349   0.282  0.00  0.00    +0.020 A 
BRANCH   9  13
ATOM     13  O   LIG    1        4.974  -4.368   0.463  0.00  0.00    -0.300 OA
ATOM     14  C   LIG    1        3.714  -5.043   0.466  0.00  0.00    +0.200 C 
ENDBRANCH   9  13
ENDBRANCH   3   5
BRANCH   1  18
ATOM     15  C   LIG    1       -1.239   3.140   0.064  0.00  0.00    +0.130 A 
ATOM     16  C   LIG    1       -1.131   1.887   0.648  0.00  0.00    -0.090 A 
ATOM     17  C   LIG    1        0.076   1.213   0.627  0.00  0.00    +0.100 A 
ATOM     18  C   LIG    1        1.180   1.786   0.012  0.00  0.00    +0.110 A 
ATOM     19  C   LIG    1        1.071   3.043  -0.580  0.00  0.00    +0.130 A 
ATOM     20  C   LIG    1       -0.138   3.717  -0.553  0.00  0.00    -0.080 A 
BRANCH  15  22
ATOM     21  C   LIG    1       -3.518   3.149   0.742  0.00  0.00    +0.250 C 
ATOM     22  O   LIG    1       -2.426   3.801   0.090  0.00  0.00    -0.320 OA
ENDBRANCH  15  22
BRANCH  19  23
ATOM     23  O   LIG    1        2.151   3.606  -1.184  0.00  0.00    -0.310 OA
ATOM     24  C   LIG    1        1.967   4.897  -1.770  0.00  0.00    +0.250 C 
ENDBRANCH  19  23
ENDBRANCH   1  18
TORSDOF 5
