REMARK  Name = ZINCpk000005evgT.0
REMARK                            x       y       z     vdW  Elec       q    Type
REMARK                         _______ _______ _______ _____ _____    ______ ____
ROOT
ATOM      1  C   LIG    1        6.598   6.219  -0.744  0.00  0.00    +0.310 C 
ENDROOT
BRANCH   1   2
ATOM      2  C   LIG    1        7.370   7.184  -1.647  0.00  0.00    +0.140 C 
ATOM      3  C   LIG    1        7.982   6.653  -2.976  0.00  0.00    +0.040 C 
ATOM      4  C   LIG    1        8.832   7.953  -2.833  0.00  0.00    -0.010 C 
ATOM      5  C   LIG    1        7.812   9.143  -2.785  0.00  0.00    +0.280 C 
ATOM      6  C   LIG    1        8.857   7.498  -1.350  0.00  0.00    +0.040 C 
ATOM      7  N   LIG    1        6.768   8.533  -1.893  0.00  0.00    -0.610 N 
ATOM      8  C   LIG    1        5.604   9.046  -1.448  0.00  0.00    +0.670 C 
ATOM      9  O   LIG    1        4.879   8.379  -0.736  0.00  0.00    -0.540 OA
BRANCH   8  10
ATOM     10  O   LIG    1        5.245  10.298  -1.790  0.00  0.00    -0.360 OA
BRANCH  10  11
ATOM     11  C   LIG    1        3.978  10.785  -1.274  0.00  0.00    +0.140 C 
ATOM     12  C   LIG    1        2.845   9.882  -1.767  0.00  0.00    +0.040 C 
ATOM     13  C   LIG    1        3.742  12.214  -1.766  0.00  0.00    +0.080 C 
ATOM     14  C   LIG    1        4.012  10.771   0.256  0.00  0.00    +0.040 C 
ENDBRANCH  10  11
ENDBRANCH   8  10
ENDBRANCH   1   2
BRANCH   1  15
ATOM     15  N   LIG    1        5.223   6.089  -1.231  0.00  0.00    -0.720 N 
ATOM     16  H   LIG    1        4.938   6.581  -2.017  0.00  0.00    +0.390 HD
BRANCH  15  19
ATOM     17  N   LIG    1        2.494   4.164   0.001  0.00  0.00    -0.370 N 
ATOM     18  C   LIG    1        3.020   5.034  -0.903  0.00  0.00    +0.120 A 
ATOM     19  C   LIG    1        4.315   5.249  -0.558  0.00  0.00    +0.090 A 
ATOM     20  C   LIG    1        4.589   4.482   0.583  0.00  0.00    +0.190 A 
ATOM     21  N   LIG    1        3.502   3.835   0.916  0.00  0.00    -0.250 NA
BRANCH  17  22
ATOM     22  C   LIG    1        1.120   3.657   0.011  0.00  0.00    +0.360 C 
BRANCH  22  26
ATOM     23  C   LIG    1        0.002  -0.004   0.002  0.00  0.00    +0.290 C 
ATOM     24  N   LIG    1       -0.018   1.461   0.010  0.00  0.00    -0.740 N 
ATOM     25  H   LIG    1       -0.864   1.934   0.017  0.00  0.00    +0.400 HD
ATOM     26  C   LIG    1        1.140   2.151   0.003  0.00  0.00    +0.490 C 
ATOM     27  O   LIG    1        2.199   1.558  -0.011  0.00  0.00    -0.510 OA
ENDBRANCH  22  26
ENDBRANCH  17  22
ENDBRANCH  15  19
ENDBRANCH   1  15
TORSDOF 7
