REMARK  Name = ZINCpk00000xLpRM.0
REMARK                            x       y       z     vdW  Elec       q    Type
REMARK                         _______ _______ _______ _____ _____    ______ ____
ROOT
ATOM      1  C   LIG    1       -4.589   0.586   0.027  0.00  0.00    +0.180 A 
ATOM      2  N   LIG    1       -3.751   1.593   0.034  0.00  0.00    -0.450 NA
ATOM      3  C   LIG    1       -2.518   1.039   0.019  0.00  0.00    +0.210 A 
ATOM      4  N   LIG    1       -2.677  -0.259   0.014  0.00  0.00    -0.360 NA
ATOM      5  O   LIG    1       -3.859  -0.533   0.018  0.00  0.00    +0.100 OA
ENDROOT
BRANCH   1  12
ATOM      6  C   LIG    1       -7.027  -1.405   3.166  0.00  0.00    +0.110 C 
ATOM      7  C   LIG    1       -6.387  -0.345   2.307  0.00  0.00    +0.530 C 
ATOM      8  N   LIG    1       -6.646  -0.302   0.985  0.00  0.00    -0.620 N 
ATOM      9  C   LIG    1       -7.532  -1.226   0.252  0.00  0.00    +0.250 C 
ATOM     10  C   LIG    1       -7.030  -1.178  -1.212  0.00  0.00    +0.170 C 
ATOM     11  C   LIG    1       -6.646   0.318  -1.362  0.00  0.00    +0.090 C 
ATOM     12  C   LIG    1       -6.093   0.674   0.035  0.00  0.00    +0.360 C 
ATOM     13  O   LIG    1       -5.640   0.470   2.805  0.00  0.00    -0.530 OA
BRANCH  10  14
ATOM     14  O   LIG    1       -8.073  -1.532  -2.123  0.00  0.00    -0.550 OA
ATOM     15  H   LIG    1       -8.414  -2.429  -2.001  0.00  0.00    +0.390 HD
ENDBRANCH  10  14
ENDBRANCH   1  12
BRANCH   3  16
ATOM     16  C   LIG    1       -1.224   1.768   0.017  0.00  0.00    +0.060 A 
ATOM     17  C   LIG    1       -1.188   3.165   0.030  0.00  0.00    -0.020 A 
ATOM     18  C   LIG    1        0.034   3.806   0.022  0.00  0.00    +0.320 A 
ATOM     19  N   LIG    1        1.160   3.119   0.008  0.00  0.00    -0.530 NA
ATOM     20  C   LIG    1        1.173   1.796   0.001  0.00  0.00    +0.330 A 
ATOM     21  C   LIG    1       -0.013   1.076   0.008  0.00  0.00    +0.000 A 
BRANCH  20  22
ATOM     22  O   LIG    1        2.359   1.137  -0.014  0.00  0.00    -0.290 OA
BRANCH  22  23
ATOM     23  C   LIG    1        3.544   1.934  -0.021  0.00  0.00    +0.220 C 
BRANCH  23  24
ATOM     24  C   LIG    1        4.772   1.022  -0.037  0.00  0.00    +0.410 C 
ATOM     25  F   LIG    1        4.743   0.220  -1.183  0.00  0.00    -0.200 F 
ATOM     26  F   LIG    1        4.764   0.209   1.101  0.00  0.00    -0.200 F 
ENDBRANCH  23  24
ENDBRANCH  22  23
ENDBRANCH  20  22
ENDBRANCH   3  16
TORSDOF 6
