REMARK  Name = ZINCrH000004jayb.0
REMARK                            x       y       z     vdW  Elec       q    Type
REMARK                         _______ _______ _______ _____ _____    ______ ____
ROOT
ATOM      1  C   LIG    1        5.879  -1.754  -0.010  0.00  0.00    +0.000 C 
ATOM      2  C   LIG    1        5.981  -2.449   1.367  0.00  0.00    +0.070 C 
ATOM      3  C   LIG    1        7.468  -2.573   1.612  0.00  0.00    +0.520 C 
ATOM      4  N   LIG    1        8.143  -1.759   0.781  0.00  0.00    -0.610 N 
ATOM      5  O   LIG    1        7.979  -3.301   2.436  0.00  0.00    -0.510 OA
ATOM      6  C   LIG    1        7.229  -1.006  -0.085  0.00  0.00    +0.300 C 
ENDROOT
BRANCH   1  15
ATOM      7  C   LIG    1       -0.182   0.780  -0.025  0.00  0.00    -0.100 A 
ATOM      8  C   LIG    1        0.966   1.548  -0.097  0.00  0.00    +0.040 A 
ATOM      9  C   LIG    1        2.206   0.945  -0.088  0.00  0.00    +0.020 A 
ATOM     10  C   LIG    1        2.312  -0.445  -0.008  0.00  0.00    +0.130 A 
ATOM     11  C   LIG    1        1.156  -1.205   0.064  0.00  0.00    -0.130 A 
ATOM     12  C   LIG    1        1.544  -2.665   0.142  0.00  0.00    +0.090 C 
ATOM     13  C   LIG    1        3.081  -2.659   0.107  0.00  0.00    +0.280 C 
ATOM     14  N   LIG    1        3.458  -1.246   0.015  0.00  0.00    -0.550 N 
ATOM     15  C   LIG    1        4.724  -0.786  -0.042  0.00  0.00    +0.540 C 
ATOM     16  O   LIG    1        4.933   0.406  -0.118  0.00  0.00    -0.510 OA
ATOM     17  C   LIG    1       -0.084  -0.597   0.055  0.00  0.00    +0.050 A 
BRANCH   7  19
ATOM     18  C   LIG    1       -1.968   1.752   1.394  0.00  0.00    +0.030 C 
ATOM     19  C   LIG    1       -1.535   1.442  -0.040  0.00  0.00    +0.060 C 
ENDBRANCH   7  19
ENDBRANCH   1  15
BRANCH   4  20
ATOM     20  C   LIG    1        9.602  -1.638   0.747  0.00  0.00    +0.300 C 
ATOM     21  C   LIG    1       10.219  -2.998   0.415  0.00  0.00    +0.040 C 
BRANCH  20  22
ATOM     22  C   LIG    1       10.100  -1.175   2.092  0.00  0.00    -0.090 A 
ATOM     23  C   LIG    1        9.336  -0.308   2.851  0.00  0.00    +0.020 A 
ATOM     24  C   LIG    1        9.791   0.112   4.087  0.00  0.00    +0.000 A 
ATOM     25  C   LIG    1       11.014  -0.327   4.560  0.00  0.00    +0.000 A 
ATOM     26  C   LIG    1       11.779  -1.190   3.799  0.00  0.00    +0.000 A 
ATOM     27  C   LIG    1       11.323  -1.614   2.565  0.00  0.00    +0.020 A 
ENDBRANCH  20  22
ENDBRANCH   4  20
TORSDOF 4
