REMARK  Name = ZINCtV00000L6ks3.0
REMARK                            x       y       z     vdW  Elec       q    Type
REMARK                         _______ _______ _______ _____ _____    ______ ____
ROOT
ATOM      1  C   LIG    1       -0.506   1.279   4.166  0.00  0.00    +0.460 A 
ATOM      2  N   LIG    1       -1.133   2.413   4.313  0.00  0.00    -0.550 NA
ATOM      3  C   LIG    1       -1.738   2.733   5.469  0.00  0.00    +0.540 A 
ATOM      4  C   LIG    1       -1.675   1.779   6.592  0.00  0.00    -0.210 A 
ATOM      5  C   LIG    1       -0.992   0.594   6.381  0.00  0.00    +0.050 A 
ATOM      6  S   LIG    1       -1.036  -0.393   7.834  0.00  0.00    +0.190 S 
ATOM      7  C   LIG    1       -1.974   0.805   8.704  0.00  0.00    -0.040 A 
ATOM      8  C   LIG    1       -2.226   1.866   7.937  0.00  0.00    +0.010 A 
ATOM      9  O   LIG    1       -2.325   3.796   5.589  0.00  0.00    -0.460 OA
ATOM     10  N   LIG    1       -0.414   0.371   5.149  0.00  0.00    -0.580 N 
ATOM     11  H   LIG    1        0.067  -0.456   4.991  0.00  0.00    +0.420 HD
ENDROOT
BRANCH   8  12
ATOM     12  C   LIG    1       -3.002   3.036   8.413  0.00  0.00    -0.040 A 
ATOM     13  C   LIG    1       -2.498   4.325   8.245  0.00  0.00    +0.060 A 
ATOM     14  C   LIG    1       -3.228   5.411   8.684  0.00  0.00    +0.000 A 
ATOM     15  C   LIG    1       -4.452   5.221   9.302  0.00  0.00    +0.010 A 
ATOM     16  C   LIG    1       -4.954   3.944   9.476  0.00  0.00    -0.010 A 
ATOM     17  C   LIG    1       -4.236   2.851   9.036  0.00  0.00    +0.020 A 
ENDBRANCH   8  12
BRANCH   1  19
ATOM     18  C   LIG    1        1.541   1.608   2.806  0.00  0.00    +0.090 C 
ATOM     19  C   LIG    1        0.146   0.980   2.841  0.00  0.00    +0.090 C 
BRANCH  19  20
ATOM     20  S   LIG    1       -0.862   1.671   1.500  0.00  0.00    -0.130 S 
BRANCH  20  21
ATOM     21  C   LIG    1       -0.013   1.086   0.008  0.00  0.00    +0.080 C 
BRANCH  21  22
ATOM     22  C   LIG    1       -0.753   1.593  -1.232  0.00  0.00    +0.240 C 
BRANCH  22  23
ATOM     23  O   LIG    1       -0.084   1.132  -2.407  0.00  0.00    -0.310 OA
BRANCH  23  24
ATOM     24  C   LIG    1       -0.617   1.496  -3.603  0.00  0.00    +0.150 A 
ATOM     25  C   LIG    1       -1.763   2.277  -3.644  0.00  0.00    -0.060 A 
ATOM     26  C   LIG    1       -2.300   2.650  -4.861  0.00  0.00    +0.090 A 
ATOM     27  C   LIG    1       -1.702   2.238  -6.038  0.00  0.00    -0.130 A 
ATOM     28  C   LIG    1       -0.562   1.455  -5.999  0.00  0.00    +0.090 A 
ATOM     29 BR   LIG    1       -2.444   2.744  -7.702  0.00  0.00    -0.050 Br
ATOM     30  C   LIG    1       -0.018   1.084  -4.785  0.00  0.00    -0.010 A 
ENDBRANCH  23  24
ENDBRANCH  22  23
ENDBRANCH  21  22
ENDBRANCH  20  21
ENDBRANCH  19  20
ENDBRANCH   1  19
TORSDOF 7
