REMARK  Name = ZINCpe000000OV1M.0
REMARK                            x       y       z     vdW  Elec       q    Type
REMARK                         _______ _______ _______ _____ _____    ______ ____
ROOT
ATOM      1  N   LIG    1        1.122   3.153   0.008  0.00  0.00    -0.510 N 
ATOM      2  C   LIG    1        1.182   1.805   0.001  0.00  0.00    +0.540 A 
ATOM      3  C   LIG    1       -0.013   1.076   0.008  0.00  0.00    -0.190 A 
ATOM      4  C   LIG    1       -1.214   1.765   0.017  0.00  0.00    +0.400 A 
ATOM      5  N   LIG    1       -1.213   3.101   0.029  0.00  0.00    -0.600 NA
ATOM      6  O   LIG    1        2.260   1.232  -0.013  0.00  0.00    -0.540 OA
ATOM      7  C   LIG    1       -0.086   3.783   0.022  0.00  0.00    +0.410 A 
ENDROOT
BRANCH   4   8
ATOM      8  O   LIG    1       -2.385   1.087   0.019  0.00  0.00    -0.440 OA
ATOM      9  H   LIG    1       -3.168   1.654   0.026  0.00  0.00    +0.410 HD
ENDBRANCH   4   8
BRANCH   1  10
ATOM     10  C   LIG    1        2.358   3.941   0.001  0.00  0.00    +0.330 C 
BRANCH  10  11
ATOM     11  C   LIG    1        2.775   4.222  -1.444  0.00  0.00    +0.180 C 
BRANCH  11  13
ATOM     12  C   LIG    1        2.089   5.376  -3.430  0.00  0.00    +0.200 C 
ATOM     13  O   LIG    1        1.794   5.052  -2.070  0.00  0.00    -0.380 OA
ENDBRANCH  11  13
ENDBRANCH  10  11
ENDBRANCH   1  10
BRANCH   7  14
ATOM     14  S   LIG    1       -0.141   5.544   0.032  0.00  0.00    +0.080 S 
BRANCH  14  15
ATOM     15  C   LIG    1       -1.933   5.801   0.050  0.00  0.00    +0.090 C 
BRANCH  15  16
ATOM     16  C   LIG    1       -2.232   7.301   0.060  0.00  0.00    +0.240 C 
ATOM     17  O   LIG    1       -1.825   7.903  -1.204  0.00  0.00    -0.340 OA
ATOM     18  C   LIG    1       -2.896   8.025  -2.012  0.00  0.00    +0.490 C 
ATOM     19  C   LIG    1       -4.103   8.276  -1.124  0.00  0.00    +0.050 C 
ATOM     20  O   LIG    1       -2.896   7.949  -3.218  0.00  0.00    -0.440 OA
ATOM     21  C   LIG    1       -3.746   7.537   0.178  0.00  0.00    -0.080 C 
ATOM     22  C   LIG    1       -4.061   8.409   1.388  0.00  0.00    +0.040 C 
ATOM     23  C   LIG    1       -5.579   8.588   1.499  0.00  0.00    +0.210 C 
ATOM     24  O   LIG    1       -6.203   7.304   1.570  0.00  0.00    -0.380 OA
ATOM     25  C   LIG    1       -5.991   6.484   0.419  0.00  0.00    +0.210 C 
ATOM     26  C   LIG    1       -4.492   6.211   0.260  0.00  0.00    +0.020 C 
ENDBRANCH  15  16
ENDBRANCH  14  15
ENDBRANCH   7  14
TORSDOF 7
