REMARK  Name = ZINCnE000001Se9t.0
REMARK                            x       y       z     vdW  Elec       q    Type
REMARK                         _______ _______ _______ _____ _____    ______ ____
ROOT
ATOM      1  C   LIG    1        2.356   1.220  -0.014  0.00  0.00    +0.330 A 
ATOM      2  N   LIG    1        2.512  -0.074  -0.017  0.00  0.00    -0.350 NA
ATOM      3  N   LIG    1        3.690  -0.522  -0.036  0.00  0.00    -0.180 NA
ATOM      4  C   LIG    1        4.667   0.341  -0.041  0.00  0.00    -0.070 A 
ATOM      5  S   LIG    1        3.959   1.957  -0.025  0.00  0.00    -0.040 S 
ENDROOT
BRANCH   4   6
ATOM      6  C   LIG    1        6.110   0.022  -0.057  0.00  0.00    +0.040 A 
ATOM      7  C   LIG    1        7.055   1.049  -0.066  0.00  0.00    +0.020 A 
ATOM      8  C   LIG    1        8.401   0.745  -0.075  0.00  0.00    +0.020 A 
ATOM      9  C   LIG    1        8.815  -0.575  -0.086  0.00  0.00    +0.010 A 
ATOM     10  C   LIG    1        7.885  -1.599  -0.083  0.00  0.00    +0.020 A 
ATOM     11  C   LIG    1        6.535  -1.309  -0.068  0.00  0.00    -0.030 A 
ATOM     12 CL   LIG    1        5.369  -2.595  -0.064  0.00  0.00    -0.040 Cl
ENDBRANCH   4   6
BRANCH   1  15
ATOM     13  O   LIG    1        0.002  -0.004   0.002  0.00  0.00    -0.560 OA
ATOM     14  C   LIG    1       -0.014   1.209   0.009  0.00  0.00    +0.460 C 
ATOM     15  N   LIG    1        1.143   1.898   0.001  0.00  0.00    -0.670 NA
BRANCH  14  16
ATOM     16  C   LIG    1       -1.330   1.944   0.019  0.00  0.00    +0.050 C 
BRANCH  16  17
ATOM     17  C   LIG    1       -2.479   0.934   0.019  0.00  0.00    +0.040 C 
BRANCH  17  18
ATOM     18  C   LIG    1       -3.814   1.681   0.029  0.00  0.00    +0.300 C 
BRANCH  18  19
ATOM     19  N   LIG    1       -4.915   0.714   0.029  0.00  0.00    -0.360 N 
ATOM     20  C   LIG    1       -5.920   0.655   0.928  0.00  0.00    +0.220 A 
ATOM     21  C   LIG    1       -6.726  -0.373   0.578  0.00  0.00    -0.140 A 
ATOM     22  C   LIG    1       -6.195  -0.964  -0.574  0.00  0.00    +0.220 A 
ATOM     23  N   LIG    1       -5.113  -0.309  -0.907  0.00  0.00    -0.290 NA
ENDBRANCH  18  19
ENDBRANCH  17  18
ENDBRANCH  16  17
ENDBRANCH  14  16
ENDBRANCH   1  15
TORSDOF 6
