REMARK  Name = ZINCkj000005i3te.0
REMARK                            x       y       z     vdW  Elec       q    Type
REMARK                         _______ _______ _______ _____ _____    ______ ____
ROOT
ATOM      1  C   LIG    1        8.380   3.046   4.082  0.00  0.00    +0.000 C 
ATOM      2  C   LIG    1        8.709   3.050   2.588  0.00  0.00    +0.020 C 
ATOM      3  C   LIG    1        7.766   4.016   1.863  0.00  0.00    +0.300 C 
ATOM      4  N   LIG    1        6.379   3.645   2.175  0.00  0.00    -0.620 N 
ATOM      5  C   LIG    1        5.978   3.530   3.584  0.00  0.00    +0.260 C 
ATOM      6  C   LIG    1        5.489   3.421   1.188  0.00  0.00    +0.710 C 
ATOM      7  N   LIG    1        4.196   3.186   1.486  0.00  0.00    -0.740 N 
ATOM      8  H   LIG    1        3.919   3.106   2.413  0.00  0.00    +0.400 HD
ATOM      9  O   LIG    1        5.853   3.431   0.028  0.00  0.00    -0.580 OA
ATOM     10  C   LIG    1        6.942   2.564   4.289  0.00  0.00    +0.020 C 
ENDROOT
BRANCH   7  11
ATOM     11  C   LIG    1        3.209   3.050   0.412  0.00  0.00    +0.290 C 
ATOM     12  C   LIG    1        1.773   3.391   0.849  0.00  0.00    +0.090 C 
ATOM     13  C   LIG    1        1.322   2.196   0.002  0.00  0.00    -0.140 C 
ATOM     14  C   LIG    1        0.457   2.193  -1.254  0.00  0.00    +0.150 C 
ATOM     15  C   LIG    1       -0.023   1.477   0.012  0.00  0.00    +0.120 C 
ATOM     16  C   LIG    1        2.723   1.606   0.199  0.00  0.00    +0.060 C 
BRANCH  15  17
ATOM     17  N   LIG    1       -0.007   0.008   0.007  0.00  0.00    -0.610 N 
ATOM     18  H   LIG    1        0.465  -0.321  -0.822  0.00  0.00    +0.430 HD
ATOM     19  H   LIG    1       -0.954  -0.338   0.015  0.00  0.00    +0.440 HD
ATOM     20  H   LIG    1        0.480  -0.325   0.826  0.00  0.00    +0.440 HD
ENDBRANCH  15  17
ENDBRANCH   7  11
BRANCH   1  21
ATOM     21  C   LIG    1        9.343   2.109   4.814  0.00  0.00    +0.030 C 
BRANCH  21  22
ATOM     22  C   LIG    1        9.096   2.200   6.321  0.00  0.00    +0.160 C 
BRANCH  22  24
ATOM     23  C   LIG    1        9.848   1.333   8.426  0.00  0.00    +0.200 C 
ATOM     24  O   LIG    1        9.995   1.324   7.005  0.00  0.00    -0.390 OA
ENDBRANCH  22  24
ENDBRANCH  21  22
ENDBRANCH   1  21
TORSDOF 5
