REMARK  Name = ZINCpe000000UQqt.0
REMARK                            x       y       z     vdW  Elec       q    Type
REMARK                         _______ _______ _______ _____ _____    ______ ____
ROOT
ATOM      1  C   LIG    1       -2.530   5.333   3.693  0.00  0.00    +0.580 C 
ATOM      2  N   LIG    1       -1.525   4.800   2.972  0.00  0.00    -0.590 N 
ATOM      3  C   LIG    1       -0.247   5.512   2.816  0.00  0.00    +0.300 C 
ATOM      4  C   LIG    1        0.098   5.572   1.324  0.00  0.00    +0.170 C 
ATOM      5  N   LIG    1        0.071   4.215   0.763  0.00  0.00    -0.530 NA
ATOM      6  C   LIG    1       -1.274   3.630   0.848  0.00  0.00    +0.170 C 
ATOM      7  C   LIG    1       -1.675   3.490   2.320  0.00  0.00    +0.300 C 
ATOM      8  O   LIG    1       -2.458   6.484   4.079  0.00  0.00    -0.520 OA
ENDROOT
BRANCH   1  12
ATOM      9  C   LIG    1       -4.681   1.004   4.075  0.00  0.00    +0.340 C 
ATOM     10  N   LIG    1       -4.830   2.460   4.012  0.00  0.00    -0.470 N 
ATOM     11  N   LIG    1       -3.721   3.261   3.723  0.00  0.00    -0.200 NA
ATOM     12  C   LIG    1       -3.713   4.525   4.013  0.00  0.00    +0.080 C 
ATOM     13  C   LIG    1       -4.897   5.173   4.678  0.00  0.00    +0.120 C 
ATOM     14  C   LIG    1       -6.188   4.518   4.173  0.00  0.00    +0.090 C 
ATOM     15  C   LIG    1       -6.036   3.019   4.232  0.00  0.00    +0.490 C 
ATOM     16  O   LIG    1       -6.996   2.319   4.477  0.00  0.00    -0.510 OA
ENDBRANCH   1  12
BRANCH   5  17
ATOM     17  C   LIG    1        0.562   4.207  -0.621  0.00  0.00    +0.210 C 
BRANCH  17  18
ATOM     18  C   LIG    1        2.087   4.337  -0.622  0.00  0.00    +0.200 C 
BRANCH  18  19
ATOM     19  O   LIG    1        2.665   3.171  -0.033  0.00  0.00    -0.300 OA
BRANCH  19  20
ATOM     20  C   LIG    1        4.021   3.126   0.044  0.00  0.00    +0.130 A 
ATOM     21  C   LIG    1        4.780   4.181  -0.442  0.00  0.00    -0.090 A 
ATOM     22  C   LIG    1        6.158   4.135  -0.357  0.00  0.00    +0.040 A 
ATOM     23  C   LIG    1        6.781   3.035   0.202  0.00  0.00    -0.040 A 
ATOM     24  C   LIG    1        6.027   1.980   0.682  0.00  0.00    +0.050 A 
ATOM     25  C   LIG    1        4.649   2.023   0.605  0.00  0.00    -0.020 A 
ENDBRANCH  19  20
ENDBRANCH  18  19
ENDBRANCH  17  18
ENDBRANCH   5  17
TORSDOF 5
