REMARK  Name = ZINCrH000004joLP.0
REMARK                            x       y       z     vdW  Elec       q    Type
REMARK                         _______ _______ _______ _____ _____    ______ ____
ROOT
ATOM      1  N   LIG    1        0.976  -0.474  -0.986  0.00  0.00    -0.700 N 
ATOM      2  H   LIG    1        1.720   0.094  -1.242  0.00  0.00    +0.420 HD
ATOM      3  C   LIG    1        0.839  -1.695  -1.540  0.00  0.00    +0.600 C 
ATOM      4  O   LIG    1       -0.093  -2.406  -1.220  0.00  0.00    -0.510 OA
ENDROOT
BRANCH   3   5
ATOM      5  C   LIG    1        1.821  -2.168  -2.536  0.00  0.00    +0.050 C 
ATOM      6  N   LIG    1        2.848  -1.510  -2.956  0.00  0.00    -0.240 NA
ATOM      7  O   LIG    1        3.609  -2.228  -3.907  0.00  0.00    -0.170 OA
ATOM      8  C   LIG    1        2.780  -3.294  -4.413  0.00  0.00    +0.190 C 
ATOM      9  C   LIG    1        1.798  -3.514  -3.235  0.00  0.00    +0.110 C 
BRANCH   8  10
ATOM     10  C   LIG    1        3.595  -4.536  -4.670  0.00  0.00    -0.100 A 
ATOM     11  C   LIG    1        4.612  -4.886  -3.802  0.00  0.00    +0.030 A 
ATOM     12  C   LIG    1        5.357  -6.028  -4.034  0.00  0.00    +0.010 A 
ATOM     13  C   LIG    1        5.090  -6.813  -5.140  0.00  0.00    +0.020 A 
ATOM     14  C   LIG    1        4.077  -6.460  -6.011  0.00  0.00    +0.010 A 
ATOM     15  C   LIG    1        3.329  -5.321  -5.776  0.00  0.00    +0.030 A 
ENDBRANCH   8  10
ENDBRANCH   3   5
BRANCH   1  16
ATOM     16  C   LIG    1        0.002  -0.004   0.002  0.00  0.00    +0.340 C 
ATOM     17  C   LIG    1        0.395  -0.516   1.389  0.00  0.00    +0.060 C 
BRANCH  16  26
ATOM     18  N   LIG    1       -1.144   2.267   0.019  0.00  0.00    -0.480 N 
ATOM     19  C   LIG    1       -0.743   3.588   0.028  0.00  0.00    +0.050 A 
ATOM     20  C   LIG    1       -1.416   4.802   0.040  0.00  0.00    +0.010 A 
ATOM     21  C   LIG    1       -0.699   5.980   0.038  0.00  0.00    +0.030 A 
ATOM     22  C   LIG    1        0.688   5.959   0.025  0.00  0.00    +0.000 A 
ATOM     23  C   LIG    1        1.367   4.773   0.013  0.00  0.00    +0.070 A 
ATOM     24  C   LIG    1        0.662   3.567   0.014  0.00  0.00    +0.050 A 
ATOM     25  N   LIG    1        1.038   2.263   0.004  0.00  0.00    -0.480 NA
ATOM     26  C   LIG    1       -0.018   1.503   0.010  0.00  0.00    +0.260 A 
BRANCH  18  28
ATOM     27  C   LIG    1       -2.999   1.601   1.467  0.00  0.00    +0.040 C 
ATOM     28  C   LIG    1       -2.525   1.778   0.023  0.00  0.00    +0.300 C 
ENDBRANCH  18  28
ENDBRANCH  16  26
ENDBRANCH   1  16
TORSDOF 5
