REMARK  Name = ZINCpk00000jhGZp.0
REMARK                            x       y       z     vdW  Elec       q    Type
REMARK                         _______ _______ _______ _____ _____    ______ ____
ROOT
ATOM      1  C   LIG    1       -0.013   1.086   0.008  0.00  0.00    -0.030 C 
ATOM      2  C   LIG    1        1.423   1.616  -0.003  0.00  0.00    +0.030 C 
ATOM      3  C   LIG    1        2.175   1.082   1.218  0.00  0.00    +0.010 C 
ATOM      4  C   LIG    1        1.486   1.577   2.494  0.00  0.00    +0.280 C 
ATOM      5  N   LIG    1        0.069   1.195   2.444  0.00  0.00    -0.600 N 
ATOM      6  C   LIG    1       -0.493   0.505   3.457  0.00  0.00    +0.690 C 
ATOM      7  O   LIG    1       -1.670   0.195   3.404  0.00  0.00    -0.620 OA
ATOM      8  C   LIG    1       -0.726   1.581   1.270  0.00  0.00    +0.290 C 
ENDROOT
BRANCH   6   9
ATOM      9  N   LIG    1        0.243   0.161   4.521  0.00  0.00    -0.690 NA
ATOM     10  C   LIG    1       -0.311  -0.520   5.519  0.00  0.00    +0.510 A 
ATOM     11  C   LIG    1       -1.655  -0.941   5.601  0.00  0.00    -0.100 A 
ATOM     12  C   LIG    1       -1.822  -1.606   6.768  0.00  0.00    +0.160 A 
ATOM     13  C   LIG    1       -2.881  -2.328   7.577  0.00  0.00    +0.150 C 
ATOM     14  C   LIG    1       -2.287  -2.405   9.001  0.00  0.00    +0.070 C 
ATOM     15  C   LIG    1       -0.771  -2.338   8.720  0.00  0.00    +0.320 C 
ATOM     16  N   LIG    1       -0.636  -1.621   7.441  0.00  0.00    -0.420 N 
ATOM     17  N   LIG    1        0.317  -0.938   6.666  0.00  0.00    -0.460 N 
ATOM     18  H   LIG    1        1.247  -0.790   6.898  0.00  0.00    +0.450 HD
ENDBRANCH   6   9
BRANCH   1  19
ATOM     19  C   LIG    1       -0.754   1.593  -1.230  0.00  0.00    +0.270 C 
BRANCH  19  20
ATOM     20  N   LIG    1       -2.089   0.992  -1.281  0.00  0.00    -1.120 NA
ATOM     21  H   LIG    1       -2.296   0.223  -0.727  0.00  0.00    +0.420 HD
BRANCH  20  22
ATOM     22  S   LIG    1       -3.244   1.624  -2.285  0.00  0.00    +2.610 S 
ATOM     23  O   LIG    1       -3.251   3.012  -1.981  0.00  0.00    -0.950 OA
ATOM     24  O   LIG    1       -4.390   0.817  -2.052  0.00  0.00    -0.950 OA
BRANCH  22  26
ATOM     25  C   LIG    1       -2.403  -0.159  -4.181  0.00  0.00    +0.080 C 
ATOM     26  C   LIG    1       -2.596   1.342  -3.956  0.00  0.00    -0.460 C 
ATOM     27  C   LIG    1       -3.586   1.889  -4.986  0.00  0.00    +0.080 C 
ENDBRANCH  22  26
ENDBRANCH  20  22
ENDBRANCH  19  20
ENDBRANCH   1  19
TORSDOF 5
