REMARK  Name = ZINCrD000000BEUc.0
REMARK                            x       y       z     vdW  Elec       q    Type
REMARK                         _______ _______ _______ _____ _____    ______ ____
ROOT
ATOM      1  O   LIG    1       -0.082   7.748   1.259  0.00  0.00    -0.520 OA
ATOM      2  C   LIG    1       -1.038   7.036   1.496  0.00  0.00    +0.560 C 
ATOM      3  N   LIG    1       -1.127   5.816   0.930  0.00  0.00    -0.710 N 
ATOM      4  H   LIG    1       -1.891   5.248   1.119  0.00  0.00    +0.400 HD
ENDROOT
BRANCH   2   5
ATOM      5  C   LIG    1       -2.105   7.510   2.404  0.00  0.00    -0.080 A 
ATOM      6  C   LIG    1       -3.208   6.698   2.673  0.00  0.00    +0.030 A 
ATOM      7  C   LIG    1       -4.197   7.143   3.525  0.00  0.00    +0.120 A 
ATOM      8  C   LIG    1       -4.103   8.397   4.104  0.00  0.00    -0.660 A 
ATOM      9  C   LIG    1       -3.015   9.209   3.837  0.00  0.00    +0.130 A 
ATOM     10  C   LIG    1       -2.016   8.773   2.991  0.00  0.00    +0.070 A 
BRANCH   8  11
ATOM     11  S   LIG    1       -5.374   8.961   5.186  0.00  0.00    +2.710 S 
ATOM     12  O   LIG    1       -4.783   9.950   6.018  0.00  0.00    -0.950 OA
ATOM     13  O   LIG    1       -6.014   7.798   5.694  0.00  0.00    -0.950 OA
BRANCH  11  14
ATOM     14  N   LIG    1       -6.497   9.744   4.255  0.00  0.00    -1.010 NA
ATOM     15  C   LIG    1       -6.494  11.179   3.934  0.00  0.00    +0.270 C 
ATOM     16  C   LIG    1       -7.739  11.457   3.066  0.00  0.00    +0.030 C 
ATOM     17  C   LIG    1       -8.681  10.278   3.425  0.00  0.00    +0.040 C 
ATOM     18  C   LIG    1       -7.670   9.120   3.617  0.00  0.00    +0.270 C 
ENDBRANCH  11  14
ENDBRANCH   8  11
ENDBRANCH   2   5
BRANCH   3  19
ATOM     19  C   LIG    1       -0.070   5.347   0.031  0.00  0.00    +0.320 C 
BRANCH  19  20
ATOM     20  C   LIG    1       -0.050   3.840   0.022  0.00  0.00    -0.090 A 
ATOM     21  C   LIG    1        1.156   3.165   0.008  0.00  0.00    +0.030 A 
ATOM     22  C   LIG    1        1.175   1.783   0.000  0.00  0.00    +0.020 A 
ATOM     23  C   LIG    1       -0.013   1.076   0.008  0.00  0.00    +0.000 A 
ATOM     24  C   LIG    1       -1.219   1.751   0.017  0.00  0.00    +0.020 A 
ATOM     25  C   LIG    1       -1.238   3.133   0.029  0.00  0.00    +0.000 A 
ENDBRANCH  19  20
BRANCH  19  26
ATOM     26  C   LIG    1       -0.340   5.861  -1.385  0.00  0.00    -0.060 C 
ATOM     27  C   LIG    1        0.801   6.583  -2.104  0.00  0.00    +0.030 C 
ATOM     28  C   LIG    1       -0.400   7.377  -1.587  0.00  0.00    +0.030 C 
ENDBRANCH  19  26
ENDBRANCH   3  19
TORSDOF 6
