REMARK  Name = ZINCrH000004rDWo.0
REMARK                            x       y       z     vdW  Elec       q    Type
REMARK                         _______ _______ _______ _____ _____    ______ ____
ROOT
ATOM      1  C   LIG    1        5.984   0.790  -0.051  0.00  0.00    +0.590 C 
ATOM      2  N   LIG    1        6.629   1.973  -0.051  0.00  0.00    -0.720 N 
ATOM      3  H   LIG    1        6.123   2.801  -0.041  0.00  0.00    +0.400 HD
ATOM      4  O   LIG    1        6.618  -0.248  -0.062  0.00  0.00    -0.520 OA
ENDROOT
BRANCH   1  12
ATOM      5  C   LIG    1       -1.297  -0.768   0.010  0.00  0.00    +0.100 C 
ATOM      6  C   LIG    1        0.002  -0.004   0.002  0.00  0.00    -0.110 A 
ATOM      7  C   LIG    1       -0.017   1.385   0.010  0.00  0.00    +0.050 A 
ATOM      8  C   LIG    1        1.158   2.103   0.002  0.00  0.00    -0.010 A 
ATOM      9  C   LIG    1        2.378   1.433  -0.013  0.00  0.00    +0.110 A 
ATOM     10  N   LIG    1        3.686   1.859  -0.023  0.00  0.00    -0.580 N 
ATOM     11  H   LIG    1        3.978   2.784  -0.021  0.00  0.00    +0.420 HD
ATOM     12  C   LIG    1        4.514   0.753  -0.037  0.00  0.00    +0.010 A 
ATOM     13  C   LIG    1        3.754  -0.373  -0.035  0.00  0.00    +0.060 A 
ATOM     14  C   LIG    1        2.395   0.024  -0.020  0.00  0.00    -0.120 A 
ATOM     15  C   LIG    1        1.186  -0.683  -0.013  0.00  0.00    +0.070 A 
ENDBRANCH   1  12
BRANCH   2  16
ATOM     16  C   LIG    1        8.093   2.009  -0.065  0.00  0.00    +0.300 C 
BRANCH  16  17
ATOM     17  C   LIG    1        8.568   3.464  -0.062  0.00  0.00    +0.160 C 
ATOM     18  C   LIG    1       10.091   3.505  -0.202  0.00  0.00    +0.180 C 
ATOM     19  N   LIG    1       10.549   4.900  -0.121  0.00  0.00    -0.490 N 
ATOM     20  C   LIG    1       10.143   5.508   1.155  0.00  0.00    +0.180 C 
ATOM     21  C   LIG    1        8.619   5.447   1.282  0.00  0.00    +0.230 C 
ATOM     22  O   LIG    1        8.190   4.087   1.169  0.00  0.00    -0.380 OA
BRANCH  19  23
ATOM     23  C   LIG    1       11.932   4.985  -0.299  0.00  0.00    +0.110 A 
ATOM     24  C   LIG    1       12.678   3.833  -0.512  0.00  0.00    -0.020 A 
ATOM     25  C   LIG    1       14.044   3.920  -0.693  0.00  0.00    +0.060 A 
ATOM     26  C   LIG    1       14.672   5.153  -0.652  0.00  0.00    -0.060 A 
ATOM     27  C   LIG    1       13.931   6.302  -0.434  0.00  0.00    +0.060 A 
ATOM     28 CL   LIG    1       16.390   5.259  -0.873  0.00  0.00    -0.070 Cl
ATOM     29  C   LIG    1       12.564   6.221  -0.258  0.00  0.00    +0.000 A 
ENDBRANCH  19  23
ENDBRANCH  16  17
ENDBRANCH   2  16
TORSDOF 4
