REMARK  Name = ZINCvU00000008yk.0
REMARK                            x       y       z     vdW  Elec       q    Type
REMARK                         _______ _______ _______ _____ _____    ______ ____
ROOT
ATOM      1  O   LIG    1        5.931  -4.322   3.687  0.00  0.00    -0.500 OA
ATOM      2  C   LIG    1        5.481  -5.428   3.900  0.00  0.00    +0.510 C 
ATOM      3  N   LIG    1        4.150  -5.601   4.023  0.00  0.00    -0.680 N 
ATOM      4  H   LIG    1        3.795  -6.469   4.271  0.00  0.00    +0.410 HD
ENDROOT
BRANCH   3   5
ATOM      5  C   LIG    1        3.280  -4.529   3.792  0.00  0.00    +0.150 A 
ATOM      6  C   LIG    1        2.114  -4.407   4.538  0.00  0.00    +0.000 A 
ATOM      7  C   LIG    1        1.252  -3.350   4.314  0.00  0.00    +0.040 A 
ATOM      8  C   LIG    1        1.548  -2.405   3.352  0.00  0.00    +0.000 A 
ATOM      9  C   LIG    1        2.713  -2.522   2.594  0.00  0.00    +0.010 A 
ATOM     10  C   LIG    1        3.583  -3.588   2.820  0.00  0.00    +0.070 A 
BRANCH   9  11
ATOM     11  C   LIG    1        3.029  -1.514   1.558  0.00  0.00    +0.210 A 
ATOM     12  N   LIG    1        4.211  -1.274   1.031  0.00  0.00    -0.270 NA
ATOM     13  N   LIG    1        4.114  -0.335   0.156  0.00  0.00    -0.290 NA
ATOM     14  C   LIG    1        2.878   0.070   0.073  0.00  0.00    +0.190 A 
ATOM     15  C   LIG    1        2.327   1.133  -0.842  0.00  0.00    +0.150 C 
ATOM     16  C   LIG    1        1.422   2.068  -0.035  0.00  0.00    +0.030 C 
ATOM     17  C   LIG    1       -0.001   1.519  -0.021  0.00  0.00    +0.020 C 
ATOM     18  C   LIG    1        0.013  -0.009  -0.025  0.00  0.00    +0.030 C 
ATOM     19  C   LIG    1        0.719  -0.522   1.233  0.00  0.00    +0.290 C 
ATOM     20  N   LIG    1        2.151  -0.654   0.966  0.00  0.00    -0.470 N 
ENDBRANCH   9  11
ENDBRANCH   3   5
BRANCH   2  21
ATOM     21  C   LIG    1        6.409  -6.608   4.027  0.00  0.00    +0.060 C 
BRANCH  21  22
ATOM     22  C   LIG    1        7.855  -6.141   3.849  0.00  0.00    +0.060 C 
BRANCH  22  23
ATOM     23  C   LIG    1        8.798  -7.339   3.978  0.00  0.00    +0.140 C 
BRANCH  23  24
ATOM     24  C   LIG    1       10.222  -6.879   3.801  0.00  0.00    +0.100 A 
ATOM     25  N   LIG    1       10.974  -6.484   4.758  0.00  0.00    -0.470 NA
ATOM     26  C   LIG    1       12.230  -6.104   4.454  0.00  0.00    +0.080 A 
ATOM     27  C   LIG    1       13.258  -5.637   5.298  0.00  0.00    +0.070 A 
ATOM     28  C   LIG    1       14.471  -5.295   4.782  0.00  0.00    +0.030 A 
ATOM     29  C   LIG    1       14.720  -5.400   3.421  0.00  0.00    +0.040 A 
ATOM     30  C   LIG    1       13.735  -5.854   2.573  0.00  0.00    +0.060 A 
ATOM     31  C   LIG    1       12.487  -6.208   3.083  0.00  0.00    -0.180 A 
ATOM     32  S   LIG    1       11.031  -6.813   2.300  0.00  0.00    +0.100 S 
ENDBRANCH  23  24
ENDBRANCH  22  23
ENDBRANCH  21  22
ENDBRANCH   2  21
TORSDOF 6
