REMARK  Name = ZINCrH000004o1Dt.2
REMARK                            x       y       z     vdW  Elec       q    Type
REMARK                         _______ _______ _______ _____ _____    ______ ____
ROOT
ATOM      1  C   LIG    1       -1.440   1.378  -3.274  0.00  0.00    +0.520 C 
ATOM      2  N   LIG    1       -1.356   0.881  -4.524  0.00  0.00    -0.680 N 
ATOM      3  H   LIG    1       -0.990  -0.006  -4.670  0.00  0.00    +0.410 HD
ATOM      4  O   LIG    1       -1.982   2.446  -3.081  0.00  0.00    -0.500 OA
ENDROOT
BRANCH   2   5
ATOM      5  C   LIG    1       -1.798   1.644  -5.613  0.00  0.00    +0.130 A 
ATOM      6  C   LIG    1       -2.360   1.018  -6.717  0.00  0.00    +0.010 A 
ATOM      7  C   LIG    1       -2.800   1.770  -7.788  0.00  0.00    -0.020 A 
ATOM      8  C   LIG    1       -2.670   3.153  -7.766  0.00  0.00    +0.090 A 
ATOM      9  C   LIG    1       -2.102   3.779  -6.663  0.00  0.00    +0.010 A 
ATOM     10  C   LIG    1       -1.668   3.026  -5.590  0.00  0.00    +0.050 A 
BRANCH   8  11
ATOM     11  N   LIG    1       -3.110   3.915  -8.853  0.00  0.00    -0.490 N 
ATOM     12  C   LIG    1       -4.088   4.926  -8.426  0.00  0.00    +0.160 C 
ATOM     13  C   LIG    1       -4.496   5.774  -9.634  0.00  0.00    +0.220 C 
ATOM     14  O   LIG    1       -5.013   4.919 -10.657  0.00  0.00    -0.380 OA
ATOM     15  C   LIG    1       -4.087   3.922 -11.097  0.00  0.00    +0.220 C 
ATOM     16  C   LIG    1       -3.674   3.056  -9.904  0.00  0.00    +0.160 C 
ENDBRANCH   8  11
ENDBRANCH   2   5
BRANCH   1  18
ATOM     17  C   LIG    1       -1.546  -0.757  -2.017  0.00  0.00    +0.020 C 
ATOM     18  C   LIG    1       -0.861   0.607  -2.116  0.00  0.00    +0.170 C 
BRANCH  18  19
ATOM     19  N   LIG    1       -1.079   1.356  -0.871  0.00  0.00    -0.500 NA
ATOM     20  C   LIG    1       -2.515   1.431  -0.545  0.00  0.00    +0.200 C 
ATOM     21  C   LIG    1       -2.695   0.834   0.867  0.00  0.00    +0.000 C 
ATOM     22  C   LIG    1       -1.279   0.975   1.491  0.00  0.00    +0.040 C 
ATOM     23  C   LIG    1       -0.372   0.720   0.261  0.00  0.00    +0.200 C 
BRANCH  23  24
ATOM     24  C   LIG    1        0.977   1.360   0.462  0.00  0.00    -0.100 A 
ATOM     25  C   LIG    1        1.178   2.671   0.322  0.00  0.00    +0.000 A 
ATOM     26  S   LIG    1        2.868   3.046   0.634  0.00  0.00    +0.090 S 
ATOM     27  C   LIG    1        3.217   1.351   0.946  0.00  0.00    -0.060 A 
ATOM     28  C   LIG    1        2.102   0.632   0.813  0.00  0.00    +0.010 A 
ENDBRANCH  23  24
ENDBRANCH  18  19
ENDBRANCH   1  18
TORSDOF 5
