REMARK  Name = ZINCrH000004j3VA.0
REMARK                            x       y       z     vdW  Elec       q    Type
REMARK                         _______ _______ _______ _____ _____    ______ ____
ROOT
ATOM      1  C   LIG    1       -1.212   1.578   0.018  0.00  0.00    +0.610 C 
ATOM      2  N   LIG    1       -0.011   0.966   0.007  0.00  0.00    -0.660 N 
ATOM      3  H   LIG    1        0.039  -0.003   0.007  0.00  0.00    +0.420 HD
ATOM      4  O   LIG    1       -1.277   2.789  -0.067  0.00  0.00    -0.510 OA
ENDROOT
BRANCH   2   5
ATOM      5  C   LIG    1        1.162   1.727  -0.009  0.00  0.00    +0.140 A 
ATOM      6  C   LIG    1        2.287   1.286   0.678  0.00  0.00    +0.000 A 
ATOM      7  C   LIG    1        3.449   2.033   0.660  0.00  0.00    +0.040 A 
ATOM      8  C   LIG    1        3.496   3.227  -0.030  0.00  0.00    +0.020 A 
ATOM      9  C   LIG    1        2.371   3.681  -0.717  0.00  0.00    -0.010 A 
ATOM     10  C   LIG    1        1.202   2.926  -0.705  0.00  0.00    +0.060 A 
BRANCH   9  11
ATOM     11  C   LIG    1        2.421   4.965  -1.461  0.00  0.00    +0.050 A 
ATOM     12  N   LIG    1        1.450   5.514  -2.147  0.00  0.00    -0.350 NA
ATOM     13  O   LIG    1        1.797   6.563  -2.640  0.00  0.00    +0.110 OA
ATOM     14  C   LIG    1        3.070   6.857  -2.342  0.00  0.00    +0.160 A 
ATOM     15  C   LIG    1        3.530   5.849  -1.566  0.00  0.00    -0.050 A 
ENDBRANCH   9  11
ENDBRANCH   2   5
BRANCH   1  18
ATOM     16  N   LIG    1       -4.549   0.215   0.268  0.00  0.00    -0.300 N 
ATOM     17  C   LIG    1       -3.719   1.275   0.158  0.00  0.00    +0.310 A 
ATOM     18  C   LIG    1       -2.446   0.779   0.131  0.00  0.00    -0.100 A 
ATOM     19  N   LIG    1       -2.509  -0.560   0.231  0.00  0.00    -0.200 NA
ATOM     20  N   LIG    1       -3.739  -0.929   0.314  0.00  0.00    -0.050 NA
BRANCH  16  24
ATOM     21  C   LIG    1       -8.712   0.324   0.451  0.00  0.00    -0.070 A 
ATOM     22  C   LIG    1       -8.051  -0.889   0.508  0.00  0.00    +0.040 A 
ATOM     23  C   LIG    1       -6.671  -0.928   0.448  0.00  0.00    +0.040 A 
ATOM     24  C   LIG    1       -5.949   0.252   0.329  0.00  0.00    +0.120 A 
ATOM     25  C   LIG    1       -6.616   1.468   0.277  0.00  0.00    +0.020 A 
ATOM     26  C   LIG    1       -7.995   1.501   0.333  0.00  0.00    +0.050 A 
BRANCH  21  28
ATOM     27  C   LIG    1      -10.660   0.481   1.978  0.00  0.00    +0.030 C 
ATOM     28  C   LIG    1      -10.217   0.364   0.518  0.00  0.00    +0.070 C 
ENDBRANCH  21  28
ENDBRANCH  16  24
ENDBRANCH   1  18
TORSDOF 5
