REMARK  Name = ZINCvU000000072r.0
REMARK                            x       y       z     vdW  Elec       q    Type
REMARK                         _______ _______ _______ _____ _____    ______ ____
ROOT
ATOM      1  C   LIG    1       -2.232   1.771   5.301  0.00  0.00    +0.200 A 
ATOM      2  N   LIG    1       -1.680   1.209   4.233  0.00  0.00    -0.520 NA
ATOM      3  C   LIG    1       -0.625   1.742   3.638  0.00  0.00    +0.340 A 
ATOM      4  N   LIG    1       -0.051   2.845   4.056  0.00  0.00    -0.510 NA
ATOM      5  C   LIG    1       -0.531   3.499   5.125  0.00  0.00    +0.170 A 
ATOM      6  C   LIG    1        0.054   4.682   5.596  0.00  0.00    +0.040 A 
ATOM      7  C   LIG    1       -0.471   5.303   6.691  0.00  0.00    +0.070 A 
ATOM      8  C   LIG    1       -1.580   4.781   7.349  0.00  0.00    +0.020 A 
ATOM      9  C   LIG    1       -2.173   3.631   6.917  0.00  0.00    +0.070 A 
ATOM     10  C   LIG    1       -1.659   2.969   5.797  0.00  0.00    -0.140 A 
ENDROOT
BRANCH   1  11
ATOM     11  S   LIG    1       -3.637   1.049   6.080  0.00  0.00    +0.000 S 
BRANCH  11  12
ATOM     12  C   LIG    1       -3.876  -0.398   5.019  0.00  0.00    +0.210 C 
BRANCH  12  15
ATOM     13  C   LIG    1       -6.025  -2.774   6.750  0.00  0.00    +0.120 A 
ATOM     14  N   LIG    1       -4.936  -2.156   6.392  0.00  0.00    -0.450 NA
ATOM     15  C   LIG    1       -5.060  -1.191   5.510  0.00  0.00    +0.070 A 
ATOM     16  C   LIG    1       -6.301  -0.959   5.070  0.00  0.00    -0.030 A 
ATOM     17  S   LIG    1       -7.391  -2.086   5.876  0.00  0.00    +0.120 S 
BRANCH  13  22
ATOM     18 CL   LIG    1       -6.334  -7.250  10.709  0.00  0.00    -0.060 Cl
ATOM     19  C   LIG    1       -6.245  -5.951   9.561  0.00  0.00    -0.020 A 
ATOM     20  C   LIG    1       -7.397  -5.499   8.940  0.00  0.00    +0.030 A 
ATOM     21  C   LIG    1       -7.331  -4.468   8.027  0.00  0.00    +0.060 A 
ATOM     22  C   LIG    1       -6.101  -3.880   7.729  0.00  0.00    -0.030 A 
ATOM     23  C   LIG    1       -4.943  -4.343   8.354  0.00  0.00    +0.090 A 
ATOM     24  C   LIG    1       -5.021  -5.372   9.270  0.00  0.00    +0.030 A 
ENDBRANCH  13  22
ENDBRANCH  12  15
ENDBRANCH  11  12
ENDBRANCH   1  11
BRANCH   3  25
ATOM     25  C   LIG    1       -0.053   1.047   2.430  0.00  0.00    +0.290 C 
BRANCH  25  26
ATOM     26  N   LIG    1       -0.703   1.561   1.216  0.00  0.00    -0.530 NA
ATOM     27  C   LIG    1       -0.013   1.086   0.008  0.00  0.00    +0.160 C 
ATOM     28  C   LIG    1       -0.755   1.594  -1.231  0.00  0.00    +0.220 C 
ATOM     29  O   LIG    1       -0.837   3.021  -1.180  0.00  0.00    -0.380 OA
ATOM     30  C   LIG    1       -1.504   3.518  -0.017  0.00  0.00    +0.220 C 
ATOM     31  C   LIG    1       -0.769   3.029   1.235  0.00  0.00    +0.150 C 
ENDBRANCH  25  26
ENDBRANCH   3  25
TORSDOF 6
