REMARK  Name = ZINCpe00000c97O3.0
REMARK                            x       y       z     vdW  Elec       q    Type
REMARK                         _______ _______ _______ _____ _____    ______ ____
ROOT
ATOM      1  C   LIG    1        6.730   2.580  -3.263  0.00  0.00    -0.030 C 
ATOM      2  C   LIG    1        7.833   2.498  -2.205  0.00  0.00    +0.030 C 
ATOM      3  C   LIG    1        7.205   2.495  -0.810  0.00  0.00    +0.020 C 
ATOM      4  C   LIG    1        6.431   3.801  -0.601  0.00  0.00    +0.270 C 
ATOM      5  N   LIG    1        5.466   3.959  -1.697  0.00  0.00    -0.610 N 
ATOM      6  C   LIG    1        4.160   4.167  -1.437  0.00  0.00    +0.520 C 
ATOM      7  O   LIG    1        3.373   4.295  -2.350  0.00  0.00    -0.520 OA
ATOM      8  C   LIG    1        5.950   3.881  -3.082  0.00  0.00    +0.280 C 
ENDROOT
BRANCH   1   9
ATOM      9  C   LIG    1        7.357   2.549  -4.658  0.00  0.00    +0.280 C 
BRANCH   9  12
ATOM     10  O   LIG    1        7.780   2.480  -7.320  0.00  0.00    -0.520 OA
ATOM     11  C   LIG    1        6.616   2.475  -6.978  0.00  0.00    +0.510 C 
ATOM     12  N   LIG    1        6.298   2.507  -5.669  0.00  0.00    -0.730 N 
ATOM     13  H   LIG    1        5.367   2.503  -5.396  0.00  0.00    +0.400 HD
BRANCH  11  14
ATOM     14  C   LIG    1        5.526   2.432  -8.018  0.00  0.00    +0.220 C 
BRANCH  14  15
ATOM     15  O   LIG    1        6.112   2.403  -9.321  0.00  0.00    -0.550 OA
ATOM     16  H   LIG    1        5.467   2.375 -10.042  0.00  0.00    +0.390 HD
ENDBRANCH  14  15
ENDBRANCH  11  14
ENDBRANCH   9  12
ENDBRANCH   1   9
BRANCH   6  17
ATOM     17  C   LIG    1        3.677   4.238  -0.011  0.00  0.00    +0.180 C 
BRANCH  17  18
ATOM     18  C   LIG    1        2.189   4.475   0.005  0.00  0.00    +0.150 A 
ATOM     19  N   LIG    1        1.596   5.629   0.016  0.00  0.00    -0.260 NA
ATOM     20  O   LIG    1        0.194   5.445   0.028  0.00  0.00    -0.080 OA
ATOM     21  C   LIG    1       -0.083   4.125   0.024  0.00  0.00    +0.080 A 
ATOM     22  C   LIG    1       -1.267   3.399   0.032  0.00  0.00    +0.060 A 
ATOM     23  C   LIG    1       -1.231   2.022   0.019  0.00  0.00    +0.070 A 
ATOM     24  C   LIG    1       -0.016   1.347   0.009  0.00  0.00    +0.070 A 
ATOM     25  C   LIG    1        1.170   2.049   0.002  0.00  0.00    +0.060 A 
ATOM     26  F   LIG    1        0.002  -0.004   0.002  0.00  0.00    -0.130 F 
ATOM     27  C   LIG    1        1.146   3.445   0.009  0.00  0.00    -0.160 A 
ENDBRANCH  17  18
ENDBRANCH   6  17
TORSDOF 6
