REMARK  Name = ZINCrH00000No4Uq.0
REMARK                            x       y       z     vdW  Elec       q    Type
REMARK                         _______ _______ _______ _____ _____    ______ ____
ROOT
ATOM      1  C   LIG    1        5.507   3.473  -1.550  0.00  0.00    +0.250 C 
ATOM      2  C   LIG    1        4.816   4.326  -2.616  0.00  0.00    +0.060 C 
ENDROOT
BRANCH   1   4
ATOM      3  C   LIG    1        7.864   3.503  -2.169  0.00  0.00    +0.550 C 
ATOM      4  N   LIG    1        6.693   2.836  -2.129  0.00  0.00    -0.710 N 
ATOM      5  H   LIG    1        6.636   1.935  -2.482  0.00  0.00    +0.410 HD
ATOM      6  O   LIG    1        7.936   4.635  -1.726  0.00  0.00    -0.550 OA
BRANCH   3   8
ATOM      7  C   LIG    1       10.220   3.535  -2.787  0.00  0.00    +0.140 C 
ATOM      8  C   LIG    1        9.048   2.868  -2.747  0.00  0.00    -0.100 C 
BRANCH   7  12
ATOM      9  C   LIG    1       13.654   1.692  -4.461  0.00  0.00    +0.140 A 
ATOM     10  C   LIG    1       13.739   2.984  -3.955  0.00  0.00    -0.020 A 
ATOM     11  C   LIG    1       12.627   3.587  -3.411  0.00  0.00    +0.090 A 
ATOM     12  C   LIG    1       11.410   2.897  -3.367  0.00  0.00    -0.120 A 
ATOM     13  C   LIG    1       11.332   1.593  -3.873  0.00  0.00    +0.070 A 
ATOM     14  C   LIG    1       12.448   1.002  -4.420  0.00  0.00    -0.080 A 
BRANCH   9  16
ATOM     15  C   LIG    1       14.597  -0.228  -5.497  0.00  0.00    +0.240 C 
ATOM     16  O   LIG    1       14.753   1.102  -4.996  0.00  0.00    -0.310 OA
ENDBRANCH   9  16
ENDBRANCH   7  12
ENDBRANCH   3   8
ENDBRANCH   1   4
BRANCH   1  17
ATOM     17  C   LIG    1        4.556   2.412  -1.061  0.00  0.00    +0.520 C 
ATOM     18  N   LIG    1        3.388   2.766  -0.488  0.00  0.00    -0.720 N 
ATOM     19  H   LIG    1        3.161   3.704  -0.390  0.00  0.00    +0.400 HD
ATOM     20  O   LIG    1        4.840   1.239  -1.183  0.00  0.00    -0.530 OA
BRANCH  18  21
ATOM     21  C   LIG    1        2.463   1.735  -0.012  0.00  0.00    +0.310 C 
ATOM     22  C   LIG    1        2.860   1.307   1.403  0.00  0.00    +0.040 C 
BRANCH  21  23
ATOM     23  C   LIG    1        1.061   2.287   0.004  0.00  0.00    -0.110 A 
ATOM     24  C   LIG    1       -0.018   1.503   0.010  0.00  0.00    -0.170 A 
ATOM     25  S   LIG    1       -1.469   2.497   0.022  0.00  0.00    +0.110 S 
ATOM     26  C   LIG    1       -0.499   3.965   0.027  0.00  0.00    -0.170 A 
ATOM     27  C   LIG    1       -1.048   5.368   0.039  0.00  0.00    +0.140 C 
ATOM     28  C   LIG    1        0.002  -0.004   0.002  0.00  0.00    +0.140 C 
ATOM     29  C   LIG    1        0.795   3.645   0.014  0.00  0.00    +0.000 A 
ENDBRANCH  21  23
ENDBRANCH  18  21
ENDBRANCH   1  17
TORSDOF 7
