REMARK  Name = ZINCpe000000XENm.2
REMARK                            x       y       z     vdW  Elec       q    Type
REMARK                         _______ _______ _______ _____ _____    ______ ____
ROOT
ATOM      1  N   LIG    1        1.656   3.763   1.134  0.00  0.00    -0.720 N 
ATOM      2  H   LIG    1        1.625   3.113   0.415  0.00  0.00    +0.400 HD
ATOM      3  C   LIG    1        1.495   5.074   0.865  0.00  0.00    +0.500 C 
ATOM      4  O   LIG    1        1.533   5.887   1.765  0.00  0.00    -0.530 OA
ENDROOT
BRANCH   1   5
ATOM      5  C   LIG    1        1.878   3.320   2.513  0.00  0.00    +0.220 C 
ATOM      6  C   LIG    1        3.372   3.389   2.837  0.00  0.00    +0.040 C 
BRANCH   5   7
ATOM      7  C   LIG    1        1.388   1.880   2.671  0.00  0.00    +0.330 C 
BRANCH   7  14
ATOM      8  C   LIG    1       -0.727   2.407   4.875  0.00  0.00    +0.140 C 
ATOM      9  C   LIG    1       -0.995   2.062   3.433  0.00  0.00    +0.090 A 
ATOM     10  C   LIG    1       -2.213   1.919   2.861  0.00  0.00    -0.120 A 
ATOM     11  C   LIG    1       -2.020   1.601   1.513  0.00  0.00    +0.080 A 
ATOM     12  N   LIG    1       -0.733   1.547   1.286  0.00  0.00    -0.300 NA
ATOM     13  C   LIG    1       -3.107   1.357   0.498  0.00  0.00    +0.160 C 
ATOM     14  N   LIG    1       -0.065   1.835   2.483  0.00  0.00    -0.370 N 
ENDBRANCH   7  14
ENDBRANCH   5   7
ENDBRANCH   1   5
BRANCH   3  15
ATOM     15  C   LIG    1        1.267   5.530  -0.553  0.00  0.00    +0.320 C 
BRANCH  15  16
ATOM     16  N   LIG    1        1.123   6.987  -0.580  0.00  0.00    -0.540 N 
ATOM     17  C   LIG    1       -0.202   7.596  -0.431  0.00  0.00    +0.330 C 
BRANCH  16  18
ATOM     18  C   LIG    1        2.229   7.783  -0.746  0.00  0.00    +0.540 A 
ATOM     19  C   LIG    1        2.100   9.182  -0.779  0.00  0.00    -0.110 A 
ATOM     20  N   LIG    1        1.080  10.049  -0.671  0.00  0.00    -0.500 NA
ATOM     21  C   LIG    1        1.564  11.269  -0.772  0.00  0.00    +0.400 A 
ATOM     22  N   LIG    1        2.881  11.226  -0.938  0.00  0.00    -0.540 NA
ATOM     23  C   LIG    1        3.268   9.960  -0.947  0.00  0.00    +0.220 A 
ATOM     24  N   LIG    1        4.473   9.310  -1.079  0.00  0.00    -0.540 N 
ATOM     25  H   LIG    1        5.290   9.819  -1.200  0.00  0.00    +0.430 HD
ATOM     26  C   LIG    1        4.515   7.968  -1.042  0.00  0.00    +0.650 A 
ATOM     27  N   LIG    1        3.441   7.238  -0.882  0.00  0.00    -0.580 NA
ENDBRANCH  16  18
ENDBRANCH  15  16
ENDBRANCH   3  15
TORSDOF 6
