REMARK  Name = ZINCpe000000XENm.0
REMARK                            x       y       z     vdW  Elec       q    Type
REMARK                         _______ _______ _______ _____ _____    ______ ____
ROOT
ATOM      1  N   LIG    1        1.656   3.763   1.134  0.00  0.00    -0.720 N 
ATOM      2  H   LIG    1        1.625   3.113   0.415  0.00  0.00    +0.410 HD
ATOM      3  C   LIG    1        1.495   5.074   0.865  0.00  0.00    +0.520 C 
ATOM      4  O   LIG    1        1.533   5.887   1.765  0.00  0.00    -0.530 OA
ENDROOT
BRANCH   1   5
ATOM      5  C   LIG    1        1.878   3.320   2.513  0.00  0.00    +0.220 C 
ATOM      6  C   LIG    1        3.372   3.389   2.837  0.00  0.00    +0.040 C 
BRANCH   5   7
ATOM      7  C   LIG    1        1.388   1.880   2.671  0.00  0.00    +0.330 C 
BRANCH   7  14
ATOM      8  C   LIG    1       -0.727   2.407   4.875  0.00  0.00    +0.140 C 
ATOM      9  C   LIG    1       -0.995   2.062   3.433  0.00  0.00    +0.090 A 
ATOM     10  C   LIG    1       -2.213   1.919   2.861  0.00  0.00    -0.120 A 
ATOM     11  C   LIG    1       -2.020   1.601   1.513  0.00  0.00    +0.080 A 
ATOM     12  N   LIG    1       -0.733   1.547   1.286  0.00  0.00    -0.290 NA
ATOM     13  C   LIG    1       -3.107   1.357   0.498  0.00  0.00    +0.160 C 
ATOM     14  N   LIG    1       -0.065   1.835   2.483  0.00  0.00    -0.370 N 
ENDBRANCH   7  14
ENDBRANCH   5   7
ENDBRANCH   1   5
BRANCH   3  15
ATOM     15  C   LIG    1        1.267   5.530  -0.553  0.00  0.00    +0.260 C 
BRANCH  15  16
ATOM     16  N   LIG    1        1.122   6.992  -0.580  0.00  0.00    -0.460 N 
ATOM     17  C   LIG    1       -0.097   7.413   0.122  0.00  0.00    +0.240 C 
BRANCH  16  18
ATOM     18  C   LIG    1        1.135   7.467  -1.882  0.00  0.00    +0.400 A 
ATOM     19  C   LIG    1        1.011   8.833  -2.143  0.00  0.00    -0.080 A 
ATOM     20  N   LIG    1        0.862   9.968  -1.375  0.00  0.00    -0.570 N 
ATOM     21  H   LIG    1        0.813  10.006  -0.407  0.00  0.00    +0.430 HD
ATOM     22  C   LIG    1        0.797  11.019  -2.223  0.00  0.00    +0.530 A 
ATOM     23  N   LIG    1        0.895  10.606  -3.456  0.00  0.00    -0.490 NA
ATOM     24  C   LIG    1        1.030   9.267  -3.479  0.00  0.00    +0.310 A 
ATOM     25  N   LIG    1        1.167   8.355  -4.447  0.00  0.00    -0.500 NA
ATOM     26  C   LIG    1        1.281   7.079  -4.153  0.00  0.00    +0.540 A 
ATOM     27  N   LIG    1        1.271   6.634  -2.909  0.00  0.00    -0.550 NA
ENDBRANCH  16  18
ENDBRANCH  15  16
ENDBRANCH   3  15
TORSDOF 6
