REMARK  Name = ZINCpe000000XENm.1
REMARK                            x       y       z     vdW  Elec       q    Type
REMARK                         _______ _______ _______ _____ _____    ______ ____
ROOT
ATOM      1  N   LIG    1        1.169   1.958   0.108  0.00  0.00    -0.720 N 
ATOM      2  H   LIG    1        1.201   2.928   0.121  0.00  0.00    +0.400 HD
ATOM      3  C   LIG    1       -0.016   1.323   0.204  0.00  0.00    +0.520 C 
ATOM      4  O   LIG    1       -0.057   0.111   0.188  0.00  0.00    -0.520 OA
ENDROOT
BRANCH   1   5
ATOM      5  C   LIG    1        2.407   1.185  -0.015  0.00  0.00    +0.230 C 
ATOM      6  C   LIG    1        2.918   0.816   1.379  0.00  0.00    +0.040 C 
BRANCH   5   7
ATOM      7  C   LIG    1        3.462   2.024  -0.740  0.00  0.00    +0.330 C 
BRANCH   7  14
ATOM      8  C   LIG    1        3.920   0.117  -3.141  0.00  0.00    +0.140 C 
ATOM      9  C   LIG    1        3.220   1.451  -3.170  0.00  0.00    +0.090 A 
ATOM     10  C   LIG    1        2.671   2.041  -4.258  0.00  0.00    -0.130 A 
ATOM     11  C   LIG    1        2.125   3.264  -3.855  0.00  0.00    +0.080 A 
ATOM     12  N   LIG    1        2.333   3.401  -2.571  0.00  0.00    -0.290 NA
ATOM     13  C   LIG    1        1.414   4.250  -4.746  0.00  0.00    +0.160 C 
ATOM     14  N   LIG    1        3.027   2.272  -2.116  0.00  0.00    -0.370 N 
ENDBRANCH   7  14
ENDBRANCH   5   7
ENDBRANCH   1   5
BRANCH   3  15
ATOM     15  C   LIG    1       -1.290   2.118   0.324  0.00  0.00    +0.240 C 
BRANCH  15  16
ATOM     16  N   LIG    1       -2.434   1.200   0.406  0.00  0.00    -0.440 N 
ATOM     17  C   LIG    1       -2.393   0.416   1.648  0.00  0.00    +0.260 C 
BRANCH  16  18
ATOM     18  C   LIG    1       -3.630   1.887   0.293  0.00  0.00    +0.430 A 
ATOM     19  C   LIG    1       -4.858   1.205   0.339  0.00  0.00    -0.060 A 
ATOM     20  N   LIG    1       -5.223  -0.090   0.492  0.00  0.00    -0.460 NA
ATOM     21  C   LIG    1       -6.522  -0.180   0.470  0.00  0.00    +0.500 A 
ATOM     22  N   LIG    1       -7.071   1.057   0.308  0.00  0.00    -0.580 N 
ATOM     23  H   LIG    1       -8.018   1.263   0.259  0.00  0.00    +0.430 HD
ATOM     24  C   LIG    1       -6.040   1.958   0.225  0.00  0.00    +0.290 A 
ATOM     25  N   LIG    1       -5.954   3.275   0.068  0.00  0.00    -0.540 NA
ATOM     26  C   LIG    1       -4.781   3.870   0.025  0.00  0.00    +0.560 A 
ATOM     27  N   LIG    1       -3.644   3.207   0.134  0.00  0.00    -0.570 NA
ENDBRANCH  16  18
ENDBRANCH  15  16
ENDBRANCH   3  15
TORSDOF 6
