REMARK  Name = ZINCnE000001SBc7.0
REMARK                            x       y       z     vdW  Elec       q    Type
REMARK                         _______ _______ _______ _____ _____    ______ ____
ROOT
ATOM      1  O   LIG    1       -2.271   1.059   0.036  0.00  0.00    -0.600 OA
ATOM      2  C   LIG    1       -2.296  -0.160   0.007  0.00  0.00    +0.680 C 
ATOM      3  N   LIG    1       -3.477  -0.810   0.011  0.00  0.00    -0.630 N 
ATOM      4  C   LIG    1       -3.966  -2.218  -0.015  0.00  0.00    +0.270 C 
ATOM      5  C   LIG    1       -5.041  -1.692  -0.926  0.00  0.00    -0.030 C 
ATOM      6  C   LIG    1       -6.497  -2.119  -0.859  0.00  0.00    +0.030 C 
ATOM      7  C   LIG    1       -7.316  -0.910  -1.394  0.00  0.00    +0.000 C 
ATOM      8  C   LIG    1       -7.036   0.389  -0.648  0.00  0.00    +0.010 C 
ATOM      9  C   LIG    1       -5.529   0.717  -0.596  0.00  0.00    +0.040 C 
ATOM     10  C   LIG    1       -4.870  -0.484   0.051  0.00  0.00    +0.200 C 
ENDROOT
BRANCH   2  11
ATOM     11  N   LIG    1       -1.155  -0.850  -0.030  0.00  0.00    -0.710 NA
ATOM     12  C   LIG    1        0.017  -0.204  -0.035  0.00  0.00    +0.350 A 
ATOM     13  C   LIG    1        1.228  -0.924  -0.075  0.00  0.00    -0.060 A 
ATOM     14  C   LIG    1        2.395  -0.211  -0.078  0.00  0.00    +0.020 A 
ATOM     15  C   LIG    1        2.323   1.190  -0.042  0.00  0.00    +0.040 A 
ATOM     16  N   LIG    1        1.168   1.795  -0.006  0.00  0.00    -0.230 NA
ATOM     17  N   LIG    1        0.055   1.156  -0.002  0.00  0.00    -0.320 NA
ENDBRANCH   2  11
BRANCH  10  18
ATOM     18  C   LIG    1       -5.481  -0.779   1.396  0.00  0.00    -0.070 A 
ATOM     19  C   LIG    1       -6.827  -1.078   1.493  0.00  0.00    +0.030 A 
ATOM     20  C   LIG    1       -7.387  -1.354   2.726  0.00  0.00    -0.010 A 
ATOM     21  C   LIG    1       -6.603  -1.320   3.864  0.00  0.00    -0.020 A 
ATOM     22  C   LIG    1       -5.258  -1.015   3.768  0.00  0.00    +0.000 A 
ATOM     23  C   LIG    1       -4.697  -0.745   2.534  0.00  0.00    +0.020 A 
ENDBRANCH  10  18
TORSDOF 2
