REMARK  Name = ZINCrD000000AQCr.0
REMARK                            x       y       z     vdW  Elec       q    Type
REMARK                         _______ _______ _______ _____ _____    ______ ____
ROOT
ATOM      1  O   LIG    1       -2.707   2.153   5.628  0.00  0.00    -0.520 OA
ATOM      2  C   LIG    1       -1.723   1.544   5.999  0.00  0.00    +0.560 C 
ATOM      3  N   LIG    1       -1.375   1.555   7.301  0.00  0.00    -0.720 N 
ATOM      4  H   LIG    1       -0.590   1.069   7.598  0.00  0.00    +0.400 HD
ENDROOT
BRANCH   2   5
ATOM      5  C   LIG    1       -0.907   0.790   5.023  0.00  0.00    -0.100 A 
ATOM      6  C   LIG    1        0.223   0.090   5.448  0.00  0.00    +0.020 A 
ATOM      7  C   LIG    1        0.982  -0.613   4.534  0.00  0.00    +0.050 A 
ATOM      8  C   LIG    1        0.625  -0.631   3.199  0.00  0.00    +0.000 A 
ATOM      9  C   LIG    1       -0.495   0.068   2.766  0.00  0.00    +0.180 A 
ATOM     10  C   LIG    1       -1.265   0.777   3.675  0.00  0.00    +0.070 A 
BRANCH   9  11
ATOM     11  N   LIG    1       -0.850   0.051   1.412  0.00  0.00    -0.570 N 
ATOM     12  C   LIG    1       -0.125  -0.657   0.346  0.00  0.00    +0.260 C 
ATOM     13  C   LIG    1       -0.934  -0.342  -0.926  0.00  0.00    +0.260 C 
ATOM     14  O   LIG    1       -2.023   0.502  -0.451  0.00  0.00    -0.320 OA
ATOM     15  C   LIG    1       -1.908   0.677   0.870  0.00  0.00    +0.640 C 
ATOM     16  O   LIG    1       -2.689   1.342   1.521  0.00  0.00    -0.490 OA
ENDBRANCH   9  11
ENDBRANCH   2   5
BRANCH   3  17
ATOM     17  C   LIG    1       -2.184   2.302   8.269  0.00  0.00    +0.320 C 
BRANCH  17  18
ATOM     18  C   LIG    1       -1.576   2.152   9.665  0.00  0.00    -0.110 C 
ATOM     19  C   LIG    1       -2.365   1.341  10.695  0.00  0.00    +0.050 C 
ATOM     20  C   LIG    1       -2.280   2.863  10.822  0.00  0.00    +0.060 C 
BRANCH  18  21
ATOM     21  C   LIG    1       -0.072   2.065   9.713  0.00  0.00    -0.100 A 
ATOM     22  C   LIG    1        0.538   0.901  10.140  0.00  0.00    +0.090 A 
ATOM     23  C   LIG    1        1.918   0.819  10.184  0.00  0.00    -0.010 A 
ATOM     24  C   LIG    1        2.688   1.904   9.802  0.00  0.00    +0.130 A 
ATOM     25  C   LIG    1        2.078   3.070   9.374  0.00  0.00    -0.040 A 
ATOM     26  F   LIG    1        4.036   1.824   9.845  0.00  0.00    -0.130 F 
ATOM     27  C   LIG    1        0.697   3.149   9.325  0.00  0.00    +0.150 A 
ATOM     28  F   LIG    1        0.099   4.285   8.903  0.00  0.00    -0.120 F 
ENDBRANCH  18  21
ENDBRANCH  17  18
ENDBRANCH   3  17
TORSDOF 5
