REMARK  Name = ZINCpk00000Fnhz1.0
REMARK                            x       y       z     vdW  Elec       q    Type
REMARK                         _______ _______ _______ _____ _____    ______ ____
ROOT
ATOM      1  N   LIG    1        4.197   4.075   2.264  0.00  0.00    -0.730 N 
ATOM      2  H   LIG    1        3.692   4.831   1.926  0.00  0.00    +0.400 HD
ATOM      3  C   LIG    1        5.539   4.152   2.364  0.00  0.00    +0.550 C 
ATOM      4  O   LIG    1        6.173   3.205   2.787  0.00  0.00    -0.500 OA
ENDROOT
BRANCH   3   5
ATOM      5  C   LIG    1        6.240   5.386   1.959  0.00  0.00    -0.170 A 
ATOM      6  C   LIG    1        5.516   6.477   1.472  0.00  0.00    +0.080 A 
ATOM      7  C   LIG    1        6.176   7.627   1.095  0.00  0.00    -0.030 A 
ATOM      8  C   LIG    1        7.555   7.706   1.197  0.00  0.00    +0.080 A 
ATOM      9  C   LIG    1        8.283   6.635   1.677  0.00  0.00    -0.080 A 
ATOM     10  C   LIG    1        7.635   5.473   2.066  0.00  0.00    +0.180 A 
BRANCH  10  11
ATOM     11  O   LIG    1        8.348   4.422   2.543  0.00  0.00    -0.250 OA
BRANCH  11  12
ATOM     12  C   LIG    1        9.765   4.583   2.624  0.00  0.00    +0.230 C 
BRANCH  12  13
ATOM     13  C   LIG    1       10.383   3.323   3.173  0.00  0.00    +0.520 C 
ATOM     14  O   LIG    1        9.679   2.380   3.465  0.00  0.00    -0.500 OA
ATOM     15  N   LIG    1       11.719   3.244   3.338  0.00  0.00    -0.850 N 
ATOM     16  H   LIG    1       12.117   2.433   3.691  0.00  0.00    +0.410 HD
ATOM     17  H   LIG    1       12.282   3.998   3.103  0.00  0.00    +0.400 HD
ENDBRANCH  12  13
ENDBRANCH  11  12
ENDBRANCH  10  11
ENDBRANCH   3   5
BRANCH   1  18
ATOM     18  C   LIG    1        3.502   2.850   2.666  0.00  0.00    +0.270 C 
BRANCH  18  19
ATOM     19  C   LIG    1        1.997   3.025   2.454  0.00  0.00    -0.040 C 
ATOM     20  C   LIG    1        1.473   4.114   3.392  0.00  0.00    +0.030 C 
BRANCH  19  21
ATOM     21  C   LIG    1        1.283   1.706   2.755  0.00  0.00    +0.340 C 
BRANCH  21  28
ATOM     22  C   LIG    1       -0.013   1.086   0.008  0.00  0.00    +0.140 C 
ATOM     23  C   LIG    1       -0.718   1.572   1.248  0.00  0.00    +0.080 A 
ATOM     24  C   LIG    1       -2.042   1.825   1.365  0.00  0.00    -0.120 A 
ATOM     25  C   LIG    1       -2.284   2.253   2.675  0.00  0.00    +0.070 A 
ATOM     26  N   LIG    1       -1.145   2.264   3.318  0.00  0.00    -0.290 NA
ATOM     27  C   LIG    1       -3.625   2.639   3.244  0.00  0.00    +0.160 C 
ATOM     28  N   LIG    1       -0.141   1.838   2.438  0.00  0.00    -0.370 N 
ENDBRANCH  21  28
ENDBRANCH  19  21
ENDBRANCH  18  19
ENDBRANCH   1  18
TORSDOF 8
