REMARK  Name = ZINCpk000005TlNN.0
REMARK                            x       y       z     vdW  Elec       q    Type
REMARK                         _______ _______ _______ _____ _____    ______ ____
ROOT
ATOM      1  C   LIG    1       -3.639   2.490   0.034  0.00  0.00    +0.250 C 
ATOM      2  C   LIG    1       -4.367   2.503   1.387  0.00  0.00    +0.040 C 
ATOM      3  C   LIG    1       -5.686   2.422   0.609  0.00  0.00    +0.020 C 
ATOM      4  C   LIG    1       -6.138   3.796  -0.017  0.00  0.00    +0.220 C 
ATOM      5  N   LIG    1       -6.435   3.449  -1.431  0.00  0.00    -0.420 N 
ATOM      6  C   LIG    1       -5.387   2.490  -1.840  0.00  0.00    +0.240 C 
ATOM      7  C   LIG    1       -4.879   1.799  -0.560  0.00  0.00    -0.010 C 
ENDROOT
BRANCH   5   8
ATOM      8  C   LIG    1       -6.415   4.576  -2.232  0.00  0.00    +0.330 A 
ATOM      9  N   LIG    1       -5.594   4.809  -3.226  0.00  0.00    -0.310 NA
ATOM     10  N   LIG    1       -5.868   5.953  -3.747  0.00  0.00    -0.270 NA
ATOM     11  C   LIG    1       -6.861   6.496  -3.105  0.00  0.00    +0.190 A 
ATOM     12  O   LIG    1       -7.233   5.641  -2.132  0.00  0.00    -0.220 OA
BRANCH  11  13
ATOM     13  C   LIG    1       -7.483   7.837  -3.397  0.00  0.00    +0.050 C 
ATOM     14  C   LIG    1       -7.044   8.556  -4.674  0.00  0.00    +0.080 C 
ATOM     15  C   LIG    1       -6.580   9.069  -3.309  0.00  0.00    +0.060 C 
ENDBRANCH  11  13
ENDBRANCH   5   8
BRANCH   1  17
ATOM     16  C   LIG    1       -1.218   2.217   0.020  0.00  0.00    +0.590 C 
ATOM     17  N   LIG    1       -2.440   1.649   0.024  0.00  0.00    -0.720 N 
ATOM     18  H   LIG    1       -2.526   0.682   0.019  0.00  0.00    +0.400 HD
ATOM     19  O   LIG    1       -1.110   3.429   0.026  0.00  0.00    -0.520 OA
BRANCH  16  24
ATOM     20  C   LIG    1        2.105   0.678  -0.014  0.00  0.00    -0.130 A 
ATOM     21  C   LIG    1        1.277  -0.429  -0.012  0.00  0.00    +0.290 A 
ATOM     22  N   LIG    1        0.002  -0.004   0.002  0.00  0.00    -0.520 N 
ATOM     23  H   LIG    1       -0.781  -0.577   0.006  0.00  0.00    +0.430 HD
ATOM     24  C   LIG    1       -0.017   1.373   0.010  0.00  0.00    -0.050 A 
ATOM     25  C   LIG    1        1.272   1.819  -0.000  0.00  0.00    +0.110 A 
BRANCH  20  27
ATOM     26  N   LIG    1        4.673   0.663  -0.038  0.00  0.00    -0.430 NA
ATOM     27  C   LIG    1        3.537   0.669  -0.028  0.00  0.00    +0.280 C 
ENDBRANCH  20  27
ENDBRANCH  16  24
ENDBRANCH   1  17
TORSDOF 5
