REMARK  Name = ZINCvU0000000E98.0
REMARK                            x       y       z     vdW  Elec       q    Type
REMARK                         _______ _______ _______ _____ _____    ______ ____
ROOT
ATOM      1  C   LIG    1        3.702  -0.692  -0.033  0.00  0.00    +0.250 C 
ENDROOT
BRANCH   1   2
ATOM      2  C   LIG    1        2.388   0.045  -0.006  0.00  0.00    -0.120 A 
ATOM      3  C   LIG    1        1.200  -0.661   0.003  0.00  0.00    +0.030 A 
ATOM      4  C   LIG    1       -0.006   0.015   0.028  0.00  0.00    +0.010 A 
ATOM      5  C   LIG    1       -0.023   1.397   0.045  0.00  0.00    +0.030 A 
ATOM      6  C   LIG    1        1.165   2.103   0.037  0.00  0.00    +0.010 A 
ATOM      7  C   LIG    1        2.371   1.427   0.011  0.00  0.00    +0.040 A 
ENDBRANCH   1   2
BRANCH   1   8
ATOM      8  C   LIG    1        4.221  -0.846   1.374  0.00  0.00    +0.530 C 
ATOM      9  N   LIG    1        3.543  -1.597   2.264  0.00  0.00    -0.660 N 
ATOM     10  H   LIG    1        2.688  -1.985   2.019  0.00  0.00    +0.420 HD
ATOM     11  O   LIG    1        5.249  -0.294   1.704  0.00  0.00    -0.480 OA
BRANCH   9  12
ATOM     12  C   LIG    1        4.071  -1.816   3.541  0.00  0.00    +0.160 A 
ATOM     13  C   LIG    1        4.804  -0.820   4.171  0.00  0.00    +0.100 A 
ATOM     14  C   LIG    1        5.320  -1.038   5.435  0.00  0.00    -0.160 A 
ATOM     15  C   LIG    1        5.117  -2.251   6.067  0.00  0.00    +0.080 A 
ATOM     16  C   LIG    1        4.392  -3.248   5.440  0.00  0.00    +0.060 A 
ATOM     17  C   LIG    1        3.869  -3.035   4.179  0.00  0.00    -0.030 A 
ATOM     18 CL   LIG    1        2.960  -4.287   3.392  0.00  0.00    -0.040 Cl
BRANCH  14  19
ATOM     19  C   LIG    1        6.110   0.046   6.122  0.00  0.00    +0.510 C 
ATOM     20  F   LIG    1        5.306   1.180   6.280  0.00  0.00    -0.170 F 
ATOM     21  F   LIG    1        7.228   0.371   5.346  0.00  0.00    -0.170 F 
ATOM     22  F   LIG    1        6.529  -0.407   7.377  0.00  0.00    -0.170 F 
ENDBRANCH  14  19
ENDBRANCH   9  12
ENDBRANCH   1   8
BRANCH   1  23
ATOM     23  O   LIG    1        4.662   0.058  -0.823  0.00  0.00    -0.320 OA
BRANCH  23  25
ATOM     24  O   LIG    1        3.980  -1.057  -2.618  0.00  0.00    -0.480 OA
ATOM     25  C   LIG    1        4.715  -0.215  -2.142  0.00  0.00    +0.510 C 
BRANCH  25  26
ATOM     26  C   LIG    1        5.665   0.508  -3.006  0.00  0.00    -0.160 A 
ATOM     27  C   LIG    1        6.513   1.477  -2.463  0.00  0.00    +0.100 A 
ATOM     28  C   LIG    1        7.399   2.149  -3.277  0.00  0.00    +0.000 A 
ATOM     29  C   LIG    1        7.454   1.868  -4.632  0.00  0.00    +0.080 A 
ATOM     30  C   LIG    1        6.622   0.913  -5.183  0.00  0.00    -0.020 A 
ATOM     31  C   LIG    1        5.729   0.223  -4.378  0.00  0.00    +0.180 A 
BRANCH  31  32
ATOM     32  O   LIG    1        4.915  -0.720  -4.916  0.00  0.00    -0.480 OA
ATOM     33  H   LIG    1        4.067  -0.376  -5.229  0.00  0.00    +0.400 HD
ENDBRANCH  31  32
ENDBRANCH  25  26
ENDBRANCH  23  25
ENDBRANCH   1  23
TORSDOF 8
