REMARK  Name = ZINCpk00000ebtKc.2
REMARK                            x       y       z     vdW  Elec       q    Type
REMARK                         _______ _______ _______ _____ _____    ______ ____
ROOT
ATOM      1  N   LIG    1        6.596   1.385   3.585  0.00  0.00    -0.520 NA
ATOM      2  C   LIG    1        5.392   1.775   4.353  0.00  0.00    +0.170 C 
ATOM      3  C   LIG    1        4.097   1.223   3.736  0.00  0.00    +0.020 C 
ATOM      4  C   LIG    1        4.095   1.331   2.231  0.00  0.00    +0.190 C 
ATOM      5  N   LIG    1        4.622   0.069   1.669  0.00  0.00    -0.550 NA
ATOM      6  C   LIG    1        6.019  -0.026   1.692  0.00  0.00    +0.180 C 
ATOM      7  C   LIG    1        6.580   0.014   3.128  0.00  0.00    +0.200 C 
ENDROOT
BRANCH   1   8
ATOM      8  C   LIG    1        7.821   1.673   4.343  0.00  0.00    +0.250 C 
BRANCH   8  10
ATOM      9  O   LIG    1        6.982   0.005   5.787  0.00  0.00    -0.530 OA
ATOM     10  C   LIG    1        7.842   0.840   5.598  0.00  0.00    +0.490 C 
ATOM     11  N   LIG    1        8.816   1.022   6.512  0.00  0.00    -0.620 N 
ATOM     12  C   LIG    1        9.918   1.989   6.408  0.00  0.00    +0.240 C 
ATOM     13  C   LIG    1       10.794   1.823   7.667  0.00  0.00    +0.030 C 
ATOM     14  C   LIG    1       10.461   0.381   8.132  0.00  0.00    +0.040 C 
ATOM     15  C   LIG    1        8.957   0.279   7.777  0.00  0.00    +0.250 C 
ENDBRANCH   8  10
ENDBRANCH   1   8
BRANCH   5  16
ATOM     16  C   LIG    1        4.101  -0.163   0.316  0.00  0.00    +0.280 C 
BRANCH  16  17
ATOM     17  C   LIG    1        4.139  -1.638   0.009  0.00  0.00    -0.240 A 
ATOM     18  C   LIG    1        3.253  -2.599   0.481  0.00  0.00    +0.120 A 
ATOM     19  C   LIG    1        2.126  -2.533   1.323  0.00  0.00    +0.050 A 
ATOM     20  C   LIG    1        1.445  -3.675   1.611  0.00  0.00    +0.050 A 
ATOM     21  C   LIG    1        1.874  -4.896   1.064  0.00  0.00    -0.010 A 
ATOM     22  C   LIG    1        2.956  -4.941   0.258  0.00  0.00    +0.280 A 
ATOM     23  N   LIG    1        3.650  -3.803  -0.039  0.00  0.00    -0.280 N 
ATOM     24  N   LIG    1        4.783  -3.567  -0.829  0.00  0.00    -0.320 NA
ATOM     25  C   LIG    1        5.065  -2.283  -0.795  0.00  0.00    +0.270 A 
ENDBRANCH  16  17
ENDBRANCH   5  16
TORSDOF 4
