REMARK  Name = ZINCrH000004jyq8.0
REMARK                            x       y       z     vdW  Elec       q    Type
REMARK                         _______ _______ _______ _____ _____    ______ ____
ROOT
ATOM      1  C   LIG    1        4.037  -1.849  -1.887  0.00  0.00    +0.300 C 
ATOM      2  N   LIG    1        2.608  -2.140  -2.026  0.00  0.00    -0.570 N 
ATOM      3  C   LIG    1        1.940  -1.727  -3.121  0.00  0.00    +0.530 C 
ATOM      4  O   LIG    1        0.757  -1.968  -3.237  0.00  0.00    -0.510 OA
ENDROOT
BRANCH   2   5
ATOM      5  C   LIG    1        1.938  -2.847  -1.024  0.00  0.00    +0.150 A 
ATOM      6  C   LIG    1        1.748  -4.216  -1.145  0.00  0.00    +0.030 A 
ATOM      7  C   LIG    1        1.081  -4.912  -0.156  0.00  0.00    +0.020 A 
ATOM      8  C   LIG    1        0.603  -4.251   0.962  0.00  0.00    +0.020 A 
ATOM      9  C   LIG    1        0.788  -2.890   1.098  0.00  0.00    +0.030 A 
ATOM     10  C   LIG    1        1.459  -2.178   0.108  0.00  0.00    -0.040 A 
BRANCH  10  11
ATOM     11  C   LIG    1        1.661  -0.715   0.249  0.00  0.00    -0.050 A 
ATOM     12  C   LIG    1        2.304  -0.203   1.375  0.00  0.00    +0.010 A 
ATOM     13  C   LIG    1        2.489   1.159   1.501  0.00  0.00    +0.000 A 
ATOM     14  C   LIG    1        2.038   2.015   0.513  0.00  0.00    +0.000 A 
ATOM     15  C   LIG    1        1.399   1.513  -0.607  0.00  0.00    +0.000 A 
ATOM     16  C   LIG    1        1.208   0.153  -0.743  0.00  0.00    +0.020 A 
ENDBRANCH  10  11
ENDBRANCH   2   5
BRANCH   3  17
ATOM     17  C   LIG    1        2.663  -0.965  -4.202  0.00  0.00    +0.010 C 
ATOM     18  C   LIG    1        3.794  -1.819  -4.820  0.00  0.00    +0.090 C 
ATOM     19  C   LIG    1        3.772  -1.458  -6.289  0.00  0.00    +0.520 C 
ATOM     20  N   LIG    1        2.616  -0.844  -6.596  0.00  0.00    -0.620 N 
ATOM     21  O   LIG    1        4.666  -1.688  -7.074  0.00  0.00    -0.500 OA
ATOM     22  C   LIG    1        1.744  -0.729  -5.421  0.00  0.00    +0.310 C 
BRANCH  20  23
ATOM     23  C   LIG    1        2.271  -0.354  -7.933  0.00  0.00    +0.350 C 
BRANCH  23  24
ATOM     24  C   LIG    1        1.557  -1.459  -8.713  0.00  0.00    +0.430 C 
ATOM     25  F   LIG    1        2.401  -2.569  -8.828  0.00  0.00    -0.180 F 
ATOM     26  F   LIG    1        1.227  -0.991  -9.990  0.00  0.00    -0.180 F 
ATOM     27  F   LIG    1        0.390  -1.829  -8.037  0.00  0.00    -0.180 F 
ENDBRANCH  23  24
ENDBRANCH  20  23
ENDBRANCH   3  17
TORSDOF 5
