REMARK  Name = ZINCpe000000YbcG.0
REMARK                            x       y       z     vdW  Elec       q    Type
REMARK                         _______ _______ _______ _____ _____    ______ ____
ROOT
ATOM      1  N   LIG    1        4.595   9.405   1.814  0.00  0.00    -0.540 NA
ATOM      2  C   LIG    1        5.613   8.549   1.191  0.00  0.00    +0.190 C 
ATOM      3  C   LIG    1        5.024   7.889  -0.060  0.00  0.00    +0.300 C 
ATOM      4  N   LIG    1        3.778   7.202   0.316  0.00  0.00    -0.610 N 
ATOM      5  C   LIG    1        2.763   7.962   1.061  0.00  0.00    +0.280 C 
ATOM      6  C   LIG    1        3.572   5.913  -0.018  0.00  0.00    +0.530 C 
ATOM      7  O   LIG    1        4.418   5.303  -0.636  0.00  0.00    -0.500 OA
ATOM      8  C   LIG    1        3.443   8.617   2.273  0.00  0.00    +0.180 C 
ENDROOT
BRANCH   6   9
ATOM      9  C   LIG    1        2.288   5.229   0.378  0.00  0.00    +0.150 C 
ATOM     10  C   LIG    1        1.106   5.888  -0.345  0.00  0.00    +0.250 C 
ATOM     11  O   LIG    1       -0.092   5.206   0.041  0.00  0.00    -0.300 OA
ATOM     12  C   LIG    1       -0.054   3.846   0.026  0.00  0.00    +0.040 A 
ATOM     13  C   LIG    1       -1.242   3.131   0.032  0.00  0.00    +0.030 A 
ATOM     14  C   LIG    1       -1.219   1.749   0.017  0.00  0.00    +0.020 A 
ATOM     15  C   LIG    1       -0.013   1.076   0.008  0.00  0.00    +0.030 A 
ATOM     16  C   LIG    1        1.176   1.782   0.000  0.00  0.00    +0.030 A 
ATOM     17  C   LIG    1        1.160   3.168   0.008  0.00  0.00    +0.050 A 
ATOM     18  O   LIG    1        2.338   3.850  -0.007  0.00  0.00    -0.280 OA
ENDBRANCH   6   9
BRANCH   1  19
ATOM     19  C   LIG    1        5.169  10.188   2.917  0.00  0.00    +0.360 C 
BRANCH  19  24
ATOM     20  C   LIG    1        1.464  12.594   5.274  0.00  0.00    +0.200 C 
ATOM     21  C   LIG    1        2.610  12.253   4.357  0.00  0.00    +0.170 A 
ATOM     22  N   LIG    1        3.152  13.042   3.478  0.00  0.00    -0.380 NA
ATOM     23  O   LIG    1        4.056  12.472   2.904  0.00  0.00    +0.090 OA
ATOM     24  C   LIG    1        4.173  11.225   3.369  0.00  0.00    +0.190 A 
ATOM     25  N   LIG    1        3.259  11.077   4.297  0.00  0.00    -0.480 NA
ENDBRANCH  19  24
ENDBRANCH   1  19
TORSDOF 3
