REMARK  Name = ZINCnE000004Rf4f.0
REMARK                            x       y       z     vdW  Elec       q    Type
REMARK                         _______ _______ _______ _____ _____    ______ ____
ROOT
ATOM      1  O   LIG    1       -0.431   4.137  -0.212  0.00  0.00    -0.530 OA
ATOM      2  C   LIG    1       -0.887   3.533  -1.159  0.00  0.00    +0.510 C 
ATOM      3  N   LIG    1       -1.508   4.203  -2.150  0.00  0.00    -0.730 N 
ATOM      4  H   LIG    1       -1.872   3.720  -2.908  0.00  0.00    +0.390 HD
ENDROOT
BRANCH   3   5
ATOM      5  C   LIG    1       -1.632   5.661  -2.083  0.00  0.00    +0.180 C 
ATOM      6  C   LIG    1       -2.416   6.048  -0.827  0.00  0.00    +0.010 C 
ATOM      7  C   LIG    1       -2.545   7.571  -0.756  0.00  0.00    +0.040 C 
ATOM      8  C   LIG    1       -1.848   8.199  -1.965  0.00  0.00    -0.130 C 
ATOM      9  C   LIG    1       -0.368   7.812  -1.957  0.00  0.00    +0.030 C 
ATOM     10  C   LIG    1       -2.502   7.691  -3.252  0.00  0.00    +0.050 C 
ATOM     11  C   LIG    1       -0.238   6.290  -2.028  0.00  0.00    +0.010 C 
ATOM     12  C   LIG    1       -2.372   6.168  -3.322  0.00  0.00    +0.000 C 
BRANCH   8  13
ATOM     13  C   LIG    1       -1.976   9.699  -1.895  0.00  0.00    +0.500 C 
ATOM     14  O   LIG    1       -2.010  10.356  -2.921  0.00  0.00    -0.700 OA
ATOM     15  O   LIG    1       -2.046  10.255  -0.812  0.00  0.00    -0.700 OA
ENDBRANCH   8  13
ENDBRANCH   3   5
BRANCH   2  16
ATOM     16  C   LIG    1       -0.759   2.033  -1.229  0.00  0.00    +0.040 C 
BRANCH  16  17
ATOM     17  C   LIG    1       -0.019   1.526   0.010  0.00  0.00    +0.020 C 
ATOM     18  C   LIG    1        1.417   2.055  -0.000  0.00  0.00    +0.030 C 
ATOM     19  C   LIG    1        2.394   0.879  -0.016  0.00  0.00    -0.020 C 
ATOM     20  C   LIG    1        2.178   0.019   1.231  0.00  0.00    +0.010 C 
ATOM     21  C   LIG    1        0.742  -0.511   1.242  0.00  0.00    +0.010 C 
ATOM     22  C   LIG    1        2.154   0.032  -1.268  0.00  0.00    +0.010 C 
ATOM     23  C   LIG    1        0.718  -0.497  -1.257  0.00  0.00    +0.000 C 
ATOM     24  C   LIG    1        0.002  -0.004   0.002  0.00  0.00    -0.010 C 
ENDBRANCH  16  17
ENDBRANCH   2  16
TORSDOF 4
