REMARK  Name = ZINCrH000004kWGW.0
REMARK                            x       y       z     vdW  Elec       q    Type
REMARK                         _______ _______ _______ _____ _____    ______ ____
ROOT
ATOM      1  N   LIG    1        0.002  -0.004   0.002  0.00  0.00    -0.730 N 
ATOM      2  H   LIG    1        0.849  -0.478  -0.009  0.00  0.00    +0.400 HD
ATOM      3  C   LIG    1       -0.016   1.344   0.009  0.00  0.00    +0.570 C 
ATOM      4  O   LIG    1       -1.077   1.937   0.018  0.00  0.00    -0.540 OA
ENDROOT
BRANCH   3   5
ATOM      5  C   LIG    1        1.252   2.099   0.001  0.00  0.00    -0.170 A 
ATOM      6  C   LIG    1        2.475   1.414  -0.008  0.00  0.00    +0.060 A 
ATOM      7  C   LIG    1        3.654   2.098  -0.022  0.00  0.00    +0.000 A 
ATOM      8  C   LIG    1        3.659   3.491  -0.014  0.00  0.00    +0.120 A 
ATOM      9  N   LIG    1        4.665   4.428  -0.018  0.00  0.00    -0.580 N 
ATOM     10  H   LIG    1        5.614   4.226  -0.027  0.00  0.00    +0.420 HD
ATOM     11  C   LIG    1        4.133   5.687  -0.008  0.00  0.00    +0.070 A 
ATOM     12  C   LIG    1        2.789   5.610   0.005  0.00  0.00    -0.160 A 
ATOM     13  C   LIG    1        1.861   6.797   0.021  0.00  0.00    +0.090 C 
ATOM     14  C   LIG    1        2.666   8.038   0.426  0.00  0.00    +0.020 C 
ATOM     15  C   LIG    1        3.939   8.115  -0.423  0.00  0.00    +0.020 C 
ATOM     16  C   LIG    1        4.897   6.992  -0.012  0.00  0.00    +0.100 C 
ATOM     17  C   LIG    1        2.435   4.193   0.001  0.00  0.00    -0.110 A 
ATOM     18  C   LIG    1        1.233   3.491   0.009  0.00  0.00    +0.140 A 
ENDBRANCH   3   5
BRANCH   1  19
ATOM     19  C   LIG    1       -1.256  -0.754   0.010  0.00  0.00    +0.320 C 
BRANCH  19  23
ATOM     20  C   LIG    1       -0.419  -4.947  -0.021  0.00  0.00    -0.120 A 
ATOM     21  C   LIG    1       -0.545  -4.266   1.192  0.00  0.00    +0.090 A 
ATOM     22  C   LIG    1       -0.815  -2.913   1.194  0.00  0.00    +0.030 A 
ATOM     23  C   LIG    1       -0.961  -2.232  -0.001  0.00  0.00    -0.070 A 
ATOM     24  C   LIG    1       -0.843  -2.901  -1.206  0.00  0.00    +0.030 A 
ATOM     25  C   LIG    1       -0.567  -4.253  -1.223  0.00  0.00    +0.080 A 
BRANCH  20  26
ATOM     26  C   LIG    1       -0.130  -6.396  -0.031  0.00  0.00    +0.510 C 
ATOM     27  O   LIG    1       -0.002  -6.997   1.016  0.00  0.00    -0.500 OA
BRANCH  26  29
ATOM     28  C   LIG    1        0.275  -8.473  -1.137  0.00  0.00    +0.290 C 
ATOM     29  O   LIG    1       -0.009  -7.050  -1.202  0.00  0.00    -0.350 OA
ENDBRANCH  26  29
ENDBRANCH  20  26
ENDBRANCH  19  23
ENDBRANCH   1  19
TORSDOF 5
