REMARK  Name = ZINCpk00000kHkgx.0
REMARK                            x       y       z     vdW  Elec       q    Type
REMARK                         _______ _______ _______ _____ _____    ______ ____
ROOT
ATOM      1  N   LIG    1       -3.329   3.596   4.531  0.00  0.00    -0.550 N 
ATOM      2  C   LIG    1       -2.232   3.274   5.282  0.00  0.00    +0.620 A 
ATOM      3  N   LIG    1       -1.175   2.756   4.724  0.00  0.00    -0.490 NA
ATOM      4  C   LIG    1       -1.148   2.529   3.386  0.00  0.00    +0.250 A 
ATOM      5  C   LIG    1       -0.196   2.000   2.541  0.00  0.00    -0.040 A 
ATOM      6  C   LIG    1       -0.724   2.012   1.250  0.00  0.00    +0.120 A 
ATOM      7  N   LIG    1       -1.935   2.509   1.292  0.00  0.00    -0.240 NA
ATOM      8  N   LIG    1       -2.238   2.845   2.616  0.00  0.00    -0.390 N 
ATOM      9  C   LIG    1       -3.328   3.381   3.199  0.00  0.00    +0.710 A 
ATOM     10  O   LIG    1       -4.303   3.667   2.531  0.00  0.00    -0.480 OA
ENDROOT
BRANCH   6  11
ATOM     11  C   LIG    1       -0.019   1.526   0.010  0.00  0.00    +0.010 C 
ATOM     12  C   LIG    1       -0.759   2.033  -1.229  0.00  0.00    +0.040 C 
ATOM     13  C   LIG    1        1.417   2.055  -0.000  0.00  0.00    +0.050 C 
ATOM     14  C   LIG    1        0.002  -0.004   0.002  0.00  0.00    +0.050 C 
ENDBRANCH   6  11
BRANCH   1  15
ATOM     15  C   LIG    1       -4.510   4.178   5.175  0.00  0.00    +0.450 C 
BRANCH  15  21
ATOM     16  C   LIG    1       -5.336   8.464   2.971  0.00  0.00    +0.140 C 
ATOM     17  C   LIG    1       -4.782   7.691   4.139  0.00  0.00    +0.210 A 
ATOM     18  C   LIG    1       -4.179   8.351   5.191  0.00  0.00    -0.130 A 
ATOM     19  C   LIG    1       -3.680   7.591   6.252  0.00  0.00    +0.440 A 
ATOM     20  N   LIG    1       -3.809   6.268   6.212  0.00  0.00    -0.570 NA
ATOM     21  C   LIG    1       -4.388   5.680   5.185  0.00  0.00    +0.330 A 
ATOM     22  N   LIG    1       -4.868   6.368   4.170  0.00  0.00    -0.530 NA
BRANCH  19  23
ATOM     23  N   LIG    1       -3.067   8.207   7.331  0.00  0.00    -0.600 N 
ATOM     24  C   LIG    1       -2.451   7.395   8.384  0.00  0.00    +0.290 C 
ATOM     25  C   LIG    1       -3.033   9.669   7.419  0.00  0.00    +0.300 C 
ENDBRANCH  19  23
ENDBRANCH  15  21
ENDBRANCH   1  15
TORSDOF 4
