REMARK  Name = ZINCpk00000KfLTz.0
REMARK                            x       y       z     vdW  Elec       q    Type
REMARK                         _______ _______ _______ _____ _____    ______ ____
ROOT
ATOM      1  C   LIG    1       -1.452   3.219   0.547  0.00  0.00    +0.110 A 
ATOM      2  C   LIG    1       -2.708   3.805   0.546  0.00  0.00    +0.050 A 
ATOM      3  C   LIG    1       -3.791   3.119   0.030  0.00  0.00    +0.000 A 
ATOM      4  C   LIG    1       -3.625   1.849  -0.492  0.00  0.00    +0.050 A 
ATOM      5  C   LIG    1       -2.375   1.258  -0.500  0.00  0.00    +0.020 A 
ATOM      6  C   LIG    1       -1.283   1.940   0.016  0.00  0.00    +0.170 A 
ENDROOT
BRANCH   1  14
ATOM      7  C   LIG    1        0.396   5.090  -1.094  0.00  0.00    +0.160 C 
ATOM      8  C   LIG    1        0.494   4.755   0.372  0.00  0.00    +0.010 A 
ATOM      9  C   LIG    1        1.406   5.219   1.221  0.00  0.00    +0.190 A 
ATOM     10  N   LIG    1        1.150   4.665   2.466  0.00  0.00    -0.640 N 
ATOM     11  H   LIG    1        1.659   4.824   3.276  0.00  0.00    +0.440 HD
ATOM     12  C   LIG    1        0.069   3.868   2.355  0.00  0.00    +0.650 A 
ATOM     13  O   LIG    1       -0.437   3.221   3.253  0.00  0.00    -0.560 OA
ATOM     14  N   LIG    1       -0.353   3.911   1.076  0.00  0.00    -0.490 N 
ENDBRANCH   1  14
BRANCH   6  15
ATOM     15  N   LIG    1       -0.016   1.344   0.009  0.00  0.00    -0.660 N 
ATOM     16  H   LIG    1        0.780   1.897   0.015  0.00  0.00    +0.410 HD
ATOM     17  C   LIG    1        0.096   0.001  -0.010  0.00  0.00    +0.530 C 
ATOM     18  O   LIG    1       -0.895  -0.693   0.081  0.00  0.00    -0.500 OA
BRANCH  17  19
ATOM     19  C   LIG    1        1.454  -0.640  -0.146  0.00  0.00    +0.000 C 
ATOM     20  C   LIG    1        2.057  -0.368  -1.544  0.00  0.00    +0.080 C 
ATOM     21  C   LIG    1        2.776  -1.652  -1.893  0.00  0.00    +0.520 C 
ATOM     22  N   LIG    1        2.361  -2.648  -1.092  0.00  0.00    -0.590 N 
ATOM     23  O   LIG    1        3.608  -1.767  -2.769  0.00  0.00    -0.520 OA
ATOM     24  C   LIG    1        1.341  -2.180  -0.145  0.00  0.00    +0.310 C 
BRANCH  22  25
ATOM     25  C   LIG    1        2.861  -4.024  -1.155  0.00  0.00    +0.210 C 
ATOM     26  C   LIG    1        4.064  -4.297  -2.060  0.00  0.00    +0.040 C 
ATOM     27  C   LIG    1        2.672  -4.784  -2.469  0.00  0.00    +0.000 C 
ENDBRANCH  22  25
ENDBRANCH  17  19
ENDBRANCH   6  15
TORSDOF 4
