REMARK  Name = ZINCkj000005eShK.0
REMARK                            x       y       z     vdW  Elec       q    Type
REMARK                         _______ _______ _______ _____ _____    ______ ____
ROOT
ATOM      1  S   LIG    1       -1.456   1.774   0.019  0.00  0.00    +2.780 S 
ATOM      2  O   LIG    1       -1.361   2.752   1.045  0.00  0.00    -0.970 OA
ATOM      3  O   LIG    1       -2.472   0.781  -0.017  0.00  0.00    -0.960 OA
ENDROOT
BRANCH   1   7
ATOM      4  C   LIG    1       -0.779   3.537  -3.962  0.00  0.00    +0.000 C 
ATOM      5  C   LIG    1       -1.191   2.077  -3.763  0.00  0.00    +0.020 C 
ATOM      6  C   LIG    1       -2.175   1.983  -2.593  0.00  0.00    +0.290 C 
ATOM      7  N   LIG    1       -1.565   2.605  -1.410  0.00  0.00    -1.000 NA
ATOM      8  C   LIG    1       -1.057   3.979  -1.517  0.00  0.00    +0.280 C 
ATOM      9  C   LIG    1       -0.080   4.049  -2.701  0.00  0.00    +0.010 C 
BRANCH   4  11
ATOM     10  C   LIG    1       -0.522   3.130  -6.414  0.00  0.00    +0.030 C 
ATOM     11  C   LIG    1        0.177   3.639  -5.152  0.00  0.00    -0.060 C 
ATOM     12  C   LIG    1        1.421   2.791  -4.880  0.00  0.00    +0.030 C 
ATOM     13  C   LIG    1        0.589   5.099  -5.351  0.00  0.00    +0.030 C 
ENDBRANCH   4  11
ENDBRANCH   1   7
BRANCH   1  14
ATOM     14  N   LIG    1       -0.011   0.966   0.007  0.00  0.00    -1.130 NA
ATOM     15  H   LIG    1        0.002  -0.004   0.002  0.00  0.00    +0.420 HD
BRANCH  14  16
ATOM     16  C   LIG    1        1.248   1.716  -0.001  0.00  0.00    +0.280 C 
BRANCH  16  17
ATOM     17  C   LIG    1        2.402   0.777   0.357  0.00  0.00    +0.270 C 
BRANCH  17  18
ATOM     18  N   LIG    1        3.664   1.529   0.349  0.00  0.00    -0.480 N 
ATOM     19  H   LIG    1        3.615   2.276   1.026  0.00  0.00    +0.430 HD
ATOM     20  H   LIG    1        3.818   1.918  -0.570  0.00  0.00    +0.430 HD
BRANCH  18  21
ATOM     21  C   LIG    1        4.773   0.628   0.692  0.00  0.00    +0.100 C 
ATOM     22  C   LIG    1        5.543   0.916   1.982  0.00  0.00    +0.100 C 
ATOM     23  C   LIG    1        6.192   1.197   0.625  0.00  0.00    +0.110 C 
ENDBRANCH  18  21
ENDBRANCH  17  18
ENDBRANCH  16  17
ENDBRANCH  14  16
ENDBRANCH   1  14
TORSDOF 7
