REMARK  Name = ZINCrH000004q8Sj.0
REMARK                            x       y       z     vdW  Elec       q    Type
REMARK                         _______ _______ _______ _____ _____    ______ ____
ROOT
ATOM      1  C   LIG    1       -1.397   3.828  -0.198  0.00  0.00    +0.190 C 
ATOM      2  C   LIG    1        0.031   4.293  -0.076  0.00  0.00    +0.140 A 
ATOM      3  C   LIG    1        0.465   5.587  -0.020  0.00  0.00    -0.110 A 
ATOM      4  N   LIG    1        1.806   5.582   0.081  0.00  0.00    -0.200 NA
ATOM      5  N   LIG    1        2.233   4.368   0.097  0.00  0.00    -0.050 NA
ATOM      6  N   LIG    1        1.129   3.509   0.002  0.00  0.00    -0.310 N 
ENDROOT
BRANCH   6   7
ATOM      7  C   LIG    1        1.159   2.110  -0.015  0.00  0.00    +0.120 A 
ATOM      8  C   LIG    1        0.320   1.385   0.803  0.00  0.00    +0.070 A 
ATOM      9  C   LIG    1        0.342  -0.007   0.793  0.00  0.00    +0.040 A 
ATOM     10  C   LIG    1        1.190  -0.693  -0.022  0.00  0.00    +0.090 A 
ATOM     11  C   LIG    1        2.061   0.008  -0.871  0.00  0.00    -0.110 A 
ATOM     12  C   LIG    1        2.953  -0.652  -1.731  0.00  0.00    +0.320 A 
ATOM     13  N   LIG    1        3.749   0.045  -2.508  0.00  0.00    -0.480 NA
ATOM     14  C   LIG    1        3.756   1.371  -2.525  0.00  0.00    +0.250 A 
ATOM     15  C   LIG    1        2.928   2.103  -1.728  0.00  0.00    -0.010 A 
ATOM     16  C   LIG    1        2.046   1.427  -0.868  0.00  0.00    -0.010 A 
ENDBRANCH   6   7
BRANCH   3  17
ATOM     17  C   LIG    1       -0.392   6.787  -0.068  0.00  0.00    +0.610 C 
ATOM     18  N   LIG    1        0.163   8.014  -0.010  0.00  0.00    -0.710 N 
ATOM     19  H   LIG    1        1.125   8.108   0.064  0.00  0.00    +0.410 HD
ATOM     20  O   LIG    1       -1.599   6.668  -0.160  0.00  0.00    -0.530 OA
BRANCH  18  21
ATOM     21  C   LIG    1       -0.689   9.205  -0.058  0.00  0.00    +0.330 C 
BRANCH  21  22
ATOM     22  C   LIG    1        0.171  10.440   0.023  0.00  0.00    -0.100 A 
ATOM     23  C   LIG    1        0.471  10.994   1.254  0.00  0.00    +0.040 A 
ATOM     24  C   LIG    1        1.264  12.123   1.329  0.00  0.00    +0.030 A 
ATOM     25  C   LIG    1        1.749  12.707   0.174  0.00  0.00    +0.040 A 
ATOM     26  C   LIG    1        1.444  12.156  -1.059  0.00  0.00    -0.040 A 
ATOM     27 CL   LIG    1        2.053  12.888  -2.511  0.00  0.00    -0.060 Cl
ATOM     28  C   LIG    1        0.655  11.023  -1.133  0.00  0.00    +0.050 A 
ENDBRANCH  21  22
ENDBRANCH  18  21
ENDBRANCH   3  17
TORSDOF 4
