REMARK  Name = ZINCqH0000001CqD.0
REMARK                            x       y       z     vdW  Elec       q    Type
REMARK                         _______ _______ _______ _____ _____    ______ ____
ROOT
ATOM      1  C   LIG    1       -4.883   3.533   2.829  0.00  0.00    +0.460 C 
ATOM      2  O   LIG    1       -4.329   4.059   3.764  0.00  0.00    -0.480 OA
ENDROOT
BRANCH   1   3
ATOM      3  O   LIG    1       -4.481   3.796   1.575  0.00  0.00    -0.340 OA
BRANCH   3  10
ATOM      4  C   LIG    1       -2.585   4.366   0.158  0.00  0.00    +0.000 C 
ATOM      5  C   LIG    1       -1.419   5.342  -0.007  0.00  0.00    +0.030 C 
ATOM      6  C   LIG    1       -1.961   6.768  -0.130  0.00  0.00    +0.020 C 
ATOM      7  C   LIG    1       -2.750   7.124   1.132  0.00  0.00    -0.020 C 
ATOM      8  C   LIG    1       -3.916   6.148   1.296  0.00  0.00    +0.010 C 
ATOM      9  C   LIG    1       -3.292   8.550   1.009  0.00  0.00    +0.030 C 
ATOM     10  C   LIG    1       -3.374   4.722   1.419  0.00  0.00    +0.190 C 
BRANCH   4  12
ATOM     11  C   LIG    1       -1.104   2.854   1.485  0.00  0.00    +0.010 C 
ATOM     12  C   LIG    1       -2.043   2.940   0.281  0.00  0.00    -0.010 C 
ATOM     13  C   LIG    1       -1.277   2.575  -0.992  0.00  0.00    +0.030 C 
ENDBRANCH   4  12
ENDBRANCH   3  10
ENDBRANCH   1   3
BRANCH   1  14
ATOM     14  C   LIG    1       -6.027   2.580   3.069  0.00  0.00    +0.320 C 
BRANCH  14  15
ATOM     15  O   LIG    1       -6.268   2.465   4.496  0.00  0.00    -0.330 OA
BRANCH  15  16
ATOM     16  C   LIG    1       -7.265   1.645   4.883  0.00  0.00    +0.510 C 
ATOM     17  O   LIG    1       -7.915   1.044   4.051  0.00  0.00    -0.450 OA
BRANCH  16  18
ATOM     18  C   LIG    1       -7.568   1.478   6.319  0.00  0.00    -0.050 A 
ATOM     19  C   LIG    1       -7.785   2.597   7.125  0.00  0.00    +0.090 A 
ATOM     20  C   LIG    1       -8.073   2.433   8.465  0.00  0.00    +0.090 A 
ATOM     21  C   LIG    1       -8.136   1.164   9.012  0.00  0.00    +0.070 A 
ATOM     22  C   LIG    1       -7.916   0.050   8.220  0.00  0.00    +0.110 A 
ATOM     23  C   LIG    1       -7.633   0.200   6.878  0.00  0.00    -0.000 A 
BRANCH  23  24
ATOM     24  N   LIG    1       -7.398  -0.993   6.032  0.00  0.00    +0.020 N 
ATOM     25  O   LIG    1       -7.028  -0.858   4.880  0.00  0.00    -0.130 OA
ATOM     26  O   LIG    1       -7.573  -2.108   6.490  0.00  0.00    -0.150 OA
ENDBRANCH  23  24
ENDBRANCH  16  18
ENDBRANCH  15  16
ENDBRANCH  14  15
ENDBRANCH   1  14
TORSDOF 8
