REMARK  Name = ZINCvU0000000HtT.0
REMARK                            x       y       z     vdW  Elec       q    Type
REMARK                         _______ _______ _______ _____ _____    ______ ____
ROOT
ATOM      1  N   LIG    1       -4.448   1.321  -0.064  0.00  0.00    -0.720 N 
ATOM      2  H   LIG    1       -4.302   2.273  -0.184  0.00  0.00    +0.400 HD
ATOM      3  C   LIG    1       -5.336   0.672  -0.842  0.00  0.00    +0.560 C 
ATOM      4  O   LIG    1       -5.519  -0.520  -0.691  0.00  0.00    -0.520 OA
ENDROOT
BRANCH   3   5
ATOM      5  C   LIG    1       -6.090   1.411  -1.880  0.00  0.00    -0.110 A 
ATOM      6  C   LIG    1       -5.885   2.781  -2.049  0.00  0.00    +0.030 A 
ATOM      7  C   LIG    1       -6.582   3.468  -3.019  0.00  0.00    +0.070 A 
ATOM      8  C   LIG    1       -7.503   2.795  -3.825  0.00  0.00    -0.120 A 
ATOM      9  C   LIG    1       -7.712   1.426  -3.651  0.00  0.00    +0.060 A 
ATOM     10  C   LIG    1       -7.011   0.738  -2.685  0.00  0.00    +0.070 A 
BRANCH   8  11
ATOM     11  C   LIG    1       -8.256   3.534  -4.863  0.00  0.00    +0.470 C 
ATOM     12  O   LIG    1       -8.414   4.735  -4.760  0.00  0.00    -0.460 OA
BRANCH  11  13
ATOM     13  C   LIG    1       -8.813   2.814  -6.018  0.00  0.00    -0.260 A 
ATOM     14  C   LIG    1       -9.651   3.324  -6.990  0.00  0.00    +0.260 A 
ATOM     15  N   LIG    1       -9.927   2.340  -7.865  0.00  0.00    -0.550 N 
ATOM     16  H   LIG    1      -10.495   2.436  -8.645  0.00  0.00    +0.420 HD
ATOM     17  C   LIG    1       -9.294   1.187  -7.500  0.00  0.00    +0.150 A 
ATOM     18  C   LIG    1       -8.587   1.410  -6.378  0.00  0.00    -0.020 A 
ENDBRANCH  11  13
ENDBRANCH   8  11
ENDBRANCH   3   5
BRANCH   1  19
ATOM     19  C   LIG    1       -3.702   0.590   0.963  0.00  0.00    +0.290 C 
BRANCH  19  24
ATOM     20  C   LIG    1       -0.060   1.254   1.721  0.00  0.00    +0.130 A 
ATOM     21  C   LIG    1       -0.040   2.639   1.782  0.00  0.00    -0.080 A 
ATOM     22  C   LIG    1       -1.204   3.355   1.581  0.00  0.00    +0.060 A 
ATOM     23  C   LIG    1       -2.389   2.692   1.320  0.00  0.00    -0.030 A 
ATOM     24  C   LIG    1       -2.410   1.310   1.254  0.00  0.00    -0.050 A 
ATOM     25  C   LIG    1       -1.250   0.590   1.459  0.00  0.00    -0.010 A 
BRANCH  20  27
ATOM     26  C   LIG    1        2.272   1.297   2.183  0.00  0.00    +0.250 C 
ATOM     27  O   LIG    1        1.085   0.547   1.917  0.00  0.00    -0.320 OA
ENDBRANCH  20  27
ENDBRANCH  19  24
BRANCH  19  28
ATOM     28  C   LIG    1       -4.539   0.509   2.241  0.00  0.00    -0.020 C 
ATOM     29  C   LIG    1       -3.760  -0.254   3.314  0.00  0.00    +0.020 C 
ATOM     30  C   LIG    1       -4.598  -0.336   4.592  0.00  0.00    +0.000 C 
ATOM     31  C   LIG    1       -5.909  -1.067   4.296  0.00  0.00    +0.000 C 
ATOM     32  C   LIG    1       -6.688  -0.303   3.224  0.00  0.00    +0.000 C 
ATOM     33  C   LIG    1       -5.851  -0.222   1.946  0.00  0.00    +0.020 C 
ENDBRANCH  19  28
ENDBRANCH   1  19
TORSDOF 7
