REMARK  Name = ZINCnE000001LnGh.2
REMARK                            x       y       z     vdW  Elec       q    Type
REMARK                         _______ _______ _______ _____ _____    ______ ____
ROOT
ATOM      1  C   LIG    1       -1.294  -0.774   0.011  0.00  0.00    +0.170 C 
ATOM      2  C   LIG    1       -1.612  -1.281  -1.408  0.00  0.00    +0.020 C 
ATOM      3  C   LIG    1       -1.687  -2.820  -1.279  0.00  0.00    +0.020 C 
ATOM      4  C   LIG    1       -1.975  -3.028   0.229  0.00  0.00    +0.160 C 
ATOM      5  N   LIG    1       -1.166  -1.964   0.879  0.00  0.00    -0.480 NA
ENDROOT
BRANCH   1   9
ATOM      6  C   LIG    1        2.383   1.407  -0.013  0.00  0.00    +0.090 A 
ATOM      7  C   LIG    1        2.397   0.021  -0.020  0.00  0.00    -0.050 A 
ATOM      8  C   LIG    1        1.207  -0.681  -0.013  0.00  0.00    +0.120 A 
ATOM      9  C   LIG    1        0.002  -0.004   0.002  0.00  0.00    -0.080 A 
ATOM     10  C   LIG    1       -0.017   1.379   0.010  0.00  0.00    +0.010 A 
ATOM     11  C   LIG    1        1.171   2.087   0.002  0.00  0.00    +0.050 A 
ATOM     12  F   LIG    1        1.153   3.438   0.009  0.00  0.00    -0.140 F 
BRANCH   6  14
ATOM     13  C   LIG    1        4.760   1.336  -0.036  0.00  0.00    +0.240 C 
ATOM     14  O   LIG    1        3.552   2.100  -0.020  0.00  0.00    -0.320 OA
ENDBRANCH   6  14
ENDBRANCH   1   9
BRANCH   5  15
ATOM     15  C   LIG    1       -1.659  -1.683   2.234  0.00  0.00    +0.260 C 
BRANCH  15  16
ATOM     16  C   LIG    1       -1.744  -2.969   3.015  0.00  0.00    -0.180 A 
ATOM     17  C   LIG    1       -0.703  -3.632   3.628  0.00  0.00    -0.020 A 
ATOM     18  O   LIG    1       -1.207  -4.736   4.219  0.00  0.00    -0.160 OA
ATOM     19  C   LIG    1       -2.525  -4.798   3.994  0.00  0.00    +0.110 A 
ATOM     20  C   LIG    1       -2.897  -3.728   3.256  0.00  0.00    -0.090 A 
BRANCH  17  21
ATOM     21  C   LIG    1        0.697  -3.213   3.638  0.00  0.00    +0.550 C 
ATOM     22  O   LIG    1        1.535  -3.891   4.220  0.00  0.00    -0.680 OA
ATOM     23  O   LIG    1        1.033  -2.184   3.064  0.00  0.00    -0.630 OA
ENDBRANCH  17  21
ENDBRANCH  15  16
ENDBRANCH   5  15
TORSDOF 5
