REMARK  Name = ZINCvU00000006Qw.0
REMARK                            x       y       z     vdW  Elec       q    Type
REMARK                         _______ _______ _______ _____ _____    ______ ____
ROOT
ATOM      1  C   LIG    1       -1.249   3.810   0.142  0.00  0.00    +0.310 C 
ATOM      2  N   LIG    1       -1.202   2.350   0.021  0.00  0.00    -0.660 N 
ATOM      3  H   LIG    1       -2.027   1.844  -0.050  0.00  0.00    +0.430 HD
ATOM      4  C   LIG    1       -0.021   1.708   0.011  0.00  0.00    +0.510 C 
ATOM      5  N   LIG    1        1.141   2.381   0.004  0.00  0.00    -0.480 NA
ATOM      6  C   LIG    1        1.190   3.657  -0.265  0.00  0.00    +0.310 C 
ATOM      7  S   LIG    1        0.002  -0.004   0.002  0.00  0.00    -0.490 S 
ATOM      8  C   LIG    1       -0.065   4.413  -0.618  0.00  0.00    +0.100 C 
ENDROOT
BRANCH   8   9
ATOM      9  C   LIG    1       -0.314   4.310  -2.101  0.00  0.00    +0.060 A 
ATOM     10  N   LIG    1       -0.487   3.208  -2.727  0.00  0.00    -0.440 NA
ATOM     11  C   LIG    1       -0.704   3.266  -4.054  0.00  0.00    +0.080 A 
ATOM     12  C   LIG    1       -0.925   2.223  -4.976  0.00  0.00    +0.090 A 
ATOM     13  C   LIG    1       -1.121   2.499  -6.296  0.00  0.00    +0.040 A 
ATOM     14  C   LIG    1       -1.107   3.808  -6.757  0.00  0.00    +0.050 A 
ATOM     15  C   LIG    1       -0.893   4.847  -5.879  0.00  0.00    +0.060 A 
ATOM     16  C   LIG    1       -0.691   4.583  -4.526  0.00  0.00    -0.170 A 
ATOM     17  S   LIG    1       -0.395   5.649  -3.156  0.00  0.00    +0.130 S 
ENDBRANCH   8   9
BRANCH   1  21
ATOM     18  C   LIG    1       -1.017   4.922   4.260  0.00  0.00    -0.030 A 
ATOM     19  C   LIG    1       -1.867   5.602   3.407  0.00  0.00    +0.110 A 
ATOM     20  C   LIG    1       -1.941   5.242   2.075  0.00  0.00    +0.060 A 
ATOM     21  C   LIG    1       -1.167   4.202   1.595  0.00  0.00    -0.070 A 
ATOM     22  C   LIG    1       -0.322   3.518   2.449  0.00  0.00    +0.040 A 
ATOM     23  C   LIG    1       -0.243   3.882   3.781  0.00  0.00    +0.120 A 
BRANCH  18  25
ATOM     24  O   LIG    1       -1.618   6.224   6.110  0.00  0.00    -0.150 OA
ATOM     25  N   LIG    1       -0.936   5.308   5.687  0.00  0.00    +0.020 N 
ATOM     26  O   LIG    1       -0.188   4.708   6.439  0.00  0.00    -0.150 OA
ENDBRANCH  18  25
ENDBRANCH   1  21
BRANCH   6  27
ATOM     27  C   LIG    1        2.479   4.363  -0.222  0.00  0.00    -0.100 A 
ATOM     28  C   LIG    1        2.542   5.730  -0.514  0.00  0.00    +0.040 A 
ATOM     29  C   LIG    1        3.754   6.385  -0.466  0.00  0.00    +0.000 A 
ATOM     30  C   LIG    1        4.908   5.692  -0.141  0.00  0.00    +0.050 A 
ATOM     31  C   LIG    1        4.854   4.339   0.143  0.00  0.00    +0.010 A 
ATOM     32  C   LIG    1        3.650   3.670   0.106  0.00  0.00    +0.100 A 
ENDBRANCH   6  27
TORSDOF 4
