REMARK  Name = ZINCpe00000bYiYv.0
REMARK                            x       y       z     vdW  Elec       q    Type
REMARK                         _______ _______ _______ _____ _____    ______ ____
ROOT
ATOM      1  C   LIG    1       -4.782   0.631   0.800  0.00  0.00    +0.240 C 
ATOM      2  C   LIG    1       -3.990  -0.534   1.431  0.00  0.00    +0.020 C 
ATOM      3  C   LIG    1       -2.516  -0.063   1.379  0.00  0.00    +0.020 C 
ATOM      4  C   LIG    1       -2.439   0.671   0.017  0.00  0.00    -0.010 C 
ATOM      5  C   LIG    1       -3.795   1.397  -0.098  0.00  0.00    +0.040 C 
ENDROOT
BRANCH   1   7
ATOM      6  C   LIG    1       -6.491   1.262   2.418  0.00  0.00    +0.600 C 
ATOM      7  N   LIG    1       -5.296   1.515   1.849  0.00  0.00    -0.710 N 
ATOM      8  H   LIG    1       -4.776   2.283   2.134  0.00  0.00    +0.400 HD
ATOM      9  O   LIG    1       -7.143   0.299   2.061  0.00  0.00    -0.520 OA
BRANCH   6  12
ATOM     10  C   LIG    1       -8.275   3.815   1.968  0.00  0.00    +0.170 C 
ATOM     11  C   LIG    1       -7.791   3.274   3.288  0.00  0.00    +0.150 A 
ATOM     12  C   LIG    1       -7.008   2.151   3.473  0.00  0.00    -0.280 A 
ATOM     13  C   LIG    1       -6.791   2.019   4.864  0.00  0.00    +0.160 A 
ATOM     14  N   LIG    1       -7.411   2.999   5.464  0.00  0.00    -0.270 NA
ATOM     15 CL   LIG    1       -5.863   0.773   5.638  0.00  0.00    +0.020 Cl
ATOM     16  N   LIG    1       -8.044   3.792   4.500  0.00  0.00    -0.440 N 
ATOM     17  H   LIG    1       -8.574   4.585   4.678  0.00  0.00    +0.450 HD
ENDBRANCH   6  12
ENDBRANCH   1   7
BRANCH   4  18
ATOM     18  C   LIG    1       -1.290   1.681   0.017  0.00  0.00    +0.270 C 
BRANCH  18  19
ATOM     19  N   LIG    1       -0.011   0.966   0.007  0.00  0.00    -0.730 N 
ATOM     20  H   LIG    1        0.002  -0.004   0.002  0.00  0.00    +0.400 HD
ATOM     21  C   LIG    1        1.147   1.655   0.000  0.00  0.00    +0.520 C 
ATOM     22  O   LIG    1        1.130   2.868   0.007  0.00  0.00    -0.490 OA
BRANCH  21  23
ATOM     23  C   LIG    1        2.462   0.920  -0.017  0.00  0.00    -0.110 C 
ATOM     24  C   LIG    1        2.543   0.048  -1.271  0.00  0.00    +0.070 C 
ATOM     25  C   LIG    1        2.567   0.035   1.227  0.00  0.00    +0.070 C 
BRANCH  23  26
ATOM     26  C   LIG    1        3.594   1.915  -0.022  0.00  0.00    +0.520 C 
ATOM     27  O   LIG    1        3.356   3.104  -0.013  0.00  0.00    -0.500 OA
ATOM     28  N   LIG    1        4.871   1.483  -0.036  0.00  0.00    -0.860 N 
ATOM     29  H   LIG    1        5.599   2.123  -0.040  0.00  0.00    +0.400 HD
ATOM     30  H   LIG    1        5.061   0.532  -0.043  0.00  0.00    +0.400 HD
ENDBRANCH  23  26
ENDBRANCH  21  23
ENDBRANCH  18  19
ENDBRANCH   4  18
TORSDOF 6
