REMARK  Name = ZINCtV000002qa9p.0
REMARK                            x       y       z     vdW  Elec       q    Type
REMARK                         _______ _______ _______ _____ _____    ______ ____
ROOT
ATOM      1  C   LIG    1       -0.016   1.383   0.001  0.00  0.00    +0.170 A 
ATOM      2  C   LIG    1        0.091   0.132   0.605  0.00  0.00    +0.000 A 
ATOM      3  C   LIG    1        1.280  -0.540   0.600  0.00  0.00    +0.100 A 
ATOM      4  C   LIG    1        2.400   0.028  -0.013  0.00  0.00    +0.010 A 
ATOM      5  N   LIG    1        3.684  -0.380  -0.180  0.00  0.00    -0.460 NA
ATOM      6  C   LIG    1        4.337   0.543  -0.839  0.00  0.00    +0.290 A 
ATOM      7  O   LIG    1        3.518   1.574  -1.123  0.00  0.00    -0.210 OA
ATOM      8  C   LIG    1        2.296   1.289  -0.623  0.00  0.00    +0.030 A 
ATOM      9  C   LIG    1        1.084   1.961  -0.612  0.00  0.00    +0.050 A 
ENDROOT
BRANCH   6  10
ATOM     10  C   LIG    1        5.764   0.466  -1.215  0.00  0.00    -0.040 A 
ATOM     11  C   LIG    1        6.359   1.510  -1.925  0.00  0.00    +0.090 A 
ATOM     12  C   LIG    1        7.692   1.435  -2.269  0.00  0.00    -0.010 A 
ATOM     13  C   LIG    1        8.439   0.321  -1.921  0.00  0.00    +0.130 A 
ATOM     14  C   LIG    1        7.852  -0.722  -1.220  0.00  0.00    -0.010 A 
ATOM     15  F   LIG    1        9.743   0.250  -2.265  0.00  0.00    -0.130 F 
ATOM     16  C   LIG    1        6.521  -0.655  -0.866  0.00  0.00    +0.120 A 
ENDBRANCH   6  10
BRANCH   1  18
ATOM     17  C   LIG    1       -1.264   3.405   0.128  0.00  0.00    +0.530 C 
ATOM     18  N   LIG    1       -1.240   2.062   0.019  0.00  0.00    -0.670 N 
ATOM     19  H   LIG    1       -2.071   1.566  -0.047  0.00  0.00    +0.410 HD
ATOM     20  O   LIG    1       -0.226   4.032   0.127  0.00  0.00    -0.490 OA
BRANCH  17  22
ATOM     21  C   LIG    1       -3.437   3.842  -0.983  0.00  0.00    +0.070 C 
ATOM     22  C   LIG    1       -2.581   4.128   0.252  0.00  0.00    -0.040 C 
ATOM     23  C   LIG    1       -3.313   3.642   1.504  0.00  0.00    +0.060 C 
BRANCH  22  24
ATOM     24  C   LIG    1       -2.332   5.610   0.359  0.00  0.00    -0.060 A 
ATOM     25  C   LIG    1       -2.859   6.469  -0.587  0.00  0.00    +0.040 A 
ATOM     26  C   LIG    1       -2.631   7.829  -0.489  0.00  0.00    +0.010 A 
ATOM     27  C   LIG    1       -1.875   8.331   0.554  0.00  0.00    +0.030 A 
ATOM     28  C   LIG    1       -1.347   7.472   1.500  0.00  0.00    +0.020 A 
ATOM     29  C   LIG    1       -1.581   6.112   1.407  0.00  0.00    -0.010 A 
ATOM     30 CL   LIG    1       -0.925   5.034   2.599  0.00  0.00    -0.060 Cl
ENDBRANCH  22  24
ENDBRANCH  17  22
ENDBRANCH   1  18
TORSDOF 4
