REMARK  Name = ZINCrH00000tj1qk.0
REMARK                            x       y       z     vdW  Elec       q    Type
REMARK                         _______ _______ _______ _____ _____    ______ ____
ROOT
ATOM      1  N   LIG    1       -3.453  -4.602  -1.101  0.00  0.00    -0.660 NA
ATOM      2  H   LIG    1       -3.886  -5.486  -0.880  0.00  0.00    +0.350 HD
ENDROOT
BRANCH   1  11
ATOM      3  C   LIG    1       -1.201  -0.638   0.010  0.00  0.00    +0.120 A 
ATOM      4  C   LIG    1       -2.374   0.101   0.025  0.00  0.00    -0.060 A 
ATOM      5  C   LIG    1       -3.599  -0.540   0.039  0.00  0.00    +0.030 A 
ATOM      6  C   LIG    1       -3.650  -1.927   0.038  0.00  0.00    +0.100 A 
ATOM      7  O   LIG    1       -4.856  -2.559   0.092  0.00  0.00    -0.300 OA
ATOM      8  C   LIG    1       -5.158  -3.210   1.331  0.00  0.00    +0.210 C 
ATOM      9  C   LIG    1       -4.603  -4.619   1.351  0.00  0.00    +0.000 C 
ATOM     10  C   LIG    1       -3.083  -4.671   1.320  0.00  0.00    +0.030 C 
ATOM     11  C   LIG    1       -2.550  -4.174  -0.024  0.00  0.00    +0.190 C 
ATOM     12  C   LIG    1       -2.481  -2.659   0.010  0.00  0.00    -0.080 A 
ATOM     13  C   LIG    1       -1.255  -2.025  -0.003  0.00  0.00    +0.000 A 
BRANCH   3  15
ATOM     14  C   LIG    1       -0.017   1.425   0.010  0.00  0.00    +0.250 C 
ATOM     15  O   LIG    1        0.002  -0.004   0.002  0.00  0.00    -0.320 OA
ENDBRANCH   3  15
ENDBRANCH   1  11
BRANCH   1  16
ATOM     16  C   LIG    1       -2.745  -4.669  -2.386  0.00  0.00    +0.310 C 
BRANCH  16  17
ATOM     17  C   LIG    1       -3.702  -5.111  -3.464  0.00  0.00    +0.000 A 
ATOM     18  N   LIG    1       -4.429  -4.326  -4.193  0.00  0.00    -0.240 NA
ATOM     19  N   LIG    1       -5.183  -4.853  -5.057  0.00  0.00    -0.230 NA
ATOM     20  C   LIG    1       -5.154  -6.156  -5.131  0.00  0.00    +0.030 A 
ATOM     21  S   LIG    1       -3.999  -6.732  -3.929  0.00  0.00    +0.170 S 
BRANCH  20  22
ATOM     22  C   LIG    1       -5.942  -6.996  -6.058  0.00  0.00    -0.010 A 
ATOM     23  C   LIG    1       -6.827  -6.420  -6.976  0.00  0.00    +0.060 A 
ATOM     24  C   LIG    1       -7.543  -7.241  -7.822  0.00  0.00    +0.280 A 
ATOM     25  N   LIG    1       -7.402  -8.552  -7.776  0.00  0.00    -0.450 NA
ATOM     26  C   LIG    1       -6.580  -9.138  -6.927  0.00  0.00    +0.270 A 
ATOM     27  C   LIG    1       -5.819  -8.393  -6.047  0.00  0.00    +0.060 A 
ATOM     28  F   LIG    1       -4.974  -9.000  -5.185  0.00  0.00    -0.120 F 
ENDBRANCH  20  22
ENDBRANCH  16  17
ENDBRANCH   1  16
TORSDOF 5
