REMARK  Name = ZINCrg00001JduVI.2
REMARK                            x       y       z     vdW  Elec       q    Type
REMARK                         _______ _______ _______ _____ _____    ______ ____
ROOT
ATOM      1  C   LIG    1        1.489   1.911  -0.002  0.00  0.00    +0.220 C 
ATOM      2  C   LIG    1       -0.019   1.543   0.011  0.00  0.00    +0.020 C 
ATOM      3  C   LIG    1        0.002  -0.004   0.002  0.00  0.00    +0.180 C 
ATOM      4  N   LIG    1        1.326  -0.421   0.513  0.00  0.00    -0.520 NA
ATOM      5  C   LIG    1        1.981  -1.334  -0.419  0.00  0.00    +0.180 C 
ATOM      6  C   LIG    1        2.092   0.776   0.861  0.00  0.00    +0.130 C 
ATOM      7  C   LIG    1        3.585   0.667   0.609  0.00  0.00    +0.030 C 
ATOM      8  C   LIG    1        4.248  -0.301   1.589  0.00  0.00    +0.040 C 
ATOM      9  C   LIG    1        3.916   0.113   3.025  0.00  0.00    +0.170 C 
ATOM     10  N   LIG    1        2.457   0.118   3.198  0.00  0.00    -0.510 NA
ATOM     11  C   LIG    1        1.832   1.125   2.333  0.00  0.00    +0.210 C 
ENDROOT
BRANCH   1  13
ATOM     12  C   LIG    1        1.933   2.999  -2.132  0.00  0.00    +0.580 C 
ATOM     13  N   LIG    1        2.026   1.898  -1.360  0.00  0.00    -0.710 N 
ATOM     14  H   LIG    1        2.449   1.097  -1.707  0.00  0.00    +0.400 HD
ATOM     15  O   LIG    1        1.402   4.003  -1.697  0.00  0.00    -0.530 OA
BRANCH  12  21
ATOM     16  C   LIG    1        1.782   5.438  -4.018  0.00  0.00    +0.120 C 
ATOM     17  C   LIG    1        2.409   4.120  -4.393  0.00  0.00    -0.050 A 
ATOM     18  C   LIG    1        2.963   3.883  -5.576  0.00  0.00    -0.070 A 
ATOM     19  S   LIG    1        3.581   2.242  -5.651  0.00  0.00    +0.200 S 
ATOM     20  C   LIG    1        3.079   1.903  -4.057  0.00  0.00    -0.040 A 
ATOM     21  C   LIG    1        2.473   2.986  -3.501  0.00  0.00    -0.150 A 
ENDBRANCH  12  21
ENDBRANCH   1  13
BRANCH  10  22
ATOM     22  C   LIG    1        2.094   0.326   4.606  0.00  0.00    +0.330 C 
BRANCH  22  23
ATOM     23  C   LIG    1        2.548  -0.857   5.422  0.00  0.00    +0.180 A 
ATOM     24  N   LIG    1        1.855  -1.939   5.680  0.00  0.00    -0.290 NA
ATOM     25  N   LIG    1        2.587  -2.715   6.403  0.00  0.00    -0.140 N 
ATOM     26  N   LIG    1        3.723  -2.146   6.616  0.00  0.00    -0.060 NA
ATOM     27  C   LIG    1        2.189  -4.032   6.907  0.00  0.00    +0.410 C 
ATOM     28  N   LIG    1        3.728  -0.999   6.025  0.00  0.00    -0.280 NA
ENDBRANCH  22  23
ENDBRANCH  10  22
TORSDOF 4
