REMARK  Name = ZINCpe00000cafpq.0
REMARK                            x       y       z     vdW  Elec       q    Type
REMARK                         _______ _______ _______ _____ _____    ______ ____
ROOT
ATOM      1  C   LIG    1       -2.433   0.670  -0.020  0.00  0.00    -0.020 C 
ATOM      2  C   LIG    1       -2.894   0.253  -1.428  0.00  0.00    +0.290 C 
ATOM      3  N   LIG    1       -4.268   0.357  -0.900  0.00  0.00    -0.650 N 
ATOM      4  C   LIG    1       -5.452  -0.195  -1.232  0.00  0.00    +0.520 C 
ATOM      5  O   LIG    1       -5.536  -0.907  -2.210  0.00  0.00    -0.520 OA
ATOM      6  C   LIG    1       -3.825   1.308   0.138  0.00  0.00    +0.290 C 
ENDROOT
BRANCH   4   7
ATOM      7  C   LIG    1       -6.672   0.073  -0.388  0.00  0.00    +0.130 C 
ATOM      8  C   LIG    1       -6.648  -0.831   0.848  0.00  0.00    -0.010 C 
ATOM      9  C   LIG    1       -7.928  -0.609   1.658  0.00  0.00    +0.230 C 
ATOM     10  O   LIG    1       -9.064  -0.875   0.833  0.00  0.00    -0.380 OA
ATOM     11  C   LIG    1       -9.164  -0.027  -0.313  0.00  0.00    +0.220 C 
ATOM     12  C   LIG    1       -7.934  -0.226  -1.202  0.00  0.00    +0.060 C 
BRANCH   7  13
ATOM     13  O   LIG    1       -6.679   1.443   0.020  0.00  0.00    -0.540 OA
ATOM     14  H   LIG    1       -5.877   1.719   0.484  0.00  0.00    +0.370 HD
ENDBRANCH   7  13
ENDBRANCH   4   7
BRANCH   1  15
ATOM     15  C   LIG    1       -1.288   1.684  -0.022  0.00  0.00    +0.290 C 
BRANCH  15  18
ATOM     16  O   LIG    1        1.128   2.884  -0.048  0.00  0.00    -0.520 OA
ATOM     17  C   LIG    1        1.149   1.668  -0.070  0.00  0.00    +0.610 C 
ATOM     18  N   LIG    1       -0.007   0.974  -0.057  0.00  0.00    -0.720 N 
ATOM     19  H   LIG    1        0.010   0.004  -0.074  0.00  0.00    +0.410 HD
BRANCH  17  20
ATOM     20  C   LIG    1        2.431   0.957  -0.111  0.00  0.00    -0.090 A 
ATOM     21  C   LIG    1        3.668   1.534  -0.133  0.00  0.00    +0.050 A 
ATOM     22  C   LIG    1        4.601   0.487  -0.167  0.00  0.00    -0.060 A 
ATOM     23  C   LIG    1        3.902  -0.669  -0.172  0.00  0.00    +0.060 A 
ATOM     24  O   LIG    1        2.594  -0.382  -0.139  0.00  0.00    -0.160 OA
BRANCH  23  25
ATOM     25  C   LIG    1        4.495  -2.054  -0.209  0.00  0.00    +0.050 C 
ATOM     26  C   LIG    1        3.536  -3.229  -0.413  0.00  0.00    +0.040 C 
ATOM     27  C   LIG    1        4.175  -2.991   0.957  0.00  0.00    +0.050 C 
ENDBRANCH  23  25
ENDBRANCH  17  20
ENDBRANCH  15  18
ENDBRANCH   1  15
TORSDOF 6
