REMARK  Name = ZINCtj00000rjjmF.1
REMARK                            x       y       z     vdW  Elec       q    Type
REMARK                         _______ _______ _______ _____ _____    ______ ____
ROOT
ATOM      1  C   LIG    1        4.956   6.533   0.338  0.00  0.00    +0.110 C 
ATOM      2  C   LIG    1        5.871   5.330   0.575  0.00  0.00    +0.060 C 
ATOM      3  C   LIG    1        5.022   4.068   0.750  0.00  0.00    +0.040 C 
ATOM      4  C   LIG    1        4.114   4.234   1.973  0.00  0.00    +0.270 C 
ATOM      5  N   LIG    1        3.334   5.469   1.818  0.00  0.00    -0.600 N 
ATOM      6  C   LIG    1        1.990   5.449   1.915  0.00  0.00    +0.600 C 
ATOM      7  O   LIG    1        1.348   6.457   1.686  0.00  0.00    -0.540 OA
ATOM      8  C   LIG    1        4.046   6.726   1.550  0.00  0.00    +0.260 C 
ENDROOT
BRANCH   6   9
ATOM      9  C   LIG    1        1.299   4.208   2.299  0.00  0.00    -0.230 A 
ATOM     10  C   LIG    1        1.696   3.302   3.232  0.00  0.00    +0.290 A 
ATOM     11  O   LIG    1        0.809   2.303   3.302  0.00  0.00    -0.180 OA
ATOM     12  C   LIG    1       -0.209   2.488   2.435  0.00  0.00    +0.070 A 
ATOM     13  C   LIG    1       -1.348   1.750   2.139  0.00  0.00    +0.010 A 
ATOM     14  C   LIG    1       -2.230   2.202   1.173  0.00  0.00    +0.140 A 
ATOM     15  C   LIG    1       -1.991   3.396   0.500  0.00  0.00    -0.010 A 
ATOM     16  C   LIG    1       -0.866   4.138   0.786  0.00  0.00    +0.090 A 
ATOM     17  C   LIG    1        0.029   3.689   1.752  0.00  0.00    -0.100 A 
BRANCH  14  18
ATOM     18  O   LIG    1       -3.341   1.474   0.882  0.00  0.00    -0.490 OA
ATOM     19  H   LIG    1       -4.113   1.704   1.416  0.00  0.00    +0.400 HD
ENDBRANCH  14  18
ENDBRANCH   6   9
BRANCH   1  20
ATOM     20  O   LIG    1        4.155   6.302  -0.824  0.00  0.00    -0.530 OA
ATOM     21  H   LIG    1        3.550   7.026  -1.034  0.00  0.00    +0.370 HD
ENDBRANCH   1  20
BRANCH   1  22
ATOM     22  C   LIG    1        5.806   7.788   0.130  0.00  0.00    +0.280 C 
BRANCH  22  24
ATOM     23  C   LIG    1        5.463  10.182  -0.165  0.00  0.00    +0.510 C 
ATOM     24  N   LIG    1        4.931   8.958   0.022  0.00  0.00    -0.710 N 
ATOM     25  H   LIG    1        3.969   8.852   0.085  0.00  0.00    +0.410 HD
ATOM     26  O   LIG    1        6.666  10.315  -0.244  0.00  0.00    -0.500 OA
BRANCH  23  32
ATOM     27  C   LIG    1        6.038  11.870   1.561  0.00  0.00    +0.330 C 
ATOM     28  N   LIG    1        4.932  12.385   0.743  0.00  0.00    -0.380 N 
ATOM     29  C   LIG    1        5.356  13.624   0.056  0.00  0.00    +0.270 C 
ATOM     30  C   LIG    1        4.663  13.566  -1.328  0.00  0.00    +0.080 C 
ATOM     31  C   LIG    1        4.745  12.052  -1.657  0.00  0.00    +0.100 C 
ATOM     32  C   LIG    1        4.563  11.386  -0.277  0.00  0.00    +0.150 C 
ATOM     33  H   LIG    1        4.137  12.578   1.333  0.00  0.00    +0.430 HD
ENDBRANCH  23  32
ENDBRANCH  22  24
ENDBRANCH   1  22
TORSDOF 6
