REMARK  Name = ZINCtj00000rjjmF.0
REMARK                            x       y       z     vdW  Elec       q    Type
REMARK                         _______ _______ _______ _____ _____    ______ ____
ROOT
ATOM      1  C   LIG    1       -2.063   0.889  -1.011  0.00  0.00    +0.110 C 
ATOM      2  C   LIG    1       -2.155  -0.340  -1.917  0.00  0.00    +0.060 C 
ATOM      3  C   LIG    1       -3.574  -0.912  -1.861  0.00  0.00    +0.040 C 
ATOM      4  C   LIG    1       -3.889  -1.345  -0.426  0.00  0.00    +0.260 C 
ATOM      5  N   LIG    1       -3.663  -0.205   0.472  0.00  0.00    -0.600 N 
ATOM      6  C   LIG    1       -4.630   0.208   1.316  0.00  0.00    +0.600 C 
ATOM      7  O   LIG    1       -4.403   1.101   2.110  0.00  0.00    -0.530 OA
ATOM      8  C   LIG    1       -2.362   0.477   0.434  0.00  0.00    +0.260 C 
ENDROOT
BRANCH   6   9
ATOM      9  C   LIG    1       -5.958  -0.422   1.276  0.00  0.00    -0.220 A 
ATOM     10  C   LIG    1       -6.237  -1.753   1.296  0.00  0.00    +0.280 A 
ATOM     11  O   LIG    1       -7.561  -1.941   1.246  0.00  0.00    -0.180 OA
ATOM     12  C   LIG    1       -8.222  -0.766   1.190  0.00  0.00    +0.070 A 
ATOM     13  C   LIG    1       -9.571  -0.439   1.127  0.00  0.00    +0.010 A 
ATOM     14  C   LIG    1       -9.957   0.888   1.080  0.00  0.00    +0.140 A 
ATOM     15  C   LIG    1       -9.005   1.903   1.095  0.00  0.00    -0.010 A 
ATOM     16  C   LIG    1       -7.664   1.592   1.157  0.00  0.00    +0.080 A 
ATOM     17  C   LIG    1       -7.267   0.260   1.212  0.00  0.00    -0.100 A 
BRANCH  14  18
ATOM     18  O   LIG    1      -11.278   1.204   1.018  0.00  0.00    -0.490 OA
ATOM     19  H   LIG    1      -11.697   1.316   1.882  0.00  0.00    +0.400 HD
ENDBRANCH  14  18
ENDBRANCH   6   9
BRANCH   1  20
ATOM     20  O   LIG    1       -3.015   1.867  -1.434  0.00  0.00    -0.530 OA
ATOM     21  H   LIG    1       -3.013   2.675  -0.902  0.00  0.00    +0.370 HD
ENDBRANCH   1  20
BRANCH   1  22
ATOM     22  C   LIG    1       -0.654   1.479  -1.093  0.00  0.00    +0.280 C 
BRANCH  22  24
ATOM     23  C   LIG    1        0.634   3.254  -0.029  0.00  0.00    +0.510 C 
ATOM     24  N   LIG    1       -0.529   2.580  -0.134  0.00  0.00    -0.710 N 
ATOM     25  H   LIG    1       -1.284   2.826   0.423  0.00  0.00    +0.410 HD
ATOM     26  O   LIG    1        1.576   2.949  -0.729  0.00  0.00    -0.520 OA
BRANCH  23  32
ATOM     27  C   LIG    1        3.098   4.276   1.607  0.00  0.00    +0.340 C 
ATOM     28  N   LIG    1        2.097   5.027   0.838  0.00  0.00    -0.380 N 
ATOM     29  C   LIG    1        1.904   6.381   1.420  0.00  0.00    +0.280 C 
ATOM     30  C   LIG    1        0.510   6.822   0.925  0.00  0.00    +0.080 C 
ATOM     31  C   LIG    1       -0.241   5.510   0.620  0.00  0.00    +0.080 C 
ATOM     32  C   LIG    1        0.762   4.386   0.957  0.00  0.00    +0.170 C 
ATOM     33  H   LIG    1        2.371   5.095  -0.130  0.00  0.00    +0.440 HD
ENDBRANCH  23  32
ENDBRANCH  22  24
ENDBRANCH   1  22
TORSDOF 6
