REMARK  Name = ZINCrH000004vHGl.0
REMARK                            x       y       z     vdW  Elec       q    Type
REMARK                         _______ _______ _______ _____ _____    ______ ____
ROOT
ATOM      1  C   LIG    1       -3.270   3.841   2.710  0.00  0.00    +0.570 C 
ATOM      2  N   LIG    1       -2.741   3.809   1.471  0.00  0.00    -0.700 N 
ATOM      3  H   LIG    1       -3.250   4.146   0.717  0.00  0.00    +0.400 HD
ATOM      4  O   LIG    1       -2.631   3.419   3.654  0.00  0.00    -0.530 OA
ENDROOT
BRANCH   2   5
ATOM      5  C   LIG    1       -1.396   3.266   1.262  0.00  0.00    +0.260 C 
ATOM      6  C   LIG    1       -0.619   3.755   0.038  0.00  0.00    -0.030 C 
ATOM      7  C   LIG    1        0.904   3.571   0.014  0.00  0.00    +0.130 C 
ATOM      8  C   LIG    1        1.170   2.085   0.002  0.00  0.00    -0.080 A 
ATOM      9  C   LIG    1        2.376   1.400  -0.014  0.00  0.00    +0.030 A 
ATOM     10  C   LIG    1        2.394   0.019  -0.021  0.00  0.00    -0.030 A 
ATOM     11  C   LIG    1        1.203  -0.685  -0.013  0.00  0.00    +0.030 A 
ATOM     12  C   LIG    1        0.002  -0.004   0.002  0.00  0.00    +0.040 A 
ATOM     13 CL   LIG    1        3.907  -0.832  -0.039  0.00  0.00    -0.060 Cl
ATOM     14  C   LIG    1       -0.017   1.383   0.010  0.00  0.00    -0.060 A 
ATOM     15  C   LIG    1       -1.191   2.332   0.020  0.00  0.00    -0.020 C 
ENDBRANCH   2   5
BRANCH   1  19
ATOM     16  C   LIG    1       -7.167   5.418   3.316  0.00  0.00    -0.080 A 
ATOM     17  C   LIG    1       -6.443   4.938   4.393  0.00  0.00    +0.030 A 
ATOM     18  C   LIG    1       -5.177   4.424   4.203  0.00  0.00    +0.090 A 
ATOM     19  C   LIG    1       -4.626   4.390   2.921  0.00  0.00    -0.130 A 
ATOM     20  C   LIG    1       -5.360   4.880   1.839  0.00  0.00    +0.050 A 
ATOM     21  C   LIG    1       -6.627   5.386   2.042  0.00  0.00    +0.020 A 
BRANCH  16  27
ATOM     22  O   LIG    1      -11.034   5.803   1.001  0.00  0.00    -0.550 OA
ATOM     23  C   LIG    1      -10.336   6.298   1.860  0.00  0.00    +0.520 C 
ATOM     24  C   LIG    1      -10.544   7.747   2.198  0.00  0.00    +0.060 C 
ATOM     25  C   LIG    1       -9.908   8.062   3.554  0.00  0.00    +0.030 C 
ATOM     26  C   LIG    1       -8.479   7.503   3.561  0.00  0.00    +0.040 C 
ATOM     27  C   LIG    1       -8.550   5.976   3.530  0.00  0.00    +0.270 C 
ATOM     28  N   LIG    1       -9.424   5.527   2.453  0.00  0.00    -0.720 N 
ATOM     29  H   LIG    1       -9.336   4.610   2.149  0.00  0.00    +0.400 HD
ENDBRANCH  16  27
ENDBRANCH   1  19
TORSDOF 3
