REMARK  Name = ZINCpe00000c3Y5D.0
REMARK                            x       y       z     vdW  Elec       q    Type
REMARK                         _______ _______ _______ _____ _____    ______ ____
ROOT
ATOM      1  C   LIG    1       -0.713   0.846   6.090  0.00  0.00    +0.220 C 
ATOM      2  C   LIG    1       -1.211   2.259   6.406  0.00  0.00    +0.200 C 
ATOM      3  O   LIG    1       -0.093   3.106   6.683  0.00  0.00    -0.370 OA
ATOM      4  C   LIG    1        0.822   3.239   5.593  0.00  0.00    +0.210 C 
ATOM      5  C   LIG    1        1.401   1.865   5.245  0.00  0.00    +0.020 C 
ATOM      6  C   LIG    1        0.256   0.907   4.905  0.00  0.00    +0.240 C 
ENDROOT
BRANCH   6   7
ATOM      7  N   LIG    1       -0.453   1.393   3.718  0.00  0.00    -0.730 N 
ATOM      8  H   LIG    1       -1.248   1.939   3.817  0.00  0.00    +0.400 HD
ATOM      9  C   LIG    1        0.000   1.080   2.488  0.00  0.00    +0.520 C 
ATOM     10  O   LIG    1        0.994   0.397   2.363  0.00  0.00    -0.530 OA
BRANCH   9  11
ATOM     11  C   LIG    1       -0.729   1.579   1.267  0.00  0.00    +0.050 C 
BRANCH  11  12
ATOM     12  C   LIG    1       -0.013   1.086   0.008  0.00  0.00    +0.140 C 
BRANCH  12  13
ATOM     13  C   LIG    1       -0.742   1.585  -1.213  0.00  0.00    +0.080 A 
ATOM     14  C   LIG    1       -0.579   2.793  -1.801  0.00  0.00    -0.120 A 
ATOM     15  C   LIG    1       -1.439   2.855  -2.902  0.00  0.00    +0.230 A 
ATOM     16  N   LIG    1       -2.101   1.728  -2.968  0.00  0.00    -0.300 NA
ATOM     17  N   LIG    1       -1.678   0.910  -1.912  0.00  0.00    -0.370 N 
ATOM     18  C   LIG    1       -2.165  -0.440  -1.619  0.00  0.00    +0.360 C 
ENDBRANCH  12  13
ENDBRANCH  11  12
ENDBRANCH   9  11
ENDBRANCH   6   7
BRANCH   1  19
ATOM     19  N   LIG    1       -1.852  -0.009   5.748  0.00  0.00    -0.710 N 
ATOM     20  H   LIG    1       -2.102  -0.136   4.820  0.00  0.00    +0.410 HD
BRANCH  19  26
ATOM     21  C   LIG    1       -5.462  -2.890   7.025  0.00  0.00    +0.170 C 
ATOM     22  C   LIG    1       -4.294  -2.016   7.404  0.00  0.00    +0.360 A 
ATOM     23  N   LIG    1       -3.989  -1.872   8.678  0.00  0.00    -0.560 NA
ATOM     24  C   LIG    1       -2.970  -1.112   9.054  0.00  0.00    +0.350 A 
ATOM     25  C   LIG    1       -2.221  -0.464   8.092  0.00  0.00    -0.160 A 
ATOM     26  C   LIG    1       -2.572  -0.638   6.751  0.00  0.00    +0.440 A 
ATOM     27  N   LIG    1       -3.611  -1.412   6.453  0.00  0.00    -0.580 NA
ENDBRANCH  19  26
ENDBRANCH   1  19
TORSDOF 6
