REMARK  Name = ZINCpe000000Sz5I.0
REMARK                            x       y       z     vdW  Elec       q    Type
REMARK                         _______ _______ _______ _____ _____    ______ ____
ROOT
ATOM      1  C   LIG    1        3.405   2.135   2.293  0.00  0.00    +0.120 C 
ATOM      2  C   LIG    1        2.222   2.820   1.659  0.00  0.00    +0.510 C 
ATOM      3  N   LIG    1        0.982   2.320   1.832  0.00  0.00    -0.560 N 
ATOM      4  C   LIG    1        0.783   1.039   2.524  0.00  0.00    +0.280 C 
ATOM      5  C   LIG    1       -0.233   0.223   1.715  0.00  0.00    +0.030 C 
ATOM      6  C   LIG    1       -1.570   0.965   1.708  0.00  0.00    +0.090 C 
ATOM      7  C   LIG    1       -1.377   2.395   1.278  0.00  0.00    -0.140 A 
ATOM      8  C   LIG    1       -2.466   3.104   0.801  0.00  0.00    +0.150 A 
ATOM      9  C   LIG    1       -2.321   4.417   0.397  0.00  0.00    -0.700 A 
ATOM     10  C   LIG    1       -1.087   5.036   0.477  0.00  0.00    +0.140 A 
ATOM     11  C   LIG    1        0.004   4.337   0.955  0.00  0.00    +0.010 A 
ATOM     12  C   LIG    1       -0.139   3.014   1.355  0.00  0.00    +0.220 A 
ATOM     13  O   LIG    1        2.385   3.820   0.993  0.00  0.00    -0.510 OA
ENDROOT
BRANCH   9  14
ATOM     14  S   LIG    1       -3.713   5.308  -0.214  0.00  0.00    +2.700 S 
ATOM     15  O   LIG    1       -3.486   6.674   0.103  0.00  0.00    -0.950 OA
ATOM     16  O   LIG    1       -4.865   4.593   0.209  0.00  0.00    -0.950 OA
BRANCH  14  17
ATOM     17  N   LIG    1       -3.676   5.199  -1.867  0.00  0.00    -1.110 NA
ATOM     18  H   LIG    1       -3.610   6.004  -2.404  0.00  0.00    +0.420 HD
BRANCH  17  19
ATOM     19  C   LIG    1       -3.745   3.888  -2.516  0.00  0.00    +0.200 C 
ATOM     20  C   LIG    1       -3.904   4.089  -4.024  0.00  0.00    +0.100 C 
ATOM     21  C   LIG    1       -2.500   4.136  -4.673  0.00  0.00    -0.300 C 
ATOM     22  S   LIG    1       -1.646   2.780  -3.771  0.00  0.00    +2.380 S 
ATOM     23  O   LIG    1       -2.065   1.525  -4.289  0.00  0.00    -0.930 OA
ATOM     24  O   LIG    1       -0.262   3.081  -3.657  0.00  0.00    -0.930 OA
ATOM     25  C   LIG    1       -4.966   3.135  -1.984  0.00  0.00    +0.070 C 
ATOM     26  C   LIG    1       -2.478   3.093  -2.168  0.00  0.00    -0.340 C 
ENDBRANCH  17  19
ENDBRANCH  14  17
ENDBRANCH   9  14
TORSDOF 3
