REMARK  Name = ZINCwl00000009p7.1
REMARK                            x       y       z     vdW  Elec       q    Type
REMARK                         _______ _______ _______ _____ _____    ______ ____
ROOT
ATOM      1  C   LIG    1       -4.093   7.069   0.243  0.00  0.00    -0.160 A 
ATOM      2  C   LIG    1       -4.133   7.871  -0.882  0.00  0.00    +0.040 A 
ATOM      3  C   LIG    1       -4.151   9.247  -0.751  0.00  0.00    +0.030 A 
ATOM      4  C   LIG    1       -4.128   9.821   0.506  0.00  0.00    +0.070 A 
ATOM      5  C   LIG    1       -4.088   9.020   1.632  0.00  0.00    -0.100 A 
ATOM      6  C   LIG    1       -4.075   7.644   1.500  0.00  0.00    +0.060 A 
ENDROOT
BRANCH   1   7
ATOM      7  C   LIG    1       -4.074   5.569   0.099  0.00  0.00    +0.320 C 
BRANCH   7  12
ATOM      8  C   LIG    1       -1.214   3.142   0.002  0.00  0.00    -0.010 C 
ATOM      9  C   LIG    1       -0.503   3.673  -1.246  0.00  0.00    +0.060 C 
ATOM     10  C   LIG    1       -0.596   5.202  -1.262  0.00  0.00    +0.070 C 
ATOM     11  C   LIG    1       -2.067   5.619  -1.211  0.00  0.00    +0.240 C 
ATOM     12  N   LIG    1       -2.683   5.103   0.017  0.00  0.00    -0.380 N 
ATOM     13  H   LIG    1       -2.169   5.439   0.817  0.00  0.00    +0.420 HD
ATOM     14  C   LIG    1       -2.662   3.635   0.006  0.00  0.00    +0.290 C 
BRANCH   8  18
ATOM     15  N   LIG    1       -0.020   0.975  -0.023  0.00  0.00    -0.840 N 
ATOM     16  H   LIG    1        0.814   1.471  -0.026  0.00  0.00    +0.410 HD
ATOM     17  H   LIG    1       -0.009   0.005  -0.032  0.00  0.00    +0.420 HD
ATOM     18  C   LIG    1       -1.196   1.635  -0.012  0.00  0.00    +0.530 C 
ATOM     19  O   LIG    1       -2.239   1.016  -0.014  0.00  0.00    -0.530 OA
ENDBRANCH   8  18
ENDBRANCH   7  12
ENDBRANCH   1   7
BRANCH   5  20
ATOM     20  C   LIG    1       -4.064   9.646   3.002  0.00  0.00    +0.330 C 
BRANCH  20  21
ATOM     21  N   LIG    1       -5.437   9.827   3.481  0.00  0.00    -0.750 N 
ATOM     22  H   LIG    1       -6.184   9.554   2.925  0.00  0.00    +0.400 HD
ATOM     23  C   LIG    1       -5.662  10.374   4.692  0.00  0.00    +0.710 C 
ATOM     24  N   LIG    1       -6.923  10.634   5.090  0.00  0.00    -0.630 N 
ATOM     25  C   LIG    1       -7.179  11.328   6.360  0.00  0.00    +0.300 C 
ATOM     26  C   LIG    1       -8.146  10.493   7.197  0.00  0.00    +0.030 C 
ATOM     27  C   LIG    1       -9.404  10.198   6.377  0.00  0.00    -0.010 C 
ATOM     28  C   LIG    1       -9.025   9.396   5.129  0.00  0.00    +0.060 C 
ATOM     29  C   LIG    1       -8.068  10.223   4.266  0.00  0.00    +0.270 C 
ATOM     30  O   LIG    1       -4.727  10.633   5.425  0.00  0.00    -0.580 OA
BRANCH  27  31
ATOM     31  C   LIG    1      -10.372   9.400   7.212  0.00  0.00    +0.520 C 
ATOM     32  N   LIG    1      -10.846   9.910   8.365  0.00  0.00    -0.700 N 
ATOM     33  H   LIG    1      -10.565  10.791   8.658  0.00  0.00    +0.400 HD
ATOM     34  O   LIG    1      -10.724   8.299   6.846  0.00  0.00    -0.540 OA
BRANCH  32  35
ATOM     35  C   LIG    1      -11.787   9.135   9.177  0.00  0.00    +0.210 C 
ATOM     36  C   LIG    1      -12.994   9.874   9.759  0.00  0.00    +0.010 C 
ATOM     37  C   LIG    1      -11.847   9.441  10.675  0.00  0.00    +0.020 C 
ENDBRANCH  32  35
ENDBRANCH  27  31
ENDBRANCH  20  21
ENDBRANCH   5  20
TORSDOF 7
