REMARK  Name = ZINCwl00000009p7.0
REMARK                            x       y       z     vdW  Elec       q    Type
REMARK                         _______ _______ _______ _____ _____    ______ ____
ROOT
ATOM      1  C   LIG    1       -1.348  -2.026   0.218  0.00  0.00    -0.160 A 
ATOM      2  C   LIG    1       -1.293  -2.627   1.461  0.00  0.00    +0.050 A 
ATOM      3  C   LIG    1       -1.269  -4.006   1.562  0.00  0.00    +0.030 A 
ATOM      4  C   LIG    1       -1.300  -4.783   0.419  0.00  0.00    +0.070 A 
ATOM      5  C   LIG    1       -1.355  -4.182  -0.824  0.00  0.00    -0.100 A 
ATOM      6  C   LIG    1       -1.385  -2.804  -0.925  0.00  0.00    +0.050 A 
ENDROOT
BRANCH   1   7
ATOM      7  C   LIG    1       -1.375  -0.523   0.108  0.00  0.00    +0.320 C 
BRANCH   7  12
ATOM      8  C   LIG    1        1.412   1.988   0.024  0.00  0.00    +0.010 C 
ATOM      9  C   LIG    1        2.125   1.498  -1.240  0.00  0.00    +0.070 C 
ATOM     10  C   LIG    1        2.076  -0.032  -1.280  0.00  0.00    +0.050 C 
ATOM     11  C   LIG    1        0.618  -0.492  -1.222  0.00  0.00    +0.240 C 
ATOM     12  N   LIG    1        0.000  -0.014   0.021  0.00  0.00    -0.380 N 
ATOM     13  H   LIG    1        0.532  -0.349   0.810  0.00  0.00    +0.430 HD
ATOM     14  C   LIG    1       -0.021   1.453   0.035  0.00  0.00    +0.290 C 
BRANCH   8  18
ATOM     15  N   LIG    1        3.432   1.833   1.444  0.00  0.00    -0.830 N 
ATOM     16  H   LIG    1        3.904   1.510   2.227  0.00  0.00    +0.420 HD
ATOM     17  H   LIG    1        3.886   2.405   0.805  0.00  0.00    +0.410 HD
ATOM     18  C   LIG    1        2.146   1.487   1.242  0.00  0.00    +0.520 C 
ATOM     19  O   LIG    1        1.578   0.772   2.040  0.00  0.00    -0.560 OA
ENDBRANCH   8  18
ENDBRANCH   7  12
ENDBRANCH   1   7
BRANCH   5  20
ATOM     20  C   LIG    1       -1.389  -5.029  -2.070  0.00  0.00    +0.340 C 
BRANCH  20  21
ATOM     21  N   LIG    1       -2.780  -5.324  -2.422  0.00  0.00    -0.750 N 
ATOM     22  H   LIG    1       -3.503  -4.981  -1.873  0.00  0.00    +0.400 HD
ATOM     23  C   LIG    1       -3.056  -6.073  -3.508  0.00  0.00    +0.710 C 
ATOM     24  N   LIG    1       -4.328  -6.429  -3.776  0.00  0.00    -0.630 N 
ATOM     25  C   LIG    1       -4.633  -7.333  -4.893  0.00  0.00    +0.300 C 
ATOM     26  C   LIG    1       -5.678  -6.676  -5.794  0.00  0.00    +0.030 C 
ATOM     27  C   LIG    1       -6.895  -6.280  -4.955  0.00  0.00    -0.010 C 
ATOM     28  C   LIG    1       -6.473  -5.270  -3.886  0.00  0.00    +0.060 C 
ATOM     29  C   LIG    1       -5.437  -5.915  -2.960  0.00  0.00    +0.270 C 
ATOM     30  O   LIG    1       -2.158  -6.427  -4.247  0.00  0.00    -0.580 OA
BRANCH  27  31
ATOM     31  C   LIG    1       -7.939  -5.660  -5.848  0.00  0.00    +0.520 C 
ATOM     32  N   LIG    1       -8.462  -6.370  -6.867  0.00  0.00    -0.700 N 
ATOM     33  H   LIG    1       -8.166  -7.279  -7.027  0.00  0.00    +0.400 HD
ATOM     34  O   LIG    1       -8.309  -4.522  -5.648  0.00  0.00    -0.540 OA
BRANCH  32  35
ATOM     35  C   LIG    1       -9.476  -5.767  -7.735  0.00  0.00    +0.210 C 
ATOM     36  C   LIG    1      -10.688  -6.624  -8.106  0.00  0.00    +0.010 C 
ATOM     37  C   LIG    1       -9.613  -6.322  -9.154  0.00  0.00    +0.020 C 
ENDBRANCH  32  35
ENDBRANCH  27  31
ENDBRANCH  20  21
ENDBRANCH   5  20
TORSDOF 7
