REMARK  Name = ZINCrD0000075dld.0
REMARK                            x       y       z     vdW  Elec       q    Type
REMARK                         _______ _______ _______ _____ _____    ______ ____
ROOT
ATOM      1  C   LIG    1        3.618  -5.905  -1.435  0.00  0.00    -0.010 C 
ATOM      2  C   LIG    1        2.264  -6.614  -1.510  0.00  0.00    +0.020 C 
ATOM      3  C   LIG    1        1.443  -6.272  -0.262  0.00  0.00    +0.280 C 
ATOM      4  N   LIG    1        1.353  -4.811  -0.141  0.00  0.00    -0.600 N 
ATOM      5  C   LIG    1        2.593  -4.023  -0.156  0.00  0.00    +0.260 C 
ATOM      6  C   LIG    1        0.155  -4.204  -0.024  0.00  0.00    +0.570 C 
ATOM      7  O   LIG    1       -0.859  -4.870   0.051  0.00  0.00    -0.530 OA
ATOM      8  C   LIG    1        3.401  -4.390  -1.399  0.00  0.00    +0.030 C 
ENDROOT
BRANCH   6   9
ATOM      9  C   LIG    1        0.075  -2.730   0.013  0.00  0.00    -0.210 A 
ATOM     10  C   LIG    1        0.887  -1.999   0.880  0.00  0.00    +0.350 A 
ATOM     11  N   LIG    1        0.822  -0.684   0.912  0.00  0.00    -0.530 NA
ATOM     12  C   LIG    1       -0.014  -0.008   0.140  0.00  0.00    +0.360 A 
ATOM     13  C   LIG    1       -0.857  -0.667  -0.752  0.00  0.00    -0.110 A 
ATOM     14 CL   LIG    1       -1.944   0.235  -1.762  0.00  0.00    -0.030 Cl
ATOM     15  C   LIG    1       -0.819  -2.045  -0.823  0.00  0.00    +0.180 A 
BRANCH  12  16
ATOM     16  O   LIG    1       -0.046   1.345   0.214  0.00  0.00    -0.280 OA
BRANCH  16  17
ATOM     17  C   LIG    1        0.841   1.965   1.147  0.00  0.00    +0.250 C 
BRANCH  17  18
ATOM     18  C   LIG    1        0.663   3.483   1.089  0.00  0.00    -0.040 C 
ATOM     19  C   LIG    1        1.859   4.318   0.625  0.00  0.00    +0.030 C 
ATOM     20  C   LIG    1        1.445   4.326   2.099  0.00  0.00    +0.030 C 
ENDBRANCH  17  18
ENDBRANCH  16  17
ENDBRANCH  12  16
ENDBRANCH   6   9
BRANCH   1  21
ATOM     21  C   LIG    1        4.454  -6.271  -2.663  0.00  0.00    +0.150 C 
BRANCH  21  27
ATOM     22  C   LIG    1        6.923  -7.604  -1.349  0.00  0.00    +0.330 C 
ATOM     23  N   LIG    1        6.896  -6.270  -1.953  0.00  0.00    -0.460 N 
ATOM     24  C   LIG    1        7.946  -5.396  -2.040  0.00  0.00    +0.110 A 
ATOM     25  C   LIG    1        7.486  -4.296  -2.666  0.00  0.00    +0.140 A 
ATOM     26  N   LIG    1        6.192  -4.495  -2.958  0.00  0.00    -0.490 NA
ATOM     27  C   LIG    1        5.830  -5.673  -2.530  0.00  0.00    +0.210 A 
ENDBRANCH  21  27
ENDBRANCH   1  21
TORSDOF 6
