REMARK  Name = ZINCrD0000072stt.0
REMARK                            x       y       z     vdW  Elec       q    Type
REMARK                         _______ _______ _______ _____ _____    ______ ____
ROOT
ATOM      1  O   LIG    1        0.682  -0.472  -1.193  0.00  0.00    -0.320 OA
ENDROOT
BRANCH   1   2
ATOM      2  C   LIG    1       -0.077  -0.680  -2.286  0.00  0.00    +0.520 C 
ATOM      3  O   LIG    1       -1.274  -0.476  -2.243  0.00  0.00    -0.500 OA
BRANCH   2   9
ATOM      4  N   LIG    1        2.034  -2.479  -7.144  0.00  0.00    -0.390 N 
ATOM      5  N   LIG    1        0.821  -2.498  -7.848  0.00  0.00    +0.000 NA
ATOM      6  N   LIG    1       -0.132  -2.113  -7.073  0.00  0.00    -0.200 NA
ATOM      7  C   LIG    1        0.356  -1.821  -5.844  0.00  0.00    -0.030 A 
ATOM      8  C   LIG    1       -0.240  -1.370  -4.663  0.00  0.00    +0.210 A 
ATOM      9  C   LIG    1        0.545  -1.157  -3.537  0.00  0.00    -0.140 A 
ATOM     10  C   LIG    1        1.928  -1.386  -3.585  0.00  0.00    +0.140 A 
ATOM     11  C   LIG    1        2.515  -1.831  -4.732  0.00  0.00    +0.010 A 
ATOM     12  C   LIG    1        1.745  -2.050  -5.872  0.00  0.00    +0.120 A 
BRANCH   4  14
ATOM     13  C   LIG    1        4.030  -1.609  -8.257  0.00  0.00    +0.050 C 
ATOM     14  C   LIG    1        3.353  -2.847  -7.664  0.00  0.00    +0.330 C 
ENDBRANCH   4  14
ENDBRANCH   2   9
ENDBRANCH   1   2
BRANCH   1  15
ATOM     15  C   LIG    1        0.002  -0.004   0.002  0.00  0.00    +0.200 C 
ATOM     16  C   LIG    1       -0.019   1.526   0.010  0.00  0.00    +0.070 C 
BRANCH  15  17
ATOM     17  C   LIG    1        0.731  -0.503   1.223  0.00  0.00    +0.510 C 
ATOM     18  N   LIG    1        0.223  -0.277   2.451  0.00  0.00    -0.650 N 
ATOM     19  H   LIG    1       -0.611   0.208   2.548  0.00  0.00    +0.420 HD
ATOM     20  O   LIG    1        1.774  -1.109   1.101  0.00  0.00    -0.440 OA
BRANCH  18  21
ATOM     21  C   LIG    1        0.898  -0.739   3.581  0.00  0.00    +0.380 A 
ATOM     22  N   LIG    1        2.033  -1.403   3.440  0.00  0.00    -0.450 NA
ATOM     23  C   LIG    1        2.706  -1.853   4.482  0.00  0.00    +0.340 A 
ATOM     24  C   LIG    1        2.239  -1.654   5.767  0.00  0.00    -0.110 A 
ATOM     25  C   LIG    1        1.048  -0.965   5.958  0.00  0.00    +0.130 A 
ATOM     26 CL   LIG    1        3.132  -2.257   7.128  0.00  0.00    -0.040 Cl
ATOM     27  C   LIG    1        0.368  -0.501   4.845  0.00  0.00    -0.120 A 
ATOM     28 CL   LIG    1       -1.126   0.366   5.024  0.00  0.00    -0.040 Cl
ENDBRANCH  18  21
ENDBRANCH  15  17
ENDBRANCH   1  15
TORSDOF 6
