REMARK  Name = ZINCqH00000389uM.0
REMARK                            x       y       z     vdW  Elec       q    Type
REMARK                         _______ _______ _______ _____ _____    ______ ____
ROOT
ATOM      1  N   LIG    1       -3.386  -1.780  -2.252  0.00  0.00    -0.680 N 
ATOM      2  H   LIG    1       -2.509  -2.107  -2.506  0.00  0.00    +0.410 HD
ATOM      3  C   LIG    1       -3.496  -0.723  -1.423  0.00  0.00    +0.710 C 
ATOM      4  N   LIG    1       -2.394  -0.194  -0.856  0.00  0.00    -0.730 N 
ATOM      5  H   LIG    1       -1.522  -0.573  -1.045  0.00  0.00    +0.400 HD
ATOM      6  O   LIG    1       -4.590  -0.247  -1.186  0.00  0.00    -0.560 OA
ENDROOT
BRANCH   1  11
ATOM      7  C   LIG    1       -7.936  -4.340  -4.354  0.00  0.00    +0.130 C 
ATOM      8  C   LIG    1       -6.732  -3.646  -3.772  0.00  0.00    +0.110 A 
ATOM      9  C   LIG    1       -6.853  -2.951  -2.583  0.00  0.00    -0.010 A 
ATOM     10  C   LIG    1       -5.740  -2.320  -2.051  0.00  0.00    +0.080 A 
ATOM     11  C   LIG    1       -4.537  -2.404  -2.747  0.00  0.00    +0.110 A 
ATOM     12  C   LIG    1       -4.494  -3.121  -3.935  0.00  0.00    +0.100 A 
ATOM     13  C   LIG    1       -3.198  -3.225  -4.697  0.00  0.00    +0.120 C 
ATOM     14  N   LIG    1       -5.576  -3.711  -4.404  0.00  0.00    -0.460 NA
ENDBRANCH   1  11
BRANCH   4  15
ATOM     15  C   LIG    1       -2.514   0.955   0.046  0.00  0.00    +0.350 C 
BRANCH  15  16
ATOM     16  C   LIG    1       -1.217   1.722   0.056  0.00  0.00    -0.090 A 
ATOM     17  C   LIG    1       -0.013   1.043   0.049  0.00  0.00    +0.020 A 
ATOM     18  C   LIG    1        1.179   1.744   0.054  0.00  0.00    +0.030 A 
ATOM     19  C   LIG    1        1.169   3.131   0.071  0.00  0.00    +0.050 A 
ATOM     20  O   LIG    1        2.350   3.807   0.079  0.00  0.00    -0.310 OA
ATOM     21  C   LIG    1        2.301   5.192  -0.279  0.00  0.00    +0.220 C 
ATOM     22  C   LIG    1        1.134   5.843   0.475  0.00  0.00    +0.220 C 
ATOM     23  O   LIG    1       -0.074   5.174   0.094  0.00  0.00    -0.310 OA
ATOM     24  C   LIG    1       -0.042   3.813   0.082  0.00  0.00    +0.060 A 
ATOM     25  C   LIG    1       -1.233   3.104   0.079  0.00  0.00    +0.040 A 
ENDBRANCH  15  16
BRANCH  15  26
ATOM     26  C   LIG    1       -2.826   0.462   1.460  0.00  0.00    -0.060 C 
ATOM     27  C   LIG    1       -2.752  -1.044   1.716  0.00  0.00    +0.010 C 
ATOM     28  C   LIG    1       -4.111  -0.344   1.660  0.00  0.00    +0.030 C 
ENDBRANCH  15  26
ENDBRANCH   4  15
TORSDOF 4
