REMARK  Name = ZINCpe00000z4e1O.0
REMARK                            x       y       z     vdW  Elec       q    Type
REMARK                         _______ _______ _______ _____ _____    ______ ____
ROOT
ATOM      1  C   LIG    1        0.096  -5.732   1.758  0.00  0.00    +0.260 C 
ATOM      2  C   LIG    1        1.549  -6.103   2.105  0.00  0.00    +0.010 C 
ATOM      3  C   LIG    1        1.793  -7.513   1.530  0.00  0.00    +0.010 C 
ATOM      4  C   LIG    1        0.749  -7.646   0.393  0.00  0.00    +0.030 C 
ATOM      5  C   LIG    1       -0.492  -6.930   0.984  0.00  0.00    -0.010 C 
ENDROOT
BRANCH   1   7
ATOM      6  C   LIG    1        0.061  -3.311   1.490  0.00  0.00    +0.600 C 
ATOM      7  N   LIG    1        0.072  -4.531   0.919  0.00  0.00    -0.730 N 
ATOM      8  H   LIG    1        0.063  -4.615  -0.047  0.00  0.00    +0.400 HD
ATOM      9  O   LIG    1        0.072  -3.206   2.701  0.00  0.00    -0.540 OA
BRANCH   6  12
ATOM     10  C   LIG    1        0.031  -0.338   2.523  0.00  0.00    +0.170 C 
ATOM     11  C   LIG    1        0.023  -0.794   1.087  0.00  0.00    +0.160 A 
ATOM     12  C   LIG    1        0.036  -2.102   0.646  0.00  0.00    -0.310 A 
ATOM     13  C   LIG    1        0.022  -2.066  -0.767  0.00  0.00    +0.270 A 
ATOM     14  N   LIG    1       -0.004  -0.816  -1.138  0.00  0.00    -0.290 NA
ATOM     15  N   LIG    1        0.002  -0.004   0.002  0.00  0.00    -0.360 N 
ATOM     16  C   LIG    1       -0.018   1.461   0.010  0.00  0.00    +0.360 C 
ENDBRANCH   6  12
ENDBRANCH   1   7
BRANCH   5  17
ATOM     17  C   LIG    1       -1.414  -6.443  -0.137  0.00  0.00    +0.330 C 
BRANCH  17  18
ATOM     18  N   LIG    1       -2.052  -7.594  -0.779  0.00  0.00    -0.290 N 
ATOM     19  C   LIG    1       -3.384  -7.778  -0.935  0.00  0.00    +0.140 A 
ATOM     20  C   LIG    1       -3.529  -8.962  -1.573  0.00  0.00    -0.020 A 
ATOM     21  N   LIG    1       -2.295  -9.439  -1.775  0.00  0.00    -0.260 NA
ATOM     22  N   LIG    1       -1.442  -8.602  -1.298  0.00  0.00    -0.080 NA
BRANCH  20  23
ATOM     23  C   LIG    1       -4.825  -9.615  -1.979  0.00  0.00    +0.130 C 
BRANCH  23  24
ATOM     24  C   LIG    1       -4.798  -9.916  -3.479  0.00  0.00    +0.030 C 
BRANCH  24  25
ATOM     25  C   LIG    1       -6.114 -10.579  -3.890  0.00  0.00    +0.180 C 
BRANCH  25  26
ATOM     26  O   LIG    1       -6.088 -10.860  -5.291  0.00  0.00    -0.580 OA
ATOM     27  H   LIG    1       -6.893 -11.281  -5.622  0.00  0.00    +0.380 HD
ENDBRANCH  25  26
ENDBRANCH  24  25
ENDBRANCH  23  24
ENDBRANCH  20  23
ENDBRANCH  17  18
ENDBRANCH   5  17
TORSDOF 8
