REMARK  Name = ZINCrD00000F5LsQ.1
REMARK                            x       y       z     vdW  Elec       q    Type
REMARK                         _______ _______ _______ _____ _____    ______ ____
ROOT
ATOM      1  C   LIG    1        1.417   2.032  -0.001  0.00  0.00    +0.190 C 
ENDROOT
BRANCH   1   2
ATOM      2  C   LIG    1        1.397   3.535  -0.116  0.00  0.00    +0.480 C 
ATOM      3  N   LIG    1        1.210   4.116  -1.318  0.00  0.00    -0.730 N 
ATOM      4  H   LIG    1        1.087   3.567  -2.108  0.00  0.00    +0.400 HD
ATOM      5  O   LIG    1        1.550   4.221   0.872  0.00  0.00    -0.530 OA
BRANCH   3   6
ATOM      6  C   LIG    1        1.190   5.576  -1.430  0.00  0.00    +0.280 C 
BRANCH   6   7
ATOM      7  C   LIG    1        0.963   5.973  -2.890  0.00  0.00    +0.020 C 
BRANCH   7   8
ATOM      8  C   LIG    1        0.943   7.498  -3.007  0.00  0.00    +0.140 C 
BRANCH   8   9
ATOM      9  C   LIG    1        0.715   7.894  -4.468  0.00  0.00    -0.040 C 
ATOM     10  N   LIG    1       -0.047   6.987  -5.330  0.00  0.00    -0.070 NA
ATOM     11  N   LIG    1        1.180   6.988  -5.521  0.00  0.00    -0.070 NA
BRANCH   9  12
ATOM     12  C   LIG    1        0.667   9.395  -4.761  0.00  0.00    +0.500 C 
ATOM     13  F   LIG    1       -0.376   9.979  -4.036  0.00  0.00    -0.160 F 
ATOM     14  F   LIG    1        0.454   9.596  -6.129  0.00  0.00    -0.170 F 
ATOM     15  F   LIG    1        1.881   9.982  -4.387  0.00  0.00    -0.160 F 
ENDBRANCH   9  12
ENDBRANCH   8   9
ENDBRANCH   7   8
ENDBRANCH   6   7
ENDBRANCH   3   6
ENDBRANCH   1   2
BRANCH   1  16
ATOM     16  N   LIG    1        2.091   1.646   1.246  0.00  0.00    -0.820 NA
ATOM     17  H   LIG    1        1.612   2.026   2.049  0.00  0.00    +0.360 HD
ATOM     18  H   LIG    1        3.060   1.928   1.236  0.00  0.00    +0.350 HD
ENDBRANCH   1  16
BRANCH   1  19
ATOM     19  C   LIG    1       -0.018   1.503   0.010  0.00  0.00    +0.110 C 
BRANCH  19  20
ATOM     20  C   LIG    1        0.002  -0.004   0.002  0.00  0.00    -0.110 A 
ATOM     21  C   LIG    1       -0.110  -0.690  -1.192  0.00  0.00    +0.080 A 
ATOM     22  C   LIG    1       -0.086  -2.073  -1.200  0.00  0.00    +0.010 A 
ATOM     23  C   LIG    1        0.040  -2.770  -0.014  0.00  0.00    +0.100 A 
ATOM     24  C   LIG    1        0.146  -2.086   1.183  0.00  0.00    -0.230 A 
ATOM     25  C   LIG    1        0.127  -0.702   1.192  0.00  0.00    +0.180 A 
ATOM     26  F   LIG    1        0.231  -0.032   2.360  0.00  0.00    -0.110 F 
BRANCH  24  27
ATOM     27  C   LIG    1        0.283  -2.846   2.476  0.00  0.00    +0.510 C 
ATOM     28  F   LIG    1       -0.787  -2.529   3.320  0.00  0.00    -0.170 F 
ATOM     29  F   LIG    1        1.486  -2.497   3.098  0.00  0.00    -0.170 F 
ATOM     30  F   LIG    1        0.277  -4.220   2.212  0.00  0.00    -0.170 F 
ENDBRANCH  24  27
ENDBRANCH  19  20
ENDBRANCH   1  19
TORSDOF 10
