REMARK  Name = ZINCrH00000No4wT.0
REMARK                            x       y       z     vdW  Elec       q    Type
REMARK                         _______ _______ _______ _____ _____    ______ ____
ROOT
ATOM      1  N   LIG    1        2.370  -2.555   1.325  0.00  0.00    -0.560 N 
ENDROOT
BRANCH   1   2
ATOM      2  C   LIG    1        2.602  -2.443   2.681  0.00  0.00    +0.340 A 
ATOM      3  N   LIG    1        3.587  -3.010   3.316  0.00  0.00    -0.550 NA
ATOM      4  C   LIG    1        3.665  -2.801   4.607  0.00  0.00    +0.200 A 
ATOM      5  C   LIG    1        2.684  -2.005   5.103  0.00  0.00    -0.250 A 
ATOM      6  C   LIG    1        4.751  -3.394   5.468  0.00  0.00    +0.170 C 
ATOM      7  S   LIG    1        1.642  -1.533   3.764  0.00  0.00    +0.170 S 
BRANCH   5   8
ATOM      8  C   LIG    1        2.528  -1.613   6.472  0.00  0.00    +0.290 C 
ATOM      9  N   LIG    1        2.404  -1.303   7.557  0.00  0.00    -0.410 NA
ENDBRANCH   5   8
ENDBRANCH   1   2
BRANCH   1  10
ATOM     10  C   LIG    1        1.226  -1.870   0.719  0.00  0.00    +0.290 C 
BRANCH  10  11
ATOM     11  C   LIG    1        0.006  -2.793   0.745  0.00  0.00    +0.060 C 
BRANCH  11  12
ATOM     12  C   LIG    1       -1.155  -2.125   0.005  0.00  0.00    -0.130 C 
ATOM     13  C   LIG    1       -2.574  -2.445   0.481  0.00  0.00    +0.040 C 
ATOM     14  C   LIG    1       -1.963  -1.070   0.764  0.00  0.00    +0.030 C 
BRANCH  12  15
ATOM     15  C   LIG    1       -0.945  -1.909  -1.495  0.00  0.00    +0.200 C 
BRANCH  15  17
ATOM     16  C   LIG    1       -0.617  -3.086  -3.557  0.00  0.00    +0.200 C 
ATOM     17  O   LIG    1       -0.818  -3.175  -2.145  0.00  0.00    -0.380 OA
ENDBRANCH  15  17
ENDBRANCH  12  15
ENDBRANCH  11  12
ENDBRANCH  10  11
ENDBRANCH   1  10
BRANCH   1  18
ATOM     18  C   LIG    1        3.267  -3.360   0.493  0.00  0.00    +0.380 C 
BRANCH  18  19
ATOM     19  C   LIG    1        4.384  -2.492  -0.026  0.00  0.00    -0.080 A 
ATOM     20  C   LIG    1        5.571  -2.436   0.636  0.00  0.00    +0.070 A 
ATOM     21  C   LIG    1        6.603  -1.622   0.129  0.00  0.00    +0.100 A 
ATOM     22  C   LIG    1        7.897  -1.358   0.558  0.00  0.00    -0.120 A 
ATOM     23  C   LIG    1        8.461  -0.464  -0.338  0.00  0.00    +0.270 A 
ATOM     24  N   LIG    1        7.580  -0.182  -1.272  0.00  0.00    -0.320 NA
ATOM     25  N   LIG    1        6.400  -0.890  -1.013  0.00  0.00    -0.270 N 
ATOM     26  C   LIG    1        5.201  -0.953  -1.663  0.00  0.00    +0.280 A 
ATOM     27  C   LIG    1        4.204  -1.732  -1.194  0.00  0.00    +0.000 A 
ENDBRANCH  18  19
ENDBRANCH   1  18
TORSDOF 9
