REMARK  Name = ZINCrH000004u6yK.0
REMARK                            x       y       z     vdW  Elec       q    Type
REMARK                         _______ _______ _______ _____ _____    ______ ____
ROOT
ATOM      1  C   LIG    1       -1.305   1.933   0.019  0.00  0.00    -0.080 A 
ATOM      2  C   LIG    1       -1.327   3.329   0.032  0.00  0.00    +0.030 A 
ATOM      3  C   LIG    1       -2.534   3.996   0.036  0.00  0.00    +0.120 A 
ATOM      4  C   LIG    1       -3.721   3.285   0.038  0.00  0.00    -0.620 A 
ATOM      5  C   LIG    1       -3.706   1.901   0.030  0.00  0.00    +0.130 A 
ATOM      6  C   LIG    1       -2.506   1.222   0.021  0.00  0.00    +0.070 A 
ENDROOT
BRANCH   1   8
ATOM      7  O   LIG    1        0.002  -0.004   0.002  0.00  0.00    -0.530 OA
ATOM      8  C   LIG    1       -0.014   1.211   0.009  0.00  0.00    +0.560 C 
ATOM      9  N   LIG    1        1.143   1.901   0.001  0.00  0.00    -0.720 N 
ATOM     10  H   LIG    1        1.130   2.871   0.007  0.00  0.00    +0.400 HD
BRANCH   9  11
ATOM     11  C   LIG    1        2.422   1.186  -0.015  0.00  0.00    +0.240 C 
ATOM     12  C   LIG    1        2.819   0.819   1.417  0.00  0.00    +0.000 C 
ATOM     13  C   LIG    1        3.915  -0.248   1.384  0.00  0.00    +0.010 C 
ATOM     14  C   LIG    1        3.559  -1.314   0.347  0.00  0.00    -0.000 C 
ATOM     15  C   LIG    1        4.559  -1.256  -0.809  0.00  0.00    +0.000 C 
ATOM     16  C   LIG    1        4.239  -0.053  -1.699  0.00  0.00    +0.000 C 
ATOM     17  C   LIG    1        4.712   1.230  -1.013  0.00  0.00    +0.030 C 
ATOM     18  C   LIG    1        3.499   2.081  -0.630  0.00  0.00    +0.010 C 
ENDBRANCH   9  11
ENDBRANCH   1   8
BRANCH   4  19
ATOM     19  S   LIG    1       -5.259   4.145   0.050  0.00  0.00    +2.630 S 
ATOM     20  O   LIG    1       -6.222   3.253  -0.494  0.00  0.00    -0.980 OA
ATOM     21  O   LIG    1       -5.002   5.435  -0.488  0.00  0.00    -0.980 OA
BRANCH  19  22
ATOM     22  N   LIG    1       -5.679   4.375   1.636  0.00  0.00    -0.990 NA
ATOM     23  C   LIG    1       -6.803   5.003   1.937  0.00  0.00    +0.380 A 
ATOM     24  C   LIG    1       -7.700   5.515   0.891  0.00  0.00    -0.150 A 
ATOM     25  C   LIG    1       -8.678   6.367   1.253  0.00  0.00    +0.350 A 
ATOM     26  N   LIG    1       -8.816   6.755   2.551  0.00  0.00    -0.600 N 
ATOM     27  H   LIG    1       -9.368   7.526   2.753  0.00  0.00    +0.430 HD
ATOM     28  C   LIG    1       -8.206   6.097   3.574  0.00  0.00    +0.310 A 
ATOM     29  C   LIG    1       -7.206   5.224   3.334  0.00  0.00    -0.030 A 
ENDBRANCH  19  22
ENDBRANCH   4  19
TORSDOF 4
