REMARK  Name = ZINCqH0000004RMF.0
REMARK                            x       y       z     vdW  Elec       q    Type
REMARK                         _______ _______ _______ _____ _____    ______ ____
ROOT
ATOM      1  N   LIG    1        1.222   2.139   2.705  0.00  0.00    -0.640 N 
ATOM      2  H   LIG    1        1.834   1.834   2.017  0.00  0.00    +0.420 HD
ATOM      3  C   LIG    1        1.684   2.437   3.935  0.00  0.00    +0.560 C 
ATOM      4  O   LIG    1        0.917   2.820   4.797  0.00  0.00    -0.450 OA
ENDROOT
BRANCH   3   5
ATOM      5  C   LIG    1        3.121   2.298   4.236  0.00  0.00    -0.100 A 
ATOM      6  C   LIG    1        4.002   1.852   3.246  0.00  0.00    +0.050 A 
ATOM      7  C   LIG    1        5.344   1.730   3.529  0.00  0.00    +0.090 A 
ATOM      8  C   LIG    1        5.820   2.037   4.797  0.00  0.00    -0.110 A 
ATOM      9  S   LIG    1        7.541   1.880   5.157  0.00  0.00    -0.060 S 
ATOM     10  C   LIG    1        7.779   3.177   6.408  0.00  0.00    +0.060 C 
ATOM     11  C   LIG    1        6.654   3.108   7.404  0.00  0.00    +0.530 C 
ATOM     12  N   LIG    1        5.405   2.781   7.080  0.00  0.00    -0.650 N 
ATOM     13  H   LIG    1        4.755   2.752   7.799  0.00  0.00    +0.420 HD
ATOM     14  O   LIG    1        6.898   3.364   8.564  0.00  0.00    -0.510 OA
ATOM     15  C   LIG    1        7.781   4.548   5.730  0.00  0.00    +0.090 C 
ATOM     16  C   LIG    1        4.948   2.477   5.799  0.00  0.00    +0.160 A 
ATOM     17  C   LIG    1        3.599   2.606   5.512  0.00  0.00    +0.080 A 
ENDBRANCH   3   5
BRANCH   1  26
ATOM     18  N   LIG    1       -0.704   1.998   1.216  0.00  0.00    -0.500 N 
ATOM     19  C   LIG    1       -2.058   2.258   1.341  0.00  0.00    +0.050 A 
ATOM     20  C   LIG    1       -3.140   2.165   0.479  0.00  0.00    +0.010 A 
ATOM     21  C   LIG    1       -4.402   2.501   0.922  0.00  0.00    +0.030 A 
ATOM     22  C   LIG    1       -4.599   2.926   2.227  0.00  0.00    +0.010 A 
ATOM     23  C   LIG    1       -3.538   3.019   3.099  0.00  0.00    +0.060 A 
ATOM     24  C   LIG    1       -2.253   2.683   2.667  0.00  0.00    +0.060 A 
ATOM     25  N   LIG    1       -1.037   2.672   3.272  0.00  0.00    -0.470 NA
ATOM     26  C   LIG    1       -0.126   2.270   2.422  0.00  0.00    +0.500 A 
BRANCH  18  28
ATOM     27  C   LIG    1        0.002  -0.004   0.002  0.00  0.00    +0.040 C 
ATOM     28  C   LIG    1       -0.019   1.526   0.010  0.00  0.00    +0.290 C 
ENDBRANCH  18  28
ENDBRANCH   1  26
TORSDOF 3
