REMARK  Name = ZINCpe000000Y3oF.0
REMARK                            x       y       z     vdW  Elec       q    Type
REMARK                         _______ _______ _______ _____ _____    ______ ____
ROOT
ATOM      1  N   LIG    1       -4.940  -0.174  -2.765  0.00  0.00    -0.700 N 
ATOM      2  H   LIG    1       -4.312  -0.069  -3.498  0.00  0.00    +0.420 HD
ATOM      3  C   LIG    1       -6.264  -0.203  -3.012  0.00  0.00    +0.510 C 
ATOM      4  O   LIG    1       -7.049  -0.334  -2.095  0.00  0.00    -0.500 OA
ENDROOT
BRANCH   3   5
ATOM      5  C   LIG    1       -6.767  -0.072  -4.413  0.00  0.00    +0.510 C 
ATOM      6  N   LIG    1       -8.091   0.029  -4.648  0.00  0.00    -0.570 N 
ATOM      7  C   LIG    1       -9.040   0.169  -3.535  0.00  0.00    +0.270 C 
ATOM      8  C   LIG    1      -10.111  -0.919  -3.661  0.00  0.00    +0.030 C 
ATOM      9  C   LIG    1      -10.752  -0.840  -5.048  0.00  0.00    +0.030 C 
ATOM     10  C   LIG    1       -9.688  -1.084  -6.119  0.00  0.00    +0.150 C 
ATOM     11  C   LIG    1       -8.611   0.008  -6.021  0.00  0.00    +0.260 C 
ATOM     12  O   LIG    1       -5.984  -0.058  -5.340  0.00  0.00    -0.520 OA
BRANCH  10  13
ATOM     13  O   LIG    1      -10.293  -1.040  -7.413  0.00  0.00    -0.560 OA
ATOM     14  H   LIG    1       -9.675  -1.187  -8.142  0.00  0.00    +0.380 HD
ENDBRANCH  10  13
ENDBRANCH   3   5
BRANCH   1  15
ATOM     15  C   LIG    1       -4.447  -0.301  -1.392  0.00  0.00    +0.280 C 
BRANCH  15  16
ATOM     16  C   LIG    1       -2.918  -0.238  -1.390  0.00  0.00    +0.010 C 
BRANCH  16  17
ATOM     17  C   LIG    1       -2.404  -0.371   0.044  0.00  0.00    +0.320 C 
BRANCH  17  27
ATOM     18  C   LIG    1       -0.513  -2.804  -0.224  0.00  0.00    +0.190 C 
ATOM     19  C   LIG    1       -0.089  -1.365  -0.071  0.00  0.00    +0.280 A 
ATOM     20  N   LIG    1        1.144  -0.952  -0.031  0.00  0.00    -0.490 NA
ATOM     21  C   LIG    1        1.169   0.398   0.115  0.00  0.00    +0.050 A 
ATOM     22  C   LIG    1        2.197   1.338   0.212  0.00  0.00    +0.070 A 
ATOM     23  C   LIG    1        1.897   2.663   0.356  0.00  0.00    +0.000 A 
ATOM     24  C   LIG    1        0.578   3.088   0.406  0.00  0.00    +0.030 A 
ATOM     25  C   LIG    1       -0.454   2.178   0.312  0.00  0.00    +0.010 A 
ATOM     26  C   LIG    1       -0.168   0.828   0.166  0.00  0.00    +0.050 A 
ATOM     27  N   LIG    1       -0.940  -0.310   0.046  0.00  0.00    -0.490 N 
ENDBRANCH  17  27
ENDBRANCH  16  17
ENDBRANCH  15  16
ENDBRANCH   1  15
TORSDOF 6
