REMARK  Name = ZINCpk00000earYR.0
REMARK                            x       y       z     vdW  Elec       q    Type
REMARK                         _______ _______ _______ _____ _____    ______ ____
ROOT
ATOM      1  N   LIG    1        2.138   1.472   1.171  0.00  0.00    -0.490 N 
ATOM      2  C   LIG    1        1.419   1.992  -0.001  0.00  0.00    +0.200 C 
ATOM      3  C   LIG    1       -0.018   1.465   0.010  0.00  0.00    +0.200 C 
ATOM      4  N   LIG    1        0.002  -0.004   0.002  0.00  0.00    -0.520 NA
ATOM      5  C   LIG    1        0.721  -0.525   1.173  0.00  0.00    +0.190 C 
ATOM      6  C   LIG    1        2.158   0.003   1.162  0.00  0.00    +0.210 C 
ENDROOT
BRANCH   1  10
ATOM      7  C   LIG    1        6.005   3.017   1.358  0.00  0.00    +0.100 A 
ATOM      8  C   LIG    1        4.916   3.876   1.313  0.00  0.00    +0.000 A 
ATOM      9  C   LIG    1        3.635   3.365   1.251  0.00  0.00    +0.030 A 
ATOM     10  C   LIG    1        3.436   1.991   1.234  0.00  0.00    +0.070 A 
ATOM     11  C   LIG    1        4.526   1.132   1.284  0.00  0.00    +0.000 A 
ATOM     12  C   LIG    1        5.807   1.645   1.341  0.00  0.00    -0.050 A 
BRANCH   7  14
ATOM     13  C   LIG    1        8.340   2.579   1.463  0.00  0.00    +0.230 C 
ATOM     14  O   LIG    1        7.266   3.522   1.419  0.00  0.00    -0.320 OA
ENDBRANCH   7  14
ENDBRANCH   1  10
BRANCH   4  15
ATOM     15  C   LIG    1       -1.361  -0.549  -0.064  0.00  0.00    +0.220 C 
BRANCH  15  16
ATOM     16  C   LIG    1       -1.297  -2.033  -0.317  0.00  0.00    +0.520 C 
ATOM     17  N   LIG    1       -2.434  -2.749  -0.417  0.00  0.00    -0.690 N 
ATOM     18  H   LIG    1       -3.294  -2.309  -0.326  0.00  0.00    +0.410 HD
ATOM     19  C   LIG    1       -2.377  -4.077  -0.643  0.00  0.00    +0.690 C 
ATOM     20  N   LIG    1       -3.514  -4.793  -0.743  0.00  0.00    -0.730 N 
ATOM     21  H   LIG    1       -4.374  -4.353  -0.652  0.00  0.00    +0.400 HD
ATOM     22  O   LIG    1       -1.300  -4.628  -0.758  0.00  0.00    -0.520 OA
ATOM     23  O   LIG    1       -0.222  -2.583  -0.431  0.00  0.00    -0.450 OA
BRANCH  20  24
ATOM     24  C   LIG    1       -3.452  -6.236  -0.989  0.00  0.00    +0.180 C 
ATOM     25  C   LIG    1       -2.734  -6.496  -2.314  0.00  0.00    +0.030 C 
ATOM     26  C   LIG    1       -4.871  -6.803  -1.058  0.00  0.00    +0.040 C 
ATOM     27  C   LIG    1       -2.686  -6.914   0.148  0.00  0.00    +0.030 C 
ENDBRANCH  20  24
ENDBRANCH  15  16
ENDBRANCH   4  15
TORSDOF 5
