REMARK  Name = ZINCpk00000xJ2ij.0
REMARK                            x       y       z     vdW  Elec       q    Type
REMARK                         _______ _______ _______ _____ _____    ______ ____
ROOT
ATOM      1  N   LIG    1        0.165  -2.871   0.045  0.00  0.00    -0.720 N 
ATOM      2  H   LIG    1       -0.645  -2.342   0.117  0.00  0.00    +0.410 HD
ATOM      3  C   LIG    1        1.370  -2.272   0.112  0.00  0.00    +0.560 C 
ATOM      4  O   LIG    1        2.384  -2.943   0.120  0.00  0.00    -0.490 OA
ENDROOT
BRANCH   1   5
ATOM      5  C   LIG    1        0.077  -4.322  -0.135  0.00  0.00    +0.170 C 
ATOM      6  C   LIG    1       -1.393  -4.734  -0.268  0.00  0.00    +0.080 C 
ATOM      7  C   LIG    1       -2.109  -4.419   1.050  0.00  0.00    +0.080 C 
ATOM      8  C   LIG    1       -1.389  -5.107   2.180  0.00  0.00    +0.520 C 
ATOM      9  N   LIG    1       -0.071  -5.352   2.119  0.00  0.00    -0.670 N 
ATOM     10  H   LIG    1        0.356  -5.790   2.872  0.00  0.00    +0.410 HD
ATOM     11  O   LIG    1       -2.012  -5.445   3.163  0.00  0.00    -0.500 OA
ATOM     12  C   LIG    1        0.678  -5.015   1.059  0.00  0.00    +0.510 C 
ATOM     13  O   LIG    1        1.863  -5.273   1.063  0.00  0.00    -0.450 OA
BRANCH   5  15
ATOM     14  C   LIG    1        0.312  -3.928  -2.591  0.00  0.00    +0.030 C 
ATOM     15  C   LIG    1        0.840  -4.727  -1.398  0.00  0.00    +0.050 C 
ENDBRANCH   5  15
ENDBRANCH   1   5
BRANCH   3  16
ATOM     16  C   LIG    1        1.460  -0.798   0.175  0.00  0.00    -0.190 A 
ATOM     17  C   LIG    1        2.708  -0.165   0.244  0.00  0.00    +0.140 A 
ATOM     18  C   LIG    1        2.742   1.215   0.300  0.00  0.00    -0.010 A 
ATOM     19  C   LIG    1        1.543   1.926   0.287  0.00  0.00    +0.190 A 
ATOM     20  N   LIG    1        0.377   1.294   0.222  0.00  0.00    -0.470 NA
ATOM     21  C   LIG    1        0.302  -0.017   0.166  0.00  0.00    +0.300 A 
BRANCH  19  22
ATOM     22  C   LIG    1        1.570   3.408   0.348  0.00  0.00    -0.010 A 
ATOM     23  C   LIG    1        2.781   4.101   0.423  0.00  0.00    -0.010 A 
ATOM     24  C   LIG    1        2.761   5.481   0.473  0.00  0.00    +0.260 A 
ATOM     25  N   LIG    1        1.620   6.142   0.460  0.00  0.00    -0.480 NA
ATOM     26  C   LIG    1        0.456   5.526   0.394  0.00  0.00    +0.260 A 
ATOM     27  C   LIG    1        0.385   4.149   0.336  0.00  0.00    +0.020 A 
ENDBRANCH  19  22
ENDBRANCH   3  16
TORSDOF 4
