REMARK  Name = ZINCrH00000No57g.0
REMARK                            x       y       z     vdW  Elec       q    Type
REMARK                         _______ _______ _______ _____ _____    ______ ____
ROOT
ATOM      1  C   LIG    1        0.916  -0.759   3.637  0.00  0.00    +0.280 C 
ENDROOT
BRANCH   1   2
ATOM      2  C   LIG    1       -0.047  -0.980   4.774  0.00  0.00    -0.090 A 
ATOM      3  C   LIG    1        0.022  -2.132   5.497  0.00  0.00    +0.050 A 
ATOM      4  C   LIG    1       -0.874  -2.341   6.559  0.00  0.00    -0.050 A 
ATOM      5  C   LIG    1       -0.833  -3.517   7.327  0.00  0.00    +0.030 A 
ATOM      6  C   LIG    1       -1.717  -3.685   8.348  0.00  0.00    +0.020 A 
ATOM      7  C   LIG    1       -2.665  -2.708   8.645  0.00  0.00    +0.010 A 
ATOM      8  C   LIG    1       -2.735  -1.557   7.922  0.00  0.00    +0.020 A 
ATOM      9  C   LIG    1       -1.839  -1.347   6.860  0.00  0.00    -0.050 A 
ATOM     10  C   LIG    1       -1.879  -0.171   6.092  0.00  0.00    +0.030 A 
ATOM     11  C   LIG    1       -0.992  -0.000   5.075  0.00  0.00    +0.010 A 
ENDBRANCH   1   2
BRANCH   1  13
ATOM     12  C   LIG    1        0.394  -0.593   1.262  0.00  0.00    +0.520 C 
ATOM     13  N   LIG    1        0.211  -0.132   2.516  0.00  0.00    -0.720 N 
ATOM     14  H   LIG    1       -0.386   0.616   2.675  0.00  0.00    +0.400 HD
ATOM     15  O   LIG    1        1.208  -1.466   1.050  0.00  0.00    -0.540 OA
BRANCH  12  16
ATOM     16  C   LIG    1       -0.414  -0.023   0.125  0.00  0.00    -0.010 C 
ATOM     17  C   LIG    1       -0.144   1.478   0.009  0.00  0.00    +0.040 C 
BRANCH  16  18
ATOM     18  C   LIG    1       -0.016  -0.715  -1.180  0.00  0.00    +0.050 C 
BRANCH  18  19
ATOM     19  C   LIG    1       -0.921  -0.227  -2.313  0.00  0.00    +0.020 C 
BRANCH  19  20
ATOM     20  C   LIG    1       -0.523  -0.919  -3.618  0.00  0.00    +0.170 C 
BRANCH  20  22
ATOM     21  C   LIG    1       -2.089  -0.075  -5.577  0.00  0.00    +0.010 C 
ATOM     22  C   LIG    1       -1.394  -0.450  -4.708  0.00  0.00    -0.190 C 
ENDBRANCH  20  22
ENDBRANCH  19  20
ENDBRANCH  18  19
ENDBRANCH  16  18
ENDBRANCH  12  16
ENDBRANCH   1  13
BRANCH   1  23
ATOM     23  C   LIG    1        2.052   0.155   4.101  0.00  0.00    +0.270 C 
BRANCH  23  24
ATOM     24  N   LIG    1        2.911   0.484   2.960  0.00  0.00    -0.720 N 
ATOM     25  H   LIG    1        2.754   0.067   2.099  0.00  0.00    +0.410 HD
ATOM     26  C   LIG    1        3.920   1.365   3.108  0.00  0.00    +0.540 C 
ATOM     27  O   LIG    1        4.117   1.888   4.189  0.00  0.00    -0.540 OA
BRANCH  26  28
ATOM     28  C   LIG    1        4.783   1.695   1.964  0.00  0.00    -0.090 C 
ATOM     29  C   LIG    1        5.778   2.565   2.110  0.00  0.00    +0.140 C 
ENDBRANCH  26  28
ENDBRANCH  23  24
ENDBRANCH   1  23
TORSDOF 10
