REMARK  Name = ZINCrg000000ou6R.0
REMARK                            x       y       z     vdW  Elec       q    Type
REMARK                         _______ _______ _______ _____ _____    ______ ____
ROOT
ATOM      1  N   LIG    1       -3.179  -2.330  -1.254  0.00  0.00    -0.520 NA
ATOM      2  C   LIG    1       -2.478  -2.765  -2.470  0.00  0.00    +0.160 C 
ATOM      3  C   LIG    1       -1.270  -3.624  -2.080  0.00  0.00    +0.310 C 
ATOM      4  N   LIG    1       -1.734  -4.713  -1.206  0.00  0.00    -0.600 N 
ATOM      5  C   LIG    1       -2.560  -4.365  -0.040  0.00  0.00    +0.300 C 
ATOM      6  C   LIG    1       -1.411  -5.995  -1.468  0.00  0.00    +0.590 C 
ATOM      7  O   LIG    1       -1.720  -6.872  -0.683  0.00  0.00    -0.530 OA
ATOM      8  C   LIG    1       -3.717  -3.477  -0.510  0.00  0.00    +0.170 C 
ENDROOT
BRANCH   6   9
ATOM      9  C   LIG    1       -0.686  -6.333  -2.702  0.00  0.00    -0.250 A 
ATOM     10  C   LIG    1       -1.088  -7.412  -3.487  0.00  0.00    +0.240 A 
ATOM     11  C   LIG    1       -0.378  -7.700  -4.652  0.00  0.00    -0.300 A 
ATOM     12  C   LIG    1        0.692  -6.942  -5.004  0.00  0.00    +0.420 A 
ATOM     13  N   LIG    1        1.091  -5.895  -4.243  0.00  0.00    -0.590 N 
ATOM     14  H   LIG    1        1.859  -5.371  -4.518  0.00  0.00    +0.430 HD
ATOM     15  C   LIG    1        0.439  -5.571  -3.111  0.00  0.00    +0.530 A 
ATOM     16  O   LIG    1        0.813  -4.625  -2.439  0.00  0.00    -0.500 OA
BRANCH  11  17
ATOM     17  C   LIG    1       -0.796  -8.859  -5.521  0.00  0.00    +0.530 C 
ATOM     18  F   LIG    1       -2.106  -8.657  -5.968  0.00  0.00    -0.170 F 
ATOM     19  F   LIG    1       -0.734 -10.044  -4.779  0.00  0.00    -0.170 F 
ATOM     20  F   LIG    1        0.063  -8.951  -6.621  0.00  0.00    -0.180 F 
ENDBRANCH  11  17
ENDBRANCH   6   9
BRANCH   1  21
ATOM     21  C   LIG    1       -4.239  -1.365  -1.574  0.00  0.00    +0.210 C 
BRANCH  21  24
ATOM     22  N   LIG    1       -4.408   0.932  -2.476  0.00  0.00    -0.730 N 
ATOM     23  H   LIG    1       -5.372   0.860  -2.394  0.00  0.00    +0.400 HD
ATOM     24  C   LIG    1       -3.622  -0.100  -2.113  0.00  0.00    +0.510 C 
ATOM     25  O   LIG    1       -2.417  -0.011  -2.219  0.00  0.00    -0.520 OA
BRANCH  22  26
ATOM     26  C   LIG    1       -3.808   2.162  -2.999  0.00  0.00    +0.230 C 
ATOM     27  C   LIG    1       -3.563   2.010  -4.502  0.00  0.00    +0.030 C 
BRANCH  26  29
ATOM     28  C   LIG    1       -4.902   3.567  -1.247  0.00  0.00    +0.020 C 
ATOM     29  C   LIG    1       -4.756   3.337  -2.753  0.00  0.00    +0.020 C 
ENDBRANCH  26  29
ENDBRANCH  22  26
ENDBRANCH  21  24
ENDBRANCH   1  21
TORSDOF 6
