REMARK  Name = ZINCrg000000r0Y6.1
REMARK                            x       y       z     vdW  Elec       q    Type
REMARK                         _______ _______ _______ _____ _____    ______ ____
ROOT
ATOM      1  N   LIG    1       -4.217  -0.262   9.985  0.00  0.00    -0.470 N 
ATOM      2  C   LIG    1       -4.310   1.196  10.139  0.00  0.00    +0.210 C 
ATOM      3  C   LIG    1       -4.992   1.794   8.905  0.00  0.00    +0.290 C 
ATOM      4  N   LIG    1       -4.270   1.341   7.706  0.00  0.00    -0.620 N 
ATOM      5  C   LIG    1       -4.022  -0.100   7.547  0.00  0.00    +0.290 C 
ATOM      6  C   LIG    1       -3.851   2.222   6.776  0.00  0.00    +0.520 C 
ATOM      7  O   LIG    1       -4.068   3.406   6.922  0.00  0.00    -0.530 OA
ATOM      8  C   LIG    1       -3.373  -0.623   8.838  0.00  0.00    +0.190 C 
ENDROOT
BRANCH   1  13
ATOM      9  C   LIG    1       -3.131  -2.818  12.378  0.00  0.00    +0.190 A 
ATOM     10  C   LIG    1       -2.841  -1.988  13.460  0.00  0.00    -0.150 A 
ATOM     11  C   LIG    1       -3.022  -0.627  13.332  0.00  0.00    +0.330 A 
ATOM     12  N   LIG    1       -3.465  -0.105  12.204  0.00  0.00    -0.540 NA
ATOM     13  C   LIG    1       -3.753  -0.858  11.152  0.00  0.00    +0.340 A 
ATOM     14  C   LIG    1       -3.601  -2.237  11.206  0.00  0.00    -0.080 A 
BRANCH   9  16
ATOM     15  C   LIG    1       -2.483  -4.674  13.713  0.00  0.00    +0.250 C 
ATOM     16  O   LIG    1       -2.965  -4.163  12.469  0.00  0.00    -0.310 OA
ENDBRANCH   9  16
ENDBRANCH   1  13
BRANCH   6  17
ATOM     17  C   LIG    1       -3.113   1.736   5.556  0.00  0.00    +0.050 C 
BRANCH  17  18
ATOM     18  C   LIG    1       -2.753   2.929   4.668  0.00  0.00    +0.140 C 
BRANCH  18  19
ATOM     19  C   LIG    1       -2.015   2.442   3.448  0.00  0.00    -0.270 A 
ATOM     20  C   LIG    1       -2.679   2.198   2.284  0.00  0.00    +0.190 A 
ATOM     21  N   LIG    1       -2.008   1.772   1.211  0.00  0.00    -0.540 NA
ATOM     22  C   LIG    1       -0.718   1.572   1.248  0.00  0.00    +0.400 A 
ATOM     23  N   LIG    1       -0.003   1.795   2.368  0.00  0.00    -0.630 N 
ATOM     24  H   LIG    1        0.955   1.642   2.371  0.00  0.00    +0.420 HD
ATOM     25  C   LIG    1       -0.013   1.086   0.008  0.00  0.00    +0.190 C 
ATOM     26  C   LIG    1       -4.169   2.413   2.207  0.00  0.00    +0.140 C 
ATOM     27  C   LIG    1       -0.621   2.231   3.486  0.00  0.00    +0.530 A 
ATOM     28  O   LIG    1        0.012   2.437   4.508  0.00  0.00    -0.530 OA
ENDBRANCH  18  19
ENDBRANCH  17  18
ENDBRANCH   6  17
TORSDOF 5
