REMARK  Name = ZINCrH000004te2c.0
REMARK                            x       y       z     vdW  Elec       q    Type
REMARK                         _______ _______ _______ _____ _____    ______ ____
ROOT
ATOM      1  C   LIG    1       -2.441   0.058   0.072  0.00  0.00    +0.410 C 
ENDROOT
BRANCH   1   4
ATOM      2  C   LIG    1       -5.165  -2.273  -0.110  0.00  0.00    +0.220 A 
ATOM      3  N   LIG    1       -4.281  -1.609   0.615  0.00  0.00    -0.450 NA
ATOM      4  C   LIG    1       -3.575  -0.878  -0.261  0.00  0.00    +0.160 A 
ATOM      5  N   LIG    1       -4.049  -1.117  -1.448  0.00  0.00    -0.360 NA
ATOM      6  O   LIG    1       -4.958  -1.918  -1.388  0.00  0.00    +0.100 OA
BRANCH   2  11
ATOM      7  F   LIG    1       -9.018  -5.870   1.779  0.00  0.00    -0.120 F 
ATOM      8  C   LIG    1       -8.088  -5.001   1.324  0.00  0.00    +0.170 A 
ATOM      9  C   LIG    1       -7.998  -4.734  -0.033  0.00  0.00    -0.010 A 
ATOM     10  C   LIG    1       -7.051  -3.850  -0.504  0.00  0.00    +0.140 A 
ATOM     11  C   LIG    1       -6.181  -3.221   0.389  0.00  0.00    -0.080 A 
ATOM     12  C   LIG    1       -6.272  -3.497   1.757  0.00  0.00    +0.190 A 
ATOM     13  F   LIG    1       -5.431  -2.897   2.627  0.00  0.00    -0.100 F 
ATOM     14  C   LIG    1       -7.229  -4.381   2.217  0.00  0.00    -0.040 A 
ENDBRANCH   2  11
ENDBRANCH   1   4
BRANCH   1  15
ATOM     15  N   LIG    1       -1.174  -0.678   0.037  0.00  0.00    -0.740 N 
ATOM     16  H   LIG    1       -1.169  -1.624  -0.179  0.00  0.00    +0.410 HD
BRANCH  15  17
ATOM     17  C   LIG    1        0.027  -0.016   0.314  0.00  0.00    +0.200 A 
ATOM     18  C   LIG    1        0.021   1.336   0.622  0.00  0.00    -0.040 A 
ATOM     19  C   LIG    1        1.210   1.987   0.895  0.00  0.00    +0.030 A 
ATOM     20  C   LIG    1        2.405   1.294   0.862  0.00  0.00    -0.020 A 
ATOM     21  C   LIG    1        2.419  -0.054   0.555  0.00  0.00    -0.030 A 
ATOM     22  C   LIG    1        1.233  -0.714   0.281  0.00  0.00    +0.060 A 
BRANCH  22  23
ATOM     23  O   LIG    1        1.245  -2.040  -0.021  0.00  0.00    -0.310 OA
BRANCH  23  24
ATOM     24  C   LIG    1        2.524  -2.665  -0.148  0.00  0.00    +0.150 C 
ATOM     25  C   LIG    1        2.403  -3.991  -0.939  0.00  0.00    +0.030 C 
ATOM     26  C   LIG    1        3.359  -4.925  -0.150  0.00  0.00    +0.220 C 
ATOM     27  O   LIG    1        3.164  -4.527   1.224  0.00  0.00    -0.370 OA
ATOM     28  C   LIG    1        3.054  -3.093   1.234  0.00  0.00    +0.190 C 
ENDBRANCH  23  24
ENDBRANCH  22  23
ENDBRANCH  15  17
ENDBRANCH   1  15
TORSDOF 6
