REMARK  Name = ZINCkj00000y7JOI.0
REMARK                            x       y       z     vdW  Elec       q    Type
REMARK                         _______ _______ _______ _____ _____    ______ ____
ROOT
ATOM      1  C   LIG    1        0.041   0.972   2.456  0.00  0.00    +0.200 C 
ENDROOT
BRANCH   1   2
ATOM      2  O   LIG    1        1.343   1.559   2.507  0.00  0.00    -0.540 OA
ATOM      3  H   LIG    1        1.337   2.525   2.553  0.00  0.00    +0.390 HD
ENDBRANCH   1   2
BRANCH   1   4
ATOM      4  C   LIG    1       -0.743   1.359   3.711  0.00  0.00    +0.050 C 
BRANCH   4   5
ATOM      5  C   LIG    1       -0.070   0.746   4.941  0.00  0.00    +0.140 C 
ATOM      6  C   LIG    1        0.062  -0.768   4.752  0.00  0.00    -0.030 C 
ATOM      7  C   LIG    1        0.661  -1.382   6.020  0.00  0.00    +0.200 C 
ATOM      8  O   LIG    1       -0.164  -1.061   7.142  0.00  0.00    -0.380 OA
ATOM      9  C   LIG    1       -0.284   0.341   7.395  0.00  0.00    +0.200 C 
ATOM     10  C   LIG    1       -0.923   1.024   6.183  0.00  0.00    -0.020 C 
BRANCH   5  11
ATOM     11  O   LIG    1        1.226   1.322   5.114  0.00  0.00    -0.550 OA
ATOM     12  H   LIG    1        1.711   0.978   5.877  0.00  0.00    +0.380 HD
ENDBRANCH   5  11
ENDBRANCH   4   5
ENDBRANCH   1   4
BRANCH   1  13
ATOM     13  C   LIG    1       -0.699   1.479   1.216  0.00  0.00    +0.230 C 
BRANCH  13  14
ATOM     14  N   LIG    1       -0.012   1.005   0.008  0.00  0.00    -0.510 N 
ATOM     15  H   LIG    1        0.935   1.354   0.000  0.00  0.00    +0.430 HD
ATOM     16  H   LIG    1        0.002  -0.004   0.002  0.00  0.00    +0.430 HD
BRANCH  14  17
ATOM     17  C   LIG    1       -0.722   1.492  -1.183  0.00  0.00    +0.280 C 
BRANCH  17  18
ATOM     18  C   LIG    1       -0.006   0.998  -2.441  0.00  0.00    -0.010 C 
ATOM     19  C   LIG    1       -0.192  -0.531  -2.607  0.00  0.00    +0.040 C 
ATOM     20  C   LIG    1        0.024  -0.739  -4.127  0.00  0.00    +0.060 C 
ATOM     21  C   LIG    1       -0.639   0.493  -4.775  0.00  0.00    +0.280 C 
ATOM     22  F   LIG    1        0.106   0.913  -5.883  0.00  0.00    -0.190 F 
ATOM     23  F   LIG    1       -1.946   0.183  -5.167  0.00  0.00    -0.190 F 
ATOM     24  C   LIG    1       -0.659   1.598  -3.704  0.00  0.00    +0.060 C 
ENDBRANCH  17  18
ENDBRANCH  14  17
ENDBRANCH  13  14
ENDBRANCH   1  13
TORSDOF 8
