REMARK  Name = ZINCvU0000000A3t.0
REMARK                            x       y       z     vdW  Elec       q    Type
REMARK                         _______ _______ _______ _____ _____    ______ ____
ROOT
ATOM      1  C   LIG    1       -9.415   0.521   1.542  0.00  0.00    +0.280 A 
ATOM      2  N   LIG    1       -8.580  -0.355   1.034  0.00  0.00    -0.270 NA
ATOM      3  N   LIG    1       -7.452   0.206   0.780  0.00  0.00    -0.280 NA
ATOM      4  C   LIG    1       -7.492   1.474   1.118  0.00  0.00    +0.150 A 
ATOM      5  N   LIG    1       -8.745   1.723   1.612  0.00  0.00    -0.410 N 
ENDROOT
BRANCH   1   8
ATOM      6  C   LIG    1      -10.933  -2.217   1.379  0.00  0.00    +0.200 C 
ATOM      7  C   LIG    1      -11.485  -0.913   1.896  0.00  0.00    +0.070 A 
ATOM      8  C   LIG    1      -10.810   0.267   1.959  0.00  0.00    -0.140 A 
ATOM      9  C   LIG    1      -11.754   1.234   2.534  0.00  0.00    -0.040 A 
ATOM     10  C   LIG    1      -12.894   0.557   2.749  0.00  0.00    +0.180 A 
ATOM     11  O   LIG    1      -12.723  -0.719   2.371  0.00  0.00    -0.170 OA
ENDBRANCH   1   8
BRANCH   5  12
ATOM     12  C   LIG    1       -9.241   2.944   2.090  0.00  0.00    +0.100 A 
ATOM     13  C   LIG    1       -9.595   3.076   3.425  0.00  0.00    +0.030 A 
ATOM     14  C   LIG    1      -10.079   4.282   3.894  0.00  0.00    +0.030 A 
ATOM     15  C   LIG    1      -10.222   5.353   3.032  0.00  0.00    +0.040 A 
ATOM     16  C   LIG    1       -9.876   5.223   1.699  0.00  0.00    +0.040 A 
ATOM     17  C   LIG    1       -9.386   4.021   1.226  0.00  0.00    +0.030 A 
ENDBRANCH   5  12
BRANCH   4  18
ATOM     18  S   LIG    1       -6.181   2.640   0.958  0.00  0.00    +0.090 S 
BRANCH  18  19
ATOM     19  C   LIG    1       -4.899   1.577   0.249  0.00  0.00    +0.020 C 
ATOM     20  C   LIG    1       -5.337   1.106  -1.139  0.00  0.00    +0.080 C 
BRANCH  19  21
ATOM     21  C   LIG    1       -3.611   2.351   0.134  0.00  0.00    +0.540 C 
ATOM     22  N   LIG    1       -2.438   1.696   0.023  0.00  0.00    -0.660 N 
ATOM     23  H   LIG    1       -2.429   0.730  -0.063  0.00  0.00    +0.420 HD
ATOM     24  O   LIG    1       -3.630   3.564   0.141  0.00  0.00    -0.500 OA
BRANCH  22  25
ATOM     25  C   LIG    1       -1.233   2.410   0.032  0.00  0.00    +0.150 A 
ATOM     26  C   LIG    1       -1.167   3.653   0.646  0.00  0.00    +0.080 A 
ATOM     27  C   LIG    1        0.021   4.358   0.650  0.00  0.00    +0.030 A 
ATOM     28  C   LIG    1        1.147   3.824   0.046  0.00  0.00    +0.100 A 
ATOM     29  C   LIG    1        1.085   2.582  -0.564  0.00  0.00    +0.030 A 
ATOM     30  F   LIG    1        2.307   4.516   0.050  0.00  0.00    -0.130 F 
ATOM     31  C   LIG    1       -0.102   1.873  -0.569  0.00  0.00    -0.040 A 
ATOM     32 CL   LIG    1       -0.179   0.316  -1.333  0.00  0.00    -0.050 Cl
ENDBRANCH  22  25
ENDBRANCH  19  21
ENDBRANCH  18  19
ENDBRANCH   4  18
TORSDOF 6
