REMARK  Name = ZINCrg00000BvZ0K.0
REMARK                            x       y       z     vdW  Elec       q    Type
REMARK                         _______ _______ _______ _____ _____    ______ ____
ROOT
ATOM      1  O   LIG    1        2.672  -2.080   2.383  0.00  0.00    -0.520 OA
ATOM      2  C   LIG    1        2.603  -2.339   1.197  0.00  0.00    +0.560 C 
ATOM      3  N   LIG    1        1.888  -1.546   0.374  0.00  0.00    -0.720 N 
ATOM      4  H   LIG    1        1.833  -1.754  -0.572  0.00  0.00    +0.400 HD
ENDROOT
BRANCH   2   5
ATOM      5  C   LIG    1        3.302  -3.525   0.658  0.00  0.00    -0.140 A 
ATOM      6  C   LIG    1        3.220  -3.829  -0.702  0.00  0.00    +0.050 A 
ATOM      7  C   LIG    1        3.879  -4.935  -1.199  0.00  0.00    +0.000 A 
ATOM      8  C   LIG    1        4.611  -5.747  -0.352  0.00  0.00    +0.060 A 
ATOM      9  C   LIG    1        4.692  -5.454   0.999  0.00  0.00    -0.120 A 
ATOM     10  C   LIG    1        4.042  -4.349   1.508  0.00  0.00    +0.120 A 
BRANCH   9  11
ATOM     11  C   LIG    1        5.492  -6.344   1.914  0.00  0.00    +0.380 C 
BRANCH  11  12
ATOM     12  N   LIG    1        4.628  -7.401   2.445  0.00  0.00    -0.380 N 
ATOM     13  C   LIG    1        4.836  -8.727   2.368  0.00  0.00    +0.470 A 
ATOM     14  N   LIG    1        3.839  -9.330   2.963  0.00  0.00    -0.550 NA
ATOM     15  C   LIG    1        2.975  -8.426   3.425  0.00  0.00    +0.420 A 
ATOM     16  N   LIG    1        3.414  -7.231   3.132  0.00  0.00    -0.310 NA
ENDBRANCH  11  12
ENDBRANCH   9  11
ENDBRANCH   2   5
BRANCH   3  17
ATOM     17  C   LIG    1        1.195  -0.371   0.908  0.00  0.00    +0.260 C 
ATOM     18  C   LIG    1        0.002  -0.004   0.002  0.00  0.00    +0.050 C 
ATOM     19  C   LIG    1       -0.019   1.545   0.011  0.00  0.00    -0.010 C 
ATOM     20  C   LIG    1        1.487   1.907  -0.002  0.00  0.00    +0.010 C 
ATOM     21  C   LIG    1        2.139   0.844   0.906  0.00  0.00    +0.150 C 
BRANCH  21  22
ATOM     22  O   LIG    1        2.283   1.355   2.233  0.00  0.00    -0.550 OA
ATOM     23  H   LIG    1        2.867   2.123   2.297  0.00  0.00    +0.380 HD
ENDBRANCH  21  22
BRANCH  19  24
ATOM     24  C   LIG    1       -0.717   2.084  -1.240  0.00  0.00    +0.300 C 
BRANCH  24  25
ATOM     25  N   LIG    1       -0.827   3.542  -1.146  0.00  0.00    -0.460 N 
ATOM     26  C   LIG    1        0.088   4.456  -1.594  0.00  0.00    +0.110 A 
ATOM     27  C   LIG    1       -0.407   5.676  -1.309  0.00  0.00    +0.140 A 
ATOM     28  N   LIG    1       -1.593   5.511  -0.703  0.00  0.00    -0.490 NA
ATOM     29  C   LIG    1       -1.853   4.235  -0.608  0.00  0.00    +0.380 A 
ENDBRANCH  24  25
ENDBRANCH  19  24
ENDBRANCH   3  17
TORSDOF 7
