REMARK  Name = ZINCvU0000000J3L.0
REMARK                            x       y       z     vdW  Elec       q    Type
REMARK                         _______ _______ _______ _____ _____    ______ ____
ROOT
ATOM      1  C   LIG    1        2.498   1.455  -0.072  0.00  0.00    +0.610 C 
ATOM      2  N   LIG    1        2.856   0.157  -0.026  0.00  0.00    -0.580 N 
ATOM      3  H   LIG    1        2.175  -0.532   0.024  0.00  0.00    +0.390 HD
ATOM      4  O   LIG    1        3.352   2.320  -0.135  0.00  0.00    -0.510 OA
ENDROOT
BRANCH   1   8
ATOM      5  C   LIG    1       -2.595   1.190   0.079  0.00  0.00    +0.130 C 
ATOM      6  C   LIG    1       -1.174   1.689   0.022  0.00  0.00    +0.030 A 
ATOM      7  C   LIG    1       -0.073   0.918   0.029  0.00  0.00    -0.020 A 
ATOM      8  C   LIG    1        1.075   1.828  -0.045  0.00  0.00    -0.230 A 
ATOM      9  C   LIG    1        0.556   3.094  -0.084  0.00  0.00    +0.130 A 
ATOM     10  C   LIG    1        1.351   4.372  -0.162  0.00  0.00    +0.150 C 
ATOM     11  N   LIG    1       -0.795   3.001  -0.039  0.00  0.00    -0.400 N 
BRANCH  11  12
ATOM     12  C   LIG    1       -1.675   4.091  -0.060  0.00  0.00    +0.110 A 
ATOM     13  C   LIG    1       -1.689   4.995   0.994  0.00  0.00    +0.020 A 
ATOM     14  C   LIG    1       -2.554   6.071   0.968  0.00  0.00    +0.020 A 
ATOM     15  C   LIG    1       -3.414   6.243  -0.102  0.00  0.00    +0.020 A 
ATOM     16  C   LIG    1       -3.406   5.342  -1.151  0.00  0.00    +0.020 A 
ATOM     17  C   LIG    1       -2.540   4.267  -1.133  0.00  0.00    +0.020 A 
ENDBRANCH  11  12
ENDBRANCH   1   8
BRANCH   2  18
ATOM     18  N   LIG    1        4.211  -0.198  -0.052  0.00  0.00    -0.220 NA
ATOM     19  C   LIG    1        4.555  -1.449  -0.009  0.00  0.00    +0.220 C 
BRANCH  19  20
ATOM     20  C   LIG    1        5.981  -1.822  -0.035  0.00  0.00    -0.050 A 
ATOM     21  C   LIG    1        6.963  -0.832  -0.114  0.00  0.00    +0.090 A 
ATOM     22  C   LIG    1        8.295  -1.185  -0.133  0.00  0.00    +0.020 A 
ATOM     23  C   LIG    1        8.661  -2.524  -0.086  0.00  0.00    +0.100 A 
ATOM     24  C   LIG    1        7.688  -3.513  -0.014  0.00  0.00    +0.000 A 
ATOM     25  C   LIG    1        6.354  -3.168   0.011  0.00  0.00    +0.070 A 
BRANCH  23  26
ATOM     26  O   LIG    1        9.975  -2.868  -0.111  0.00  0.00    -0.260 OA
BRANCH  26  27
ATOM     27  C   LIG    1       10.443  -3.522  -1.206  0.00  0.00    +0.120 A 
ATOM     28  C   LIG    1        9.620  -3.713  -2.306  0.00  0.00    -0.060 A 
ATOM     29  C   LIG    1       10.099  -4.375  -3.420  0.00  0.00    +0.050 A 
ATOM     30  C   LIG    1       11.395  -4.856  -3.435  0.00  0.00    -0.020 A 
ATOM     31  C   LIG    1       12.217  -4.671  -2.338  0.00  0.00    +0.050 A 
ATOM     32  C   LIG    1       11.744  -4.006  -1.223  0.00  0.00    -0.010 A 
ENDBRANCH  26  27
ENDBRANCH  23  26
ENDBRANCH  19  20
ENDBRANCH   2  18
TORSDOF 6
