REMARK  Name = ZINCrD00000hQ42r.1
REMARK                            x       y       z     vdW  Elec       q    Type
REMARK                         _______ _______ _______ _____ _____    ______ ____
ROOT
ATOM      1  N   LIG    1       -2.038  -0.416  -2.136  0.00  0.00    -0.680 N 
ATOM      2  H   LIG    1       -2.055  -1.371  -2.308  0.00  0.00    +0.410 HD
ATOM      3  C   LIG    1       -2.927   0.132  -1.285  0.00  0.00    +0.710 C 
ATOM      4  N   LIG    1       -3.773  -0.658  -0.594  0.00  0.00    -0.630 N 
ATOM      5  C   LIG    1       -3.669  -2.124  -0.664  0.00  0.00    +0.260 C 
ATOM      6  C   LIG    1       -3.645  -2.677   0.765  0.00  0.00    +0.210 C 
ATOM      7  O   LIG    1       -4.760  -2.154   1.491  0.00  0.00    -0.370 OA
ATOM      8  C   LIG    1       -4.748  -0.732   1.638  0.00  0.00    +0.250 C 
ATOM      9  C   LIG    1       -4.825  -0.080   0.258  0.00  0.00    +0.320 C 
ATOM     10  O   LIG    1       -2.967   1.338  -1.140  0.00  0.00    -0.540 OA
ENDROOT
BRANCH   1  16
ATOM     11  C   LIG    1        2.926   2.029  -4.777  0.00  0.00    +0.140 A 
ATOM     12  N   LIG    1        1.819   2.656  -4.640  0.00  0.00    -0.460 NA
ATOM     13  C   LIG    1        0.795   2.016  -4.043  0.00  0.00    +0.070 A 
ATOM     14  C   LIG    1       -0.509   2.486  -3.778  0.00  0.00    +0.100 A 
ATOM     15  C   LIG    1       -1.421   1.689  -3.159  0.00  0.00    +0.050 A 
ATOM     16  C   LIG    1       -1.088   0.393  -2.773  0.00  0.00    +0.190 A 
ATOM     17  C   LIG    1        0.182  -0.093  -3.020  0.00  0.00    +0.020 A 
ATOM     18  C   LIG    1        1.125   0.713  -3.653  0.00  0.00    -0.150 A 
ATOM     19  S   LIG    1        2.800   0.407  -4.108  0.00  0.00    +0.050 S 
BRANCH  11  21
ATOM     20  C   LIG    1        4.614   3.840  -4.647  0.00  0.00    +0.060 C 
ATOM     21  C   LIG    1        4.164   2.599  -5.420  0.00  0.00    +0.010 C 
ATOM     22  C   LIG    1        3.856   2.983  -6.868  0.00  0.00    +0.060 C 
ATOM     23  C   LIG    1        5.280   1.552  -5.397  0.00  0.00    +0.050 C 
ENDBRANCH  11  21
ENDBRANCH   1  16
BRANCH   9  24
ATOM     24  C   LIG    1       -4.612   1.407   0.387  0.00  0.00    +0.190 A 
ATOM     25  N   LIG    1       -3.619   1.996   0.995  0.00  0.00    -0.260 NA
ATOM     26  N   LIG    1       -3.754   3.272   0.908  0.00  0.00    -0.280 NA
ATOM     27  C   LIG    1       -4.845   3.554   0.249  0.00  0.00    +0.370 A 
ATOM     28  N   LIG    1       -5.421   2.379  -0.100  0.00  0.00    -0.580 N 
ATOM     29  H   LIG    1       -6.245   2.258  -0.597  0.00  0.00    +0.420 HD
ENDBRANCH   9  24
TORSDOF 3
