REMARK  Name = ZINCrD00000hQ42r.0
REMARK                            x       y       z     vdW  Elec       q    Type
REMARK                         _______ _______ _______ _____ _____    ______ ____
ROOT
ATOM      1  N   LIG    1       -2.799   0.900  -0.572  0.00  0.00    -0.680 N 
ATOM      2  H   LIG    1       -2.077   1.318  -1.067  0.00  0.00    +0.410 HD
ATOM      3  C   LIG    1       -2.556  -0.188   0.184  0.00  0.00    +0.710 C 
ATOM      4  N   LIG    1       -1.294  -0.640   0.330  0.00  0.00    -0.620 N 
ATOM      5  C   LIG    1       -0.177  -0.013  -0.395  0.00  0.00    +0.260 C 
ATOM      6  C   LIG    1        0.931   0.312   0.613  0.00  0.00    +0.210 C 
ATOM      7  O   LIG    1        1.242  -0.862   1.367  0.00  0.00    -0.370 OA
ATOM      8  C   LIG    1        0.156  -1.359   2.152  0.00  0.00    +0.240 C 
ATOM      9  C   LIG    1       -0.992  -1.770   1.223  0.00  0.00    +0.340 C 
ATOM     10  O   LIG    1       -3.474  -0.763   0.735  0.00  0.00    -0.540 OA
ENDROOT
BRANCH   1  16
ATOM     11  C   LIG    1       -8.844   1.900  -0.804  0.00  0.00    +0.130 A 
ATOM     12  N   LIG    1       -7.972   2.837  -0.845  0.00  0.00    -0.460 NA
ATOM     13  C   LIG    1       -6.670   2.495  -0.786  0.00  0.00    +0.060 A 
ATOM     14  C   LIG    1       -5.534   3.333  -0.813  0.00  0.00    +0.100 A 
ATOM     15  C   LIG    1       -4.282   2.806  -0.743  0.00  0.00    +0.010 A 
ATOM     16  C   LIG    1       -4.094   1.429  -0.643  0.00  0.00    +0.180 A 
ATOM     17  C   LIG    1       -5.189   0.585  -0.620  0.00  0.00    +0.070 A 
ATOM     18  C   LIG    1       -6.476   1.114  -0.685  0.00  0.00    -0.150 A 
ATOM     19  S   LIG    1       -8.056   0.333  -0.675  0.00  0.00    +0.050 S 
BRANCH  11  21
ATOM     20  C   LIG    1      -10.703   2.808  -2.170  0.00  0.00    +0.060 C 
ATOM     21  C   LIG    1      -10.335   2.110  -0.860  0.00  0.00    +0.010 C 
ATOM     22  C   LIG    1      -10.771   2.979   0.322  0.00  0.00    +0.060 C 
ATOM     23  C   LIG    1      -11.044   0.756  -0.786  0.00  0.00    +0.050 C 
ENDBRANCH  11  21
ENDBRANCH   1  16
BRANCH   9  24
ATOM     24  C   LIG    1       -2.211  -2.110   2.041  0.00  0.00    +0.250 A 
ATOM     25  N   LIG    1       -2.795  -3.278   2.085  0.00  0.00    -0.310 NA
ATOM     26  N   LIG    1       -3.883  -3.155   2.964  0.00  0.00    -0.480 N 
ATOM     27  H   LIG    1       -4.514  -3.850   3.209  0.00  0.00    +0.440 HD
ATOM     28  C   LIG    1       -3.876  -1.883   3.400  0.00  0.00    +0.480 A 
ATOM     29  N   LIG    1       -2.865  -1.269   2.842  0.00  0.00    -0.510 NA
ENDBRANCH   9  24
TORSDOF 3
