REMARK  Name = ZINCtV00000L6kzQ.0
REMARK                            x       y       z     vdW  Elec       q    Type
REMARK                         _______ _______ _______ _____ _____    ______ ____
ROOT
ATOM      1  C   LIG    1        3.365   2.675   0.703  0.00  0.00    +0.090 C 
ATOM      2  N   LIG    1        2.086   2.689   0.894  0.00  0.00    -0.190 NA
ATOM      3  N   LIG    1        1.370   1.884  -0.001  0.00  0.00    -0.550 N 
ATOM      4  C   LIG    1        2.311   1.425  -1.049  0.00  0.00    +0.240 C 
ATOM      5  C   LIG    1        2.119  -0.064  -1.172  0.00  0.00    -0.170 A 
ATOM      6  C   LIG    1        3.084  -0.817  -1.815  0.00  0.00    +0.050 A 
ATOM      7  C   LIG    1        2.911  -2.178  -1.983  0.00  0.00    -0.020 A 
ATOM      8  C   LIG    1        1.765  -2.787  -1.505  0.00  0.00    +0.050 A 
ATOM      9  C   LIG    1        0.805  -2.041  -0.854  0.00  0.00    -0.020 A 
ATOM     10  C   LIG    1        0.977  -0.670  -0.671  0.00  0.00    +0.150 A 
ATOM     11  O   LIG    1        0.002  -0.004   0.002  0.00  0.00    -0.330 OA
ATOM     12  C   LIG    1       -0.017   1.421   0.010  0.00  0.00    +0.400 C 
ATOM     13  C   LIG    1       -0.742   1.939   1.262  0.00  0.00    +0.060 C 
ATOM     14  C   LIG    1       -1.492   3.203   0.768  0.00  0.00    +0.030 C 
ATOM     15  C   LIG    1       -1.951   2.795  -0.655  0.00  0.00    +0.020 C 
ATOM     16  C   LIG    1       -0.776   1.960  -1.208  0.00  0.00    +0.010 C 
ATOM     17  C   LIG    1        3.689   1.784  -0.479  0.00  0.00    +0.090 C 
ENDROOT
BRANCH   1  21
ATOM     18  C   LIG    1        6.215   4.796   3.030  0.00  0.00    -0.030 A 
ATOM     19  C   LIG    1        4.857   4.891   3.335  0.00  0.00    +0.020 A 
ATOM     20  C   LIG    1        3.932   4.204   2.582  0.00  0.00    +0.050 A 
ATOM     21  C   LIG    1        4.354   3.410   1.511  0.00  0.00    -0.020 A 
ATOM     22  C   LIG    1        5.716   3.312   1.210  0.00  0.00    +0.040 A 
ATOM     23  C   LIG    1        6.638   4.004   1.961  0.00  0.00    +0.020 A 
BRANCH  18  27
ATOM     24  C   LIG    1        9.069   6.919   5.359  0.00  0.00    +0.000 A 
ATOM     25  C   LIG    1        9.490   6.135   4.300  0.00  0.00    +0.010 A 
ATOM     26  C   LIG    1        8.568   5.444   3.540  0.00  0.00    +0.020 A 
ATOM     27  C   LIG    1        7.210   5.536   3.842  0.00  0.00    -0.050 A 
ATOM     28  C   LIG    1        6.791   6.332   4.907  0.00  0.00    +0.020 A 
ATOM     29  C   LIG    1        7.723   7.015   5.663  0.00  0.00    +0.000 A 
ENDBRANCH  18  27
ENDBRANCH   1  21
TORSDOF 2
