REMARK  Name = ZINCkj000005g5KJ.0
REMARK                            x       y       z     vdW  Elec       q    Type
REMARK                         _______ _______ _______ _____ _____    ______ ____
ROOT
ATOM      1  C   LIG    1        1.214  -0.697  -0.013  0.00  0.00    -0.210 A 
ATOM      2  C   LIG    1        2.414   0.031  -0.020  0.00  0.00    +0.160 A 
ATOM      3  C   LIG    1        2.349   1.398  -0.013  0.00  0.00    -0.030 A 
ATOM      4  C   LIG    1        1.104   2.023   0.002  0.00  0.00    +0.330 A 
ATOM      5  N   LIG    1       -0.016   1.312   0.009  0.00  0.00    -0.530 NA
ATOM      6  C   LIG    1        0.002  -0.004   0.002  0.00  0.00    +0.320 A 
ENDROOT
BRANCH   4   7
ATOM      7  N   LIG    1        1.034   3.406   0.011  0.00  0.00    -0.470 N 
ATOM      8  C   LIG    1        1.749   3.966  -1.111  0.00  0.00    +0.210 C 
ATOM      9  C   LIG    1        2.526   5.202  -0.621  0.00  0.00    +0.040 C 
ATOM     10  C   LIG    1        1.691   6.395  -0.538  0.00  0.00    +0.020 C 
ATOM     11  C   LIG    1        0.532   6.212   0.467  0.00  0.00    +0.060 C 
ATOM     12  C   LIG    1       -0.538   5.369  -0.174  0.00  0.00    -0.030 C 
ATOM     13  C   LIG    1       -0.368   3.866   0.110  0.00  0.00    +0.200 C 
BRANCH  12  14
ATOM     14  C   LIG    1       -1.902   5.819   0.355  0.00  0.00    +0.280 C 
BRANCH  14  15
ATOM     15  N   LIG    1       -2.965   5.089  -0.348  0.00  0.00    -0.640 N 
ATOM     16  H   LIG    1       -2.853   4.098  -0.191  0.00  0.00    +0.440 HD
ATOM     17  H   LIG    1       -2.908   5.281  -1.337  0.00  0.00    +0.440 HD
ATOM     18  H   LIG    1       -3.864   5.386   0.001  0.00  0.00    +0.440 HD
ENDBRANCH  14  15
ENDBRANCH  12  14
ENDBRANCH   4   7
BRANCH   1  21
ATOM     19  N   LIG    1        0.075  -2.861  -0.014  0.00  0.00    -0.730 N 
ATOM     20  H   LIG    1       -0.771  -2.386  -0.004  0.00  0.00    +0.400 HD
ATOM     21  C   LIG    1        1.233  -2.172  -0.021  0.00  0.00    +0.560 C 
ATOM     22  O   LIG    1        2.294  -2.766  -0.034  0.00  0.00    -0.530 OA
BRANCH  19  24
ATOM     23  C   LIG    1       -1.342  -4.854  -0.012  0.00  0.00    +0.030 C 
ATOM     24  C   LIG    1        0.093  -4.325  -0.022  0.00  0.00    +0.250 C 
ENDBRANCH  19  24
ENDBRANCH   1  21
TORSDOF 5
