REMARK  Name = ZINCpk00000jbVXq.0
REMARK                            x       y       z     vdW  Elec       q    Type
REMARK                         _______ _______ _______ _____ _____    ______ ____
ROOT
ATOM      1  N   LIG    1       -5.592  -0.643   2.130  0.00  0.00    -0.370 N 
ATOM      2  N   LIG    1       -4.867   0.499   1.768  0.00  0.00    -0.240 NA
ATOM      3  C   LIG    1       -3.627   0.177   1.536  0.00  0.00    +0.300 A 
ATOM      4  C   LIG    1       -3.480  -1.212   1.743  0.00  0.00    -0.300 A 
ATOM      5  C   LIG    1       -2.408  -2.120   1.643  0.00  0.00    +0.450 A 
ATOM      6  N   LIG    1       -2.638  -3.401   1.913  0.00  0.00    -0.590 NA
ATOM      7  C   LIG    1       -3.841  -3.821   2.263  0.00  0.00    +0.580 A 
ATOM      8  N   LIG    1       -4.873  -3.012   2.365  0.00  0.00    -0.550 NA
ATOM      9  C   LIG    1       -4.744  -1.710   2.114  0.00  0.00    +0.360 A 
ENDROOT
BRANCH   5  10
ATOM     10  N   LIG    1       -1.147  -1.690   1.278  0.00  0.00    -0.470 N 
ATOM     11  C   LIG    1       -1.191  -0.944   0.007  0.00  0.00    +0.320 C 
ATOM     12  C   LIG    1        0.002  -0.004   0.002  0.00  0.00    +0.080 A 
ATOM     13  C   LIG    1       -0.016   1.343   0.009  0.00  0.00    -0.100 A 
ATOM     14  C   LIG    1        1.314   1.785  -0.001  0.00  0.00    +0.230 A 
ATOM     15  N   LIG    1        2.096   0.732  -0.014  0.00  0.00    -0.280 NA
ATOM     16  N   LIG    1        1.286  -0.404  -0.012  0.00  0.00    -0.360 N 
ATOM     17  C   LIG    1        1.718  -1.816  -0.024  0.00  0.00    +0.350 C 
ATOM     18  C   LIG    1        1.255  -2.437   1.304  0.00  0.00    +0.000 C 
ATOM     19  C   LIG    1       -0.211  -2.793   1.249  0.00  0.00    +0.230 C 
BRANCH  18  20
ATOM     20  C   LIG    1        2.070  -3.703   1.577  0.00  0.00    +0.200 C 
BRANCH  20  21
ATOM     21  O   LIG    1        3.441  -3.352   1.778  0.00  0.00    -0.570 OA
ATOM     22  H   LIG    1        4.018  -4.107   1.957  0.00  0.00    +0.390 HD
ENDBRANCH  20  21
ENDBRANCH  18  20
ENDBRANCH   5  10
BRANCH   1  24
ATOM     23  C   LIG    1       -7.189  -1.206   3.895  0.00  0.00    +0.060 C 
ATOM     24  C   LIG    1       -7.017  -0.684   2.467  0.00  0.00    +0.190 C 
ATOM     25  C   LIG    1       -7.745  -1.613   1.494  0.00  0.00    +0.060 C 
ATOM     26  C   LIG    1       -7.606   0.724   2.365  0.00  0.00    +0.080 C 
ENDBRANCH   1  24
TORSDOF 4
