REMARK  Name = ZINCkj00000kIZ2T.0
REMARK                            x       y       z     vdW  Elec       q    Type
REMARK                         _______ _______ _______ _____ _____    ______ ____
ROOT
ATOM      1  C   LIG    1        1.655   2.539   0.119  0.00  0.00    +0.050 C 
ATOM      2  C   LIG    1        0.412   1.690  -0.154  0.00  0.00    +0.000 C 
ATOM      3  C   LIG    1       -0.231   2.098  -1.493  0.00  0.00    +0.290 C 
ATOM      4  N   LIG    1       -1.605   2.542  -1.197  0.00  0.00    -0.630 N 
ATOM      5  C   LIG    1       -1.589   3.001   0.212  0.00  0.00    +0.300 C 
ATOM      6  C   LIG    1       -2.660   2.533  -2.035  0.00  0.00    +0.540 C 
ATOM      7  O   LIG    1       -3.741   2.931  -1.655  0.00  0.00    -0.490 OA
ATOM      8  C   LIG    1       -0.672   1.966   0.914  0.00  0.00    +0.160 C 
ENDROOT
BRANCH   8   9
ATOM      9  N   LIG    1       -0.073   2.537   2.127  0.00  0.00    -0.380 N 
ATOM     10  C   LIG    1        0.774   1.528   2.777  0.00  0.00    +0.330 C 
ATOM     11  C   LIG    1       -1.137   2.951   3.051  0.00  0.00    +0.330 C 
ATOM     12  H   LIG    1        0.488   3.338   1.880  0.00  0.00    +0.420 HD
ENDBRANCH   8   9
BRANCH   6  13
ATOM     13  C   LIG    1       -2.497   2.029  -3.446  0.00  0.00    +0.190 C 
BRANCH  13  14
ATOM     14  C   LIG    1       -3.815   2.124  -4.170  0.00  0.00    +0.040 A 
ATOM     15  C   LIG    1       -4.031   2.767  -5.329  0.00  0.00    +0.150 A 
ATOM     16  N   LIG    1       -5.375   2.608  -5.650  0.00  0.00    -0.420 N 
ATOM     17  C   LIG    1       -6.254   2.976  -6.643  0.00  0.00    +0.210 A 
ATOM     18  C   LIG    1       -7.516   2.597  -6.545  0.00  0.00    +0.020 A 
ATOM     19  S   LIG    1       -7.621   1.672  -5.037  0.00  0.00    +0.160 S 
ATOM     20  C   LIG    1       -5.908   1.870  -4.639  0.00  0.00    +0.160 A 
ATOM     21  N   LIG    1       -4.974   1.586  -3.762  0.00  0.00    -0.430 NA
ENDBRANCH  13  14
ENDBRANCH   6  13
TORSDOF 3
