REMARK  Name = ZINCrD00000F5LuC.0
REMARK                            x       y       z     vdW  Elec       q    Type
REMARK                         _______ _______ _______ _____ _____    ______ ____
ROOT
ATOM      1  C   LIG    1       -3.736   3.091   0.230  0.00  0.00    +0.130 A 
ATOM      2  C   LIG    1       -2.560   3.819   0.096  0.00  0.00    -0.040 A 
ATOM      3  C   LIG    1       -1.348   3.170   0.028  0.00  0.00    +0.050 A 
ATOM      4  C   LIG    1       -1.299   1.770   0.084  0.00  0.00    -0.110 A 
ATOM      5  C   LIG    1       -2.488   1.037   0.220  0.00  0.00    +0.020 A 
ATOM      6  C   LIG    1       -3.696   1.698   0.292  0.00  0.00    +0.100 A 
ENDROOT
BRANCH   4   7
ATOM      7  C   LIG    1       -0.013   1.076   0.008  0.00  0.00    +0.260 C 
ATOM      8  C   LIG    1        1.031   1.634  -0.698  0.00  0.00    -0.160 C 
BRANCH   8   9
ATOM      9  C   LIG    1        2.364   1.012  -0.658  0.00  0.00    +0.490 C 
ATOM     10  O   LIG    1        2.545   0.002   0.000  0.00  0.00    -0.440 OA
BRANCH   9  11
ATOM     11  C   LIG    1        3.473   1.605  -1.409  0.00  0.00    -0.310 A 
ATOM     12  C   LIG    1        4.753   1.122  -1.450  0.00  0.00    -0.010 A 
ATOM     13  C   LIG    1        5.593   1.875  -2.235  0.00  0.00    -0.010 A 
ATOM     14  C   LIG    1        5.025   2.939  -2.816  0.00  0.00    -0.060 A 
ATOM     15  C   LIG    1        5.196  -0.114  -0.711  0.00  0.00    +0.130 C 
ATOM     16  S   LIG    1        3.372   3.049  -2.407  0.00  0.00    +0.220 S 
ENDBRANCH   9  11
ENDBRANCH   8   9
BRANCH   8  17
ATOM     17  C   LIG    1        0.818   2.821  -1.472  0.00  0.00    +0.250 C 
ATOM     18  N   LIG    1        0.649   3.761  -2.086  0.00  0.00    -0.390 NA
ENDBRANCH   8  17
ENDBRANCH   4   7
BRANCH   6  19
ATOM     19  O   LIG    1       -4.851   0.990   0.422  0.00  0.00    -0.300 OA
ATOM     20  C   LIG    1       -4.737  -0.433   0.479  0.00  0.00    +0.250 C 
ENDBRANCH   6  19
BRANCH   1  21
ATOM     21  O   LIG    1       -4.927   3.738   0.300  0.00  0.00    -0.270 OA
BRANCH  21  22
ATOM     22  C   LIG    1       -4.896   5.165   0.231  0.00  0.00    +0.240 C 
BRANCH  22  25
ATOM     23  N   LIG    1       -6.517   7.033   0.281  0.00  0.00    -0.730 N 
ATOM     24  H   LIG    1       -5.768   7.644   0.189  0.00  0.00    +0.400 HD
ATOM     25  C   LIG    1       -6.300   5.704   0.325  0.00  0.00    +0.510 C 
ATOM     26  O   LIG    1       -7.236   4.941   0.440  0.00  0.00    -0.510 OA
BRANCH  23  28
ATOM     27  C   LIG    1       -7.848   9.085   0.297  0.00  0.00    +0.030 C 
ATOM     28  C   LIG    1       -7.882   7.557   0.372  0.00  0.00    +0.250 C 
ENDBRANCH  23  28
ENDBRANCH  22  25
ENDBRANCH  21  22
ENDBRANCH   1  21
TORSDOF 9
