REMARK  Name = ZINCqH0000037ySw.0
REMARK                            x       y       z     vdW  Elec       q    Type
REMARK                         _______ _______ _______ _____ _____    ______ ____
ROOT
ATOM      1  N   LIG    1        2.316   1.493  -0.012  0.00  0.00    -0.750 N 
ATOM      2  H   LIG    1        2.329   0.523  -0.017  0.00  0.00    +0.400 HD
ATOM      3  C   LIG    1        1.140   2.151   0.003  0.00  0.00    +0.710 C 
ATOM      4  N   LIG    1       -0.018   1.461   0.010  0.00  0.00    -0.630 N 
ATOM      5  C   LIG    1        0.002  -0.004   0.002  0.00  0.00    +0.290 C 
ATOM      6  O   LIG    1        1.124   3.366   0.009  0.00  0.00    -0.580 OA
ENDROOT
BRANCH   1   7
ATOM      7  C   LIG    1        3.575   2.242  -0.020  0.00  0.00    +0.280 C 
BRANCH   7   8
ATOM      8  C   LIG    1        4.751   1.264  -0.036  0.00  0.00    +0.100 C 
BRANCH   8  11
ATOM      9  C   LIG    1        6.305   2.201  -2.555  0.00  0.00    +0.140 C 
ATOM     10  C   LIG    1        6.724   2.445  -1.128  0.00  0.00    +0.090 A 
ATOM     11  C   LIG    1        6.046   2.035  -0.045  0.00  0.00    -0.170 A 
ATOM     12  C   LIG    1        6.806   2.475   1.128  0.00  0.00    -0.100 A 
ATOM     13  C   LIG    1        6.622   2.349   2.506  0.00  0.00    +0.050 A 
ATOM     14  C   LIG    1        7.540   2.886   3.365  0.00  0.00    -0.020 A 
ATOM     15  C   LIG    1        8.654   3.556   2.877  0.00  0.00    +0.030 A 
ATOM     16  C   LIG    1        8.855   3.691   1.521  0.00  0.00    -0.010 A 
ATOM     17  C   LIG    1        7.934   3.152   0.629  0.00  0.00    +0.100 A 
ATOM     18  N   LIG    1        7.852   3.119  -0.745  0.00  0.00    -0.590 N 
ATOM     19  H   LIG    1        8.500   3.511  -1.351  0.00  0.00    +0.420 HD
ENDBRANCH   8  11
ENDBRANCH   7   8
ENDBRANCH   1   7
BRANCH   4  20
ATOM     20  C   LIG    1       -1.296   2.176   0.020  0.00  0.00    +0.360 C 
BRANCH  20  21
ATOM     21  C   LIG    1       -1.728   2.413   1.444  0.00  0.00    -0.080 A 
ATOM     22  C   LIG    1       -2.516   1.477   2.090  0.00  0.00    +0.020 A 
ATOM     23  C   LIG    1       -2.911   1.686   3.395  0.00  0.00    +0.060 A 
ATOM     24  C   LIG    1       -2.522   2.851   4.061  0.00  0.00    -0.030 A 
ATOM     25  C   LIG    1       -1.732   3.794   3.401  0.00  0.00    +0.060 A 
ATOM     26  C   LIG    1       -1.339   3.569   2.098  0.00  0.00    +0.050 A 
BRANCH  24  27
ATOM     27  C   LIG    1       -2.934   3.077   5.414  0.00  0.00    +0.250 C 
ATOM     28  N   LIG    1       -3.260   3.256   6.487  0.00  0.00    -0.410 NA
ENDBRANCH  24  27
ENDBRANCH  20  21
ENDBRANCH   4  20
TORSDOF 6
