REMARK  Name = ZINCtV00001bB3MD.0
REMARK                            x       y       z     vdW  Elec       q    Type
REMARK                         _______ _______ _______ _____ _____    ______ ____
ROOT
ATOM      1  S   LIG    1        2.535   5.355   0.731  0.00  0.00    +2.690 S 
ATOM      2  O   LIG    1        3.753   6.079   0.622  0.00  0.00    -0.950 OA
ATOM      3  O   LIG    1        2.241   4.207  -0.052  0.00  0.00    -0.940 OA
ENDROOT
BRANCH   1   7
ATOM      4  C   LIG    1        2.227   4.079   5.097  0.00  0.00    +0.220 A 
ATOM      5  C   LIG    1        3.315   4.761   4.630  0.00  0.00    -0.120 A 
ATOM      6  C   LIG    1        3.400   5.146   3.295  0.00  0.00    +0.210 A 
ATOM      7  C   LIG    1        2.402   4.855   2.416  0.00  0.00    -0.720 A 
ATOM      8  C   LIG    1        1.263   4.160   2.857  0.00  0.00    +0.070 A 
ATOM      9  C   LIG    1        0.218   3.837   1.975  0.00  0.00    -0.020 A 
ATOM     10  C   LIG    1       -0.867   3.157   2.436  0.00  0.00    +0.060 A 
ATOM     11  C   LIG    1       -0.956   2.770   3.772  0.00  0.00    +0.000 A 
ATOM     12  C   LIG    1        0.041   3.060   4.653  0.00  0.00    +0.070 A 
ATOM     13  C   LIG    1        1.175   3.760   4.214  0.00  0.00    -0.090 A 
BRANCH   4  14
ATOM     14  O   LIG    1        2.159   3.710   6.402  0.00  0.00    -0.300 OA
BRANCH  14  15
ATOM     15  C   LIG    1        3.264   4.068   7.236  0.00  0.00    +0.190 C 
BRANCH  15  17
ATOM     16  C   LIG    1        4.191   3.956   9.553  0.00  0.00    +0.040 C 
ATOM     17  C   LIG    1        3.009   3.573   8.661  0.00  0.00    +0.040 C 
ENDBRANCH  15  17
ENDBRANCH  14  15
ENDBRANCH   4  14
ENDBRANCH   1   7
BRANCH   1  18
ATOM     18  N   LIG    1        1.318   6.441   0.445  0.00  0.00    -1.050 N 
ATOM     19  H   LIG    1        0.649   6.252  -0.232  0.00  0.00    +0.430 HD
BRANCH  18  20
ATOM     20  C   LIG    1        1.255   7.630   1.177  0.00  0.00    +0.170 A 
ATOM     21  C   LIG    1        2.424   8.277   1.554  0.00  0.00    +0.060 A 
ATOM     22  C   LIG    1        2.358   9.452   2.278  0.00  0.00    -0.150 A 
ATOM     23  C   LIG    1        1.131   9.986   2.624  0.00  0.00    +0.080 A 
ATOM     24  C   LIG    1       -0.036   9.340   2.256  0.00  0.00    +0.060 A 
ATOM     25  C   LIG    1        0.022   8.165   1.531  0.00  0.00    -0.030 A 
ATOM     26 CL   LIG    1       -1.443   7.360   1.062  0.00  0.00    -0.040 Cl
BRANCH  22  27
ATOM     27  C   LIG    1        3.627  10.156   2.687  0.00  0.00    +0.510 C 
ATOM     28  F   LIG    1        4.646   9.214   2.862  0.00  0.00    -0.170 F 
ATOM     29  F   LIG    1        3.413  10.841   3.888  0.00  0.00    -0.170 F 
ATOM     30  F   LIG    1        3.997  11.065   1.691  0.00  0.00    -0.170 F 
ENDBRANCH  22  27
ENDBRANCH  18  20
ENDBRANCH   1  18
TORSDOF 7
