REMARK  Name = ZINCvU00000004jz.0
REMARK                            x       y       z     vdW  Elec       q    Type
REMARK                         _______ _______ _______ _____ _____    ______ ____
ROOT
ATOM      1  C   LIG    1        3.612   5.991  -0.212  0.00  0.00    -0.100 A 
ATOM      2  C   LIG    1        4.828   5.306  -0.221  0.00  0.00    +0.040 A 
ATOM      3  C   LIG    1        6.010   6.006  -0.336  0.00  0.00    +0.100 A 
ATOM      4  C   LIG    1        5.987   7.396  -0.431  0.00  0.00    -0.150 A 
ATOM      5  C   LIG    1        7.255   8.159  -0.543  0.00  0.00    +0.530 C 
ATOM      6  O   LIG    1        7.158   9.482  -0.830  0.00  0.00    -0.350 OA
ATOM      7  C   LIG    1        6.092  10.177  -0.119  0.00  0.00    +0.240 C 
ATOM      8  C   LIG    1        4.743   9.587  -0.530  0.00  0.00    +0.110 C 
ATOM      9  O   LIG    1        8.333   7.623  -0.383  0.00  0.00    -0.440 OA
ATOM     10  C   LIG    1        4.773   8.085  -0.420  0.00  0.00    -0.040 A 
ATOM     11  C   LIG    1        3.591   7.383  -0.310  0.00  0.00    +0.090 A 
ENDROOT
BRANCH   7  12
ATOM     12  C   LIG    1        6.128  11.643  -0.467  0.00  0.00    -0.100 A 
ATOM     13  C   LIG    1        6.395  12.038  -1.764  0.00  0.00    +0.040 A 
ATOM     14  C   LIG    1        6.423  13.383  -2.085  0.00  0.00    +0.010 A 
ATOM     15  C   LIG    1        6.193  14.332  -1.106  0.00  0.00    +0.020 A 
ATOM     16  C   LIG    1        5.931  13.936   0.192  0.00  0.00    +0.010 A 
ATOM     17  C   LIG    1        5.898  12.591   0.512  0.00  0.00    +0.030 A 
ENDBRANCH   7  12
BRANCH   1  20
ATOM     18  N   LIG    1        2.361   3.895   0.001  0.00  0.00    -0.660 N 
ATOM     19  H   LIG    1        3.207   3.424   0.056  0.00  0.00    +0.420 HD
ATOM     20  C   LIG    1        2.342   5.239  -0.093  0.00  0.00    +0.560 C 
ATOM     21  O   LIG    1        1.283   5.835  -0.081  0.00  0.00    -0.510 OA
BRANCH  18  24
ATOM     22  C   LIG    1       -1.151   3.003   0.654  0.00  0.00    +0.120 A 
ATOM     23  C   LIG    1        0.038   3.715   0.637  0.00  0.00    +0.000 A 
ATOM     24  C   LIG    1        1.158   3.178   0.019  0.00  0.00    +0.160 A 
ATOM     25  C   LIG    1        1.085   1.923  -0.582  0.00  0.00    +0.080 A 
ATOM     26  C   LIG    1       -0.105   1.215  -0.563  0.00  0.00    +0.010 A 
ATOM     27  C   LIG    1       -1.223   1.755   0.049  0.00  0.00    -0.040 A 
ATOM     28 CL   LIG    1       -2.715   0.869   0.065  0.00  0.00    -0.050 Cl
BRANCH  22  30
ATOM     29  C   LIG    1       -2.106   4.819   1.856  0.00  0.00    +0.240 C 
ATOM     30  O   LIG    1       -2.249   3.529   1.259  0.00  0.00    -0.300 OA
ENDBRANCH  22  30
BRANCH  25  31
ATOM     31  O   LIG    1        2.182   1.394  -1.189  0.00  0.00    -0.310 OA
ATOM     32  C   LIG    1        2.034   0.104  -1.786  0.00  0.00    +0.250 C 
ENDBRANCH  25  31
ENDBRANCH  18  24
ENDBRANCH   1  20
TORSDOF 5
