REMARK  Name = ZINCrH000004qyGz.0
REMARK                            x       y       z     vdW  Elec       q    Type
REMARK                         _______ _______ _______ _____ _____    ______ ____
ROOT
ATOM      1  C   LIG    1       -1.265  -0.761   0.010  0.00  0.00    +0.560 C 
ATOM      2  N   LIG    1       -1.245  -2.109   0.003  0.00  0.00    -0.660 N 
ATOM      3  H   LIG    1       -0.402  -2.581  -0.081  0.00  0.00    +0.410 HD
ATOM      4  O   LIG    1       -2.327  -0.169   0.029  0.00  0.00    -0.510 OA
ENDROOT
BRANCH   1   8
ATOM      5  C   LIG    1        2.380   1.417  -0.034  0.00  0.00    +0.190 A 
ATOM      6  C   LIG    1        1.167   2.096  -0.012  0.00  0.00    +0.000 A 
ATOM      7  C   LIG    1       -0.017   1.393   0.002  0.00  0.00    +0.120 A 
ATOM      8  C   LIG    1        0.002  -0.004  -0.005  0.00  0.00    -0.140 A 
ATOM      9  C   LIG    1        1.223  -0.683  -0.027  0.00  0.00    +0.080 A 
ATOM     10  C   LIG    1        2.403   0.027  -0.041  0.00  0.00    +0.020 A 
BRANCH   5  17
ATOM     11  C   LIG    1        2.788   4.098  -1.481  0.00  0.00    +0.160 C 
ATOM     12  C   LIG    1        3.797   3.320  -0.676  0.00  0.00    +0.090 A 
ATOM     13  C   LIG    1        5.082   3.675  -0.447  0.00  0.00    -0.100 A 
ATOM     14  C   LIG    1        5.671   2.681   0.342  0.00  0.00    +0.090 A 
ATOM     15  N   LIG    1        4.773   1.762   0.586  0.00  0.00    -0.290 NA
ATOM     16  C   LIG    1        7.096   2.674   0.833  0.00  0.00    +0.160 C 
ATOM     17  N   LIG    1        3.581   2.135  -0.049  0.00  0.00    -0.340 N 
ENDBRANCH   5  17
ENDBRANCH   1   8
BRANCH   2  18
ATOM     18  C   LIG    1       -2.442  -2.828   0.117  0.00  0.00    +0.070 A 
ATOM     19  C   LIG    1       -3.615  -2.342  -0.460  0.00  0.00    +0.100 A 
ATOM     20  C   LIG    1       -4.773  -3.085  -0.323  0.00  0.00    -0.020 A 
ATOM     21  C   LIG    1       -4.730  -4.284   0.381  0.00  0.00    +0.290 A 
ATOM     22  N   LIG    1       -3.599  -4.715   0.915  0.00  0.00    -0.500 NA
ATOM     23  C   LIG    1       -2.474  -4.035   0.800  0.00  0.00    +0.270 A 
BRANCH  21  24
ATOM     24  N   LIG    1       -5.891  -5.040   0.524  0.00  0.00    -0.460 N 
ATOM     25  C   LIG    1       -6.397  -5.495  -0.796  0.00  0.00    +0.180 C 
ATOM     26  C   LIG    1       -7.308  -6.694  -0.433  0.00  0.00    +0.040 C 
ATOM     27  C   LIG    1       -6.543  -7.370   0.728  0.00  0.00    +0.020 C 
ATOM     28  C   LIG    1       -5.629  -6.271   1.301  0.00  0.00    +0.190 C 
ENDBRANCH  21  24
ENDBRANCH   2  18
TORSDOF 4
