REMARK  Name = ZINCrg000000omWP.0
REMARK                            x       y       z     vdW  Elec       q    Type
REMARK                         _______ _______ _______ _____ _____    ______ ____
ROOT
ATOM      1  C   LIG    1       -4.244   2.950   3.072  0.00  0.00    +0.520 C 
ATOM      2  N   LIG    1       -4.199   2.896   1.726  0.00  0.00    -0.730 N 
ATOM      3  H   LIG    1       -5.000   3.067   1.207  0.00  0.00    +0.400 HD
ATOM      4  O   LIG    1       -3.242   2.736   3.721  0.00  0.00    -0.530 OA
ENDROOT
BRANCH   2   5
ATOM      5  C   LIG    1       -2.939   2.579   1.048  0.00  0.00    +0.240 C 
ATOM      6  C   LIG    1       -2.770   1.059   0.973  0.00  0.00    +0.010 C 
ATOM      7  C   LIG    1       -1.438   0.732   0.290  0.00  0.00    +0.270 C 
ATOM      8  N   LIG    1       -1.390   1.412  -1.011  0.00  0.00    -0.610 N 
ATOM      9  C   LIG    1       -1.629   2.861  -1.060  0.00  0.00    +0.290 C 
ATOM     10  C   LIG    1       -1.132   0.720  -2.138  0.00  0.00    +0.590 C 
ATOM     11  O   LIG    1       -1.205   1.270  -3.220  0.00  0.00    -0.530 OA
ATOM     12  C   LIG    1       -2.960   3.165  -0.366  0.00  0.00    +0.030 C 
BRANCH  10  13
ATOM     13  C   LIG    1       -0.760  -0.704  -2.060  0.00  0.00    -0.230 A 
ATOM     14  C   LIG    1       -0.095  -1.328  -1.046  0.00  0.00    +0.230 A 
ATOM     15  O   LIG    1        0.040  -2.620  -1.362  0.00  0.00    -0.170 OA
ATOM     16  C   LIG    1       -0.506  -2.879  -2.560  0.00  0.00    +0.180 A 
ATOM     17  C   LIG    1       -1.023  -1.748  -3.062  0.00  0.00    -0.010 A 
ENDBRANCH  10  13
ENDBRANCH   2   5
BRANCH   1  21
ATOM     18  N   LIG    1       -7.188   4.829   5.464  0.00  0.00    -1.000 NA
ATOM     19  C   LIG    1       -6.643   3.570   5.991  0.00  0.00    +0.300 C 
ATOM     20  C   LIG    1       -5.317   3.272   5.284  0.00  0.00    +0.050 C 
ATOM     21  C   LIG    1       -5.539   3.276   3.770  0.00  0.00    -0.010 C 
ATOM     22  C   LIG    1       -6.022   4.659   3.327  0.00  0.00    +0.020 C 
ATOM     23  C   LIG    1       -7.357   4.972   4.012  0.00  0.00    +0.300 C 
BRANCH  18  24
ATOM     24  S   LIG    1       -7.603   6.062   6.488  0.00  0.00    +2.610 S 
ATOM     25  O   LIG    1       -7.902   5.413   7.716  0.00  0.00    -0.950 OA
ATOM     26  O   LIG    1       -8.600   6.785   5.780  0.00  0.00    -0.950 OA
BRANCH  24  28
ATOM     27  C   LIG    1       -6.348   8.236   7.575  0.00  0.00    +0.070 C 
ATOM     28  C   LIG    1       -6.090   7.051   6.643  0.00  0.00    -0.370 C 
ENDBRANCH  24  28
ENDBRANCH  18  24
ENDBRANCH   1  21
TORSDOF 5
