REMARK  Name = ZINCpk00000y6uze.0
REMARK                            x       y       z     vdW  Elec       q    Type
REMARK                         _______ _______ _______ _____ _____    ______ ____
ROOT
ATOM      1  C   LIG    1        7.640   0.951   0.021  0.00  0.00    +0.560 C 
ATOM      2  N   LIG    1        8.312   0.132   0.854  0.00  0.00    -0.600 N 
ATOM      3  C   LIG    1        7.573  -0.819   1.671  0.00  0.00    +0.290 C 
ATOM      4  C   LIG    1        8.029  -0.778   3.111  0.00  0.00    +0.020 C 
ATOM      5  C   LIG    1        9.529  -0.773   3.304  0.00  0.00    +0.240 C 
ATOM      6  C   LIG    1       10.327   0.005   2.283  0.00  0.00    +0.190 C 
ATOM      7  N   LIG    1       10.757   1.223   2.966  0.00  0.00    -0.730 N 
ATOM      8  H   LIG    1       11.177   1.993   2.552  0.00  0.00    +0.430 HD
ATOM      9  C   LIG    1       10.468   1.087   4.273  0.00  0.00    +0.700 C 
ATOM     10  O   LIG    1       10.768   1.917   5.110  0.00  0.00    -0.580 OA
ATOM     11  N   LIG    1        9.818  -0.049   4.567  0.00  0.00    -0.640 N 
ATOM     12  C   LIG    1        9.453  -0.500   5.912  0.00  0.00    +0.330 C 
ATOM     13  C   LIG    1        9.760   0.211   0.916  0.00  0.00    +0.280 C 
ATOM     14  O   LIG    1        6.436   0.835  -0.105  0.00  0.00    -0.520 OA
ENDROOT
BRANCH   1  18
ATOM     15  C   LIG    1        9.727   3.934  -2.167  0.00  0.00    +0.180 A 
ATOM     16  C   LIG    1       10.354   2.731  -1.863  0.00  0.00    +0.020 A 
ATOM     17  C   LIG    1        9.682   1.764  -1.149  0.00  0.00    +0.060 A 
ATOM     18  C   LIG    1        8.365   1.988  -0.739  0.00  0.00    -0.140 A 
ATOM     19  C   LIG    1        7.737   3.196  -1.051  0.00  0.00    +0.110 A 
ATOM     20  C   LIG    1        8.416   4.161  -1.761  0.00  0.00    +0.010 A 
BRANCH  15  26
ATOM     21  C   LIG    1        9.637   6.940  -1.534  0.00  0.00    +0.150 C 
ATOM     22  C   LIG    1       10.398   6.251  -2.637  0.00  0.00    +0.090 A 
ATOM     23  C   LIG    1       11.188   6.850  -3.557  0.00  0.00    -0.100 A 
ATOM     24  C   LIG    1       11.704   5.855  -4.396  0.00  0.00    +0.250 A 
ATOM     25  N   LIG    1       11.241   4.699  -3.997  0.00  0.00    -0.290 NA
ATOM     26  N   LIG    1       10.413   4.916  -2.888  0.00  0.00    -0.340 N 
ENDBRANCH  15  26
ENDBRANCH   1  18
TORSDOF 2
