REMARK  Name = ZINCrg00000SjSvS.0
REMARK                            x       y       z     vdW  Elec       q    Type
REMARK                         _______ _______ _______ _____ _____    ______ ____
ROOT
ATOM      1  C   LIG    1       -3.572   5.885   1.582  0.00  0.00    +0.100 C 
ENDROOT
BRANCH   1   4
ATOM      2  C   LIG    1       -1.180   7.766  -0.656  0.00  0.00    +0.160 A 
ATOM      3  C   LIG    1       -1.730   7.151   0.456  0.00  0.00    -0.020 A 
ATOM      4  C   LIG    1       -2.978   6.560   0.373  0.00  0.00    -0.010 A 
ATOM      5  C   LIG    1       -3.683   6.593  -0.815  0.00  0.00    -0.040 A 
ATOM      6  C   LIG    1       -3.142   7.210  -1.927  0.00  0.00    +0.060 A 
ATOM      7  C   LIG    1       -1.890   7.798  -1.853  0.00  0.00    +0.100 A 
BRANCH   5   8
ATOM      8  N   LIG    1       -5.021   5.964  -0.897  0.00  0.00    +0.030 N 
ATOM      9  O   LIG    1       -5.543   5.511   0.106  0.00  0.00    -0.150 OA
ATOM     10  O   LIG    1       -5.600   5.901  -1.967  0.00  0.00    -0.160 OA
ENDBRANCH   5   8
BRANCH   2  12
ATOM     11  C   LIG    1        0.720   8.271   0.682  0.00  0.00    +0.250 C 
ATOM     12  O   LIG    1        0.050   8.342  -0.578  0.00  0.00    -0.290 OA
ENDBRANCH   2  12
BRANCH   7  13
ATOM     13  O   LIG    1       -1.356   8.406  -2.946  0.00  0.00    -0.290 OA
ATOM     14  C   LIG    1       -2.141   8.400  -4.140  0.00  0.00    +0.250 C 
ENDBRANCH   7  13
ENDBRANCH   1   4
BRANCH   1  15
ATOM     15  C   LIG    1       -3.426   4.369   1.444  0.00  0.00    +0.270 C 
BRANCH  15  16
ATOM     16  N   LIG    1       -4.004   3.713   2.619  0.00  0.00    -1.120 NA
ATOM     17  H   LIG    1       -4.198   4.230   3.417  0.00  0.00    +0.420 HD
BRANCH  16  18
ATOM     18  S   LIG    1       -4.326   2.089   2.586  0.00  0.00    +2.780 S 
ATOM     19  O   LIG    1       -4.840   1.756   3.869  0.00  0.00    -0.970 OA
ATOM     20  O   LIG    1       -5.033   1.844   1.378  0.00  0.00    -0.960 OA
BRANCH  18  21
ATOM     21  N   LIG    1       -2.875   1.304   2.446  0.00  0.00    -1.010 NA
ATOM     22  C   LIG    1       -2.308   0.990   1.125  0.00  0.00    +0.280 C 
ATOM     23  C   LIG    1       -0.857   1.482   1.091  0.00  0.00    +0.140 C 
ATOM     24  O   LIG    1       -0.157   0.960   2.223  0.00  0.00    -0.370 OA
ATOM     25  C   LIG    1       -0.672   1.397   3.483  0.00  0.00    +0.140 C 
ATOM     26  C   LIG    1        0.191   0.829   4.612  0.00  0.00    +0.070 C 
ATOM     27  C   LIG    1       -0.183   1.000  -0.195  0.00  0.00    +0.060 C 
ATOM     28  C   LIG    1       -2.113   0.900   3.639  0.00  0.00    +0.270 C 
ENDBRANCH  18  21
ENDBRANCH  16  18
ENDBRANCH  15  16
ENDBRANCH   1  15
TORSDOF 8
