REMARK  Name = ZINCqH0000001s6X.0
REMARK                            x       y       z     vdW  Elec       q    Type
REMARK                         _______ _______ _______ _____ _____    ______ ____
ROOT
ATOM      1  C   LIG    1        1.152   3.169   0.004  0.00  0.00    -0.690 A 
ATOM      2  C   LIG    1        1.159   1.801  -0.193  0.00  0.00    +0.140 A 
ATOM      3  C   LIG    1       -0.027   1.093  -0.179  0.00  0.00    +0.010 A 
ATOM      4  C   LIG    1       -1.228   1.759   0.026  0.00  0.00    +0.210 A 
ATOM      5  C   LIG    1       -1.232   3.133   0.228  0.00  0.00    -0.030 A 
ATOM      6  C   LIG    1       -0.042   3.835   0.214  0.00  0.00    +0.140 A 
ENDROOT
BRANCH   4   7
ATOM      7  N   LIG    1       -2.432   1.047   0.033  0.00  0.00    -0.670 N 
ATOM      8  H   LIG    1       -3.243   1.462  -0.300  0.00  0.00    +0.410 HD
ATOM      9  C   LIG    1       -2.465  -0.215   0.505  0.00  0.00    +0.570 C 
ATOM     10  O   LIG    1       -1.472  -0.701   1.012  0.00  0.00    -0.500 OA
BRANCH   9  11
ATOM     11  C   LIG    1       -3.705  -1.007   0.406  0.00  0.00    -0.140 A 
ATOM     12  C   LIG    1       -4.809  -0.512  -0.276  0.00  0.00    +0.070 A 
ATOM     13  C   LIG    1       -5.975  -1.260  -0.368  0.00  0.00    -0.010 A 
ATOM     14  C   LIG    1       -6.084  -2.493   0.198  0.00  0.00    +0.070 A 
ATOM     15  C   LIG    1       -5.007  -3.056   0.903  0.00  0.00    -0.060 A 
ATOM     16  C   LIG    1       -5.104  -4.327   1.494  0.00  0.00    +0.020 A 
ATOM     17  C   LIG    1       -4.038  -4.839   2.169  0.00  0.00    +0.020 A 
ATOM     18  C   LIG    1       -2.850  -4.121   2.285  0.00  0.00    +0.020 A 
ATOM     19  C   LIG    1       -2.721  -2.885   1.724  0.00  0.00    +0.040 A 
ATOM     20  C   LIG    1       -3.795  -2.331   1.018  0.00  0.00    -0.010 A 
ENDBRANCH   9  11
ENDBRANCH   4   7
BRANCH   1  21
ATOM     21  S   LIG    1        2.668   4.068  -0.013  0.00  0.00    +2.700 S 
ATOM     22  O   LIG    1        3.691   3.135   0.307  0.00  0.00    -0.960 OA
ATOM     23  O   LIG    1        2.438   5.256   0.731  0.00  0.00    -0.960 OA
BRANCH  21  24
ATOM     24  N   LIG    1        2.939   4.541  -1.577  0.00  0.00    -1.110 NA
ATOM     25  H   LIG    1        3.702   4.191  -2.064  0.00  0.00    +0.420 HD
BRANCH  24  27
ATOM     26  C   LIG    1        2.821   6.396  -3.166  0.00  0.00    +0.040 C 
ATOM     27  C   LIG    1        2.028   5.487  -2.225  0.00  0.00    +0.230 C 
ATOM     28  C   LIG    1        0.977   4.716  -3.026  0.00  0.00    +0.010 C 
ENDBRANCH  24  27
ENDBRANCH  21  24
ENDBRANCH   1  21
TORSDOF 5
