REMARK  Name = ZINCpk000000mzgT.0
REMARK                            x       y       z     vdW  Elec       q    Type
REMARK                         _______ _______ _______ _____ _____    ______ ____
ROOT
ATOM      1  C   LIG    1       -0.014   1.212   0.009  0.00  0.00    +0.570 C 
ATOM      2  N   LIG    1        0.948   1.837   0.715  0.00  0.00    -0.610 N 
ATOM      3  C   LIG    1        1.107   3.297   0.644  0.00  0.00    +0.310 C 
ATOM      4  C   LIG    1        0.819   3.907   2.022  0.00  0.00    +0.120 C 
ATOM      5  C   LIG    1        1.527   3.090   3.071  0.00  0.00    +0.030 A 
ATOM      6  C   LIG    1        1.989   1.831   2.876  0.00  0.00    -0.170 A 
ATOM      7  C   LIG    1        2.571   1.436   4.091  0.00  0.00    +0.010 A 
ATOM      8  N   LIG    1        2.433   2.454   4.924  0.00  0.00    -0.230 NA
ATOM      9  N   LIG    1        1.825   3.428   4.338  0.00  0.00    -0.360 N 
ATOM     10  H   LIG    1        1.613   4.279   4.751  0.00  0.00    +0.450 HD
ATOM     11  C   LIG    1        1.864   1.074   1.584  0.00  0.00    +0.380 C 
ATOM     12  O   LIG    1       -0.833   1.862  -0.612  0.00  0.00    -0.530 OA
ENDROOT
BRANCH   1  16
ATOM     13  C   LIG    1       -0.199  -3.031  -0.038  0.00  0.00    +0.160 A 
ATOM     14  C   LIG    1       -1.371  -2.285  -0.091  0.00  0.00    -0.020 A 
ATOM     15  C   LIG    1       -1.315  -0.910  -0.076  0.00  0.00    +0.120 A 
ATOM     16  C   LIG    1       -0.079  -0.263  -0.007  0.00  0.00    -0.180 A 
ATOM     17  C   LIG    1        1.098  -1.016   0.041  0.00  0.00    +0.100 A 
ATOM     18  C   LIG    1        1.033  -2.391   0.032  0.00  0.00    -0.070 A 
BRANCH  13  19
ATOM     19  O   LIG    1       -0.258  -4.386  -0.053  0.00  0.00    -0.310 OA
BRANCH  19  20
ATOM     20  C   LIG    1        0.985  -5.090   0.004  0.00  0.00    +0.350 C 
BRANCH  20  22
ATOM     21  C   LIG    1        0.525  -7.696  -0.043  0.00  0.00    +0.080 C 
ATOM     22  C   LIG    1        0.729  -6.540  -0.022  0.00  0.00    -0.210 C 
ENDBRANCH  20  22
ENDBRANCH  19  20
ENDBRANCH  13  19
ENDBRANCH   1  16
BRANCH   7  23
ATOM     23  C   LIG    1        3.211   0.139   4.383  0.00  0.00    +0.560 C 
ATOM     24  O   LIG    1        3.271  -0.716   3.522  0.00  0.00    -0.490 OA
BRANCH  23  25
ATOM     25  O   LIG    1        3.729  -0.097   5.604  0.00  0.00    -0.340 OA
ATOM     26  C   LIG    1        4.344  -1.395   5.819  0.00  0.00    +0.290 C 
ENDBRANCH  23  25
ENDBRANCH   7  23
TORSDOF 6
