REMARK  Name = ZINCpk00000ebfaf.0
REMARK                            x       y       z     vdW  Elec       q    Type
REMARK                         _______ _______ _______ _____ _____    ______ ____
ROOT
ATOM      1  C   LIG    1        1.835  -1.794  -0.025  0.00  0.00    +0.470 C 
ENDROOT
BRANCH   1   2
ATOM      2  N   LIG    1        1.344  -0.413  -0.013  0.00  0.00    -0.450 N 
ATOM      3  N   LIG    1        0.002  -0.004   0.002  0.00  0.00    -0.250 NA
ATOM      4  C   LIG    1       -0.016   1.297   0.009  0.00  0.00    +0.300 A 
ATOM      5  O   LIG    1        1.255   1.756  -0.001  0.00  0.00    -0.260 OA
ATOM      6  C   LIG    1        2.095   0.708  -0.014  0.00  0.00    +0.620 A 
ATOM      7  O   LIG    1        3.311   0.760  -0.026  0.00  0.00    -0.470 OA
BRANCH   4   8
ATOM      8  C   LIG    1       -1.232   2.139   0.020  0.00  0.00    -0.040 A 
ATOM      9  C   LIG    1       -2.495   1.546   0.017  0.00  0.00    +0.080 A 
ATOM     10  C   LIG    1       -3.625   2.336   0.033  0.00  0.00    +0.020 A 
ATOM     11  C   LIG    1       -3.509   3.715   0.039  0.00  0.00    +0.040 A 
ATOM     12  C   LIG    1       -2.260   4.309   0.036  0.00  0.00    +0.020 A 
ATOM     13  C   LIG    1       -1.121   3.530   0.027  0.00  0.00    +0.070 A 
ENDBRANCH   4   8
ENDBRANCH   1   2
BRANCH   1  14
ATOM     14  C   LIG    1        2.017  -2.274   1.392  0.00  0.00    +0.440 C 
ATOM     15  O   LIG    1        1.762  -1.539   2.317  0.00  0.00    -0.490 OA
BRANCH  14  16
ATOM     16  O   LIG    1        2.462  -3.518   1.627  0.00  0.00    -0.350 OA
BRANCH  16  17
ATOM     17  C   LIG    1        2.613  -3.913   3.016  0.00  0.00    +0.210 C 
BRANCH  17  18
ATOM     18  C   LIG    1        3.126  -5.353   3.084  0.00  0.00    +0.040 C 
BRANCH  18  19
ATOM     19  C   LIG    1        3.285  -5.769   4.547  0.00  0.00    +0.110 C 
BRANCH  19  23
ATOM     20  C   LIG    1        3.451 -10.774   4.771  0.00  0.00    +0.360 C 
ATOM     21  N   LIG    1        3.856  -9.367   4.712  0.00  0.00    -0.380 N 
ATOM     22  C   LIG    1        3.027  -8.303   4.663  0.00  0.00    +0.230 A 
ATOM     23  C   LIG    1        3.791  -7.188   4.614  0.00  0.00    -0.240 A 
ATOM     24  C   LIG    1        5.132  -7.582   4.643  0.00  0.00    +0.230 A 
ATOM     25  N   LIG    1        5.173  -8.889   4.702  0.00  0.00    -0.300 NA
ENDBRANCH  19  23
ENDBRANCH  18  19
ENDBRANCH  17  18
ENDBRANCH  16  17
ENDBRANCH  14  16
ENDBRANCH   1  14
TORSDOF 8
