REMARK  Name = ZINCqH00000081lO.0
REMARK                            x       y       z     vdW  Elec       q    Type
REMARK                         _______ _______ _______ _____ _____    ______ ____
ROOT
ATOM      1  C   LIG    1       -0.041   1.244  -0.092  0.00  0.00    +0.530 C 
ATOM      2  N   LIG    1       -1.166   1.984  -0.060  0.00  0.00    -0.600 N 
ATOM      3  C   LIG    1       -1.096   3.452  -0.030  0.00  0.00    +0.270 C 
ATOM      4  C   LIG    1       -1.952   4.005  -1.180  0.00  0.00    +0.030 C 
ATOM      5  C   LIG    1       -3.370   3.442  -1.069  0.00  0.00    +0.000 C 
ATOM      6  C   LIG    1       -3.326   1.917  -1.193  0.00  0.00    +0.180 C 
ATOM      7  C   LIG    1       -2.486   1.340  -0.049  0.00  0.00    +0.300 C 
ATOM      8  O   LIG    1       -0.111   0.038  -0.207  0.00  0.00    -0.520 OA
ENDROOT
BRANCH   1   9
ATOM      9  C   LIG    1        1.306   1.914   0.010  0.00  0.00    +0.060 C 
BRANCH   9  10
ATOM     10  C   LIG    1        1.637   2.157   1.460  0.00  0.00    -0.080 A 
ATOM     11  C   LIG    1        1.722   1.092   2.337  0.00  0.00    +0.030 A 
ATOM     12  C   LIG    1        2.031   1.315   3.666  0.00  0.00    +0.010 A 
ATOM     13  C   LIG    1        2.246   2.603   4.119  0.00  0.00    +0.010 A 
ATOM     14  C   LIG    1        2.156   3.668   3.243  0.00  0.00    +0.010 A 
ATOM     15  C   LIG    1        1.852   3.445   1.913  0.00  0.00    +0.010 A 
ENDBRANCH   9  10
BRANCH   9  16
ATOM     16  C   LIG    1        2.373   1.011  -0.613  0.00  0.00    +0.120 C 
BRANCH  16  18
ATOM     17  C   LIG    1        3.410  -0.234  -2.945  0.00  0.00    +0.140 C 
ATOM     18  S   LIG    1        2.065   0.852  -2.394  0.00  0.00    -0.260 S 
ENDBRANCH  16  18
ENDBRANCH   9  16
ENDBRANCH   1   9
BRANCH   6  19
ATOM     19  O   LIG    1       -4.654   1.394  -1.121  0.00  0.00    -0.290 OA
BRANCH  19  20
ATOM     20  C   LIG    1       -5.328   1.260  -2.291  0.00  0.00    +0.300 A 
ATOM     21  N   LIG    1       -4.749   1.614  -3.425  0.00  0.00    -0.510 NA
ATOM     22  C   LIG    1       -5.366   1.496  -4.585  0.00  0.00    +0.300 A 
ATOM     23  C   LIG    1       -6.654   1.004  -4.656  0.00  0.00    -0.030 A 
ATOM     24  C   LIG    1       -7.301   0.625  -3.488  0.00  0.00    +0.090 A 
ATOM     25  C   LIG    1       -6.625   0.756  -2.286  0.00  0.00    +0.030 A 
ATOM     26  F   LIG    1       -7.216   0.398  -1.125  0.00  0.00    -0.120 F 
ENDBRANCH  19  20
ENDBRANCH   6  19
TORSDOF 6
