REMARK  Name = ZINCrg00000SjSxC.0
REMARK                            x       y       z     vdW  Elec       q    Type
REMARK                         _______ _______ _______ _____ _____    ______ ____
ROOT
ATOM      1  N   LIG    1       -2.712  -1.882  -1.648  0.00  0.00    -0.590 N 
ATOM      2  C   LIG    1       -1.624  -1.124  -1.409  0.00  0.00    +0.500 C 
ATOM      3  O   LIG    1       -0.988  -0.667  -2.334  0.00  0.00    -0.510 OA
ENDROOT
BRANCH   1   4
ATOM      4  C   LIG    1       -3.126  -2.155  -3.027  0.00  0.00    +0.270 C 
ATOM      5  C   LIG    1       -3.407  -0.829  -3.755  0.00  0.00    +0.070 C 
ATOM      6  C   LIG    1       -3.513  -1.163  -5.264  0.00  0.00    -0.300 C 
ATOM      7  S   LIG    1       -2.125  -2.335  -5.508  0.00  0.00    +2.390 S 
ATOM      8  O   LIG    1       -2.556  -3.418  -6.320  0.00  0.00    -0.940 OA
ATOM      9  O   LIG    1       -0.953  -1.611  -5.857  0.00  0.00    -0.920 OA
ATOM     10  C   LIG    1       -1.996  -2.894  -3.771  0.00  0.00    -0.320 C 
ENDBRANCH   1   4
BRANCH   1  11
ATOM     11  C   LIG    1       -3.481  -2.434  -0.530  0.00  0.00    +0.230 C 
ATOM     12  C   LIG    1       -4.919  -1.914  -0.594  0.00  0.00    +0.030 C 
BRANCH  11  14
ATOM     13  C   LIG    1       -2.063  -4.489  -0.430  0.00  0.00    +0.020 C 
ATOM     14  C   LIG    1       -3.487  -3.962  -0.619  0.00  0.00    +0.010 C 
ENDBRANCH  11  14
ENDBRANCH   1  11
BRANCH   2  15
ATOM     15  C   LIG    1       -1.198  -0.844   0.009  0.00  0.00    +0.360 C 
BRANCH  15  16
ATOM     16  N   LIG    1        0.002  -0.004   0.002  0.00  0.00    -0.560 N 
ATOM     17  C   LIG    1        1.253  -0.480  -0.013  0.00  0.00    +0.710 C 
ATOM     18  N   LIG    1        2.176   0.501  -0.016  0.00  0.00    -0.710 N 
ATOM     19  H   LIG    1        3.140   0.392  -0.026  0.00  0.00    +0.440 HD
ATOM     20  C   LIG    1        1.435   1.768  -0.002  0.00  0.00    +0.130 C 
ATOM     21  C   LIG    1        1.765   2.567   1.254  0.00  0.00    +0.050 C 
ATOM     22  C   LIG    1        3.244   2.962   1.237  0.00  0.00    +0.020 C 
ATOM     23  C   LIG    1        3.533   3.799  -0.011  0.00  0.00    +0.010 C 
ATOM     24  C   LIG    1        3.220   2.976  -1.262  0.00  0.00    +0.020 C 
ATOM     25  C   LIG    1        1.741   2.581  -1.255  0.00  0.00    +0.050 C 
ATOM     26  O   LIG    1        1.526  -1.665  -0.022  0.00  0.00    -0.540 OA
ATOM     27  C   LIG    1       -0.016   1.345   0.009  0.00  0.00    +0.540 C 
ATOM     28  O   LIG    1       -0.991   2.066   0.018  0.00  0.00    -0.460 OA
ENDBRANCH  15  16
ENDBRANCH   2  15
TORSDOF 5
