REMARK  Name = ZINCrH00000tj1gx.0
REMARK                            x       y       z     vdW  Elec       q    Type
REMARK                         _______ _______ _______ _____ _____    ______ ____
ROOT
ATOM      1  C   LIG    1        0.514  -6.061   2.183  0.00  0.00    +0.100 C 
ATOM      2  C   LIG    1        0.336  -4.580   1.972  0.00  0.00    -0.030 A 
ATOM      3  C   LIG    1        0.027  -4.094   0.716  0.00  0.00    +0.040 A 
ATOM      4  C   LIG    1       -0.143  -2.737   0.520  0.00  0.00    -0.010 A 
ATOM      5  C   LIG    1        0.009  -1.860   1.586  0.00  0.00    +0.190 A 
ATOM      6  C   LIG    1        0.320  -2.351   2.847  0.00  0.00    +0.050 A 
ATOM      7  C   LIG    1        0.483  -3.709   3.037  0.00  0.00    -0.630 A 
ENDROOT
BRANCH   7   8
ATOM      8  S   LIG    1        0.877  -4.333   4.637  0.00  0.00    +2.690 S 
ATOM      9  O   LIG    1        1.002  -3.203   5.489  0.00  0.00    -0.960 OA
ATOM     10  O   LIG    1        1.917  -5.284   4.451  0.00  0.00    -0.950 OA
BRANCH   8  11
ATOM     11  N   LIG    1       -0.441  -5.180   5.172  0.00  0.00    -0.990 NA
ATOM     12  C   LIG    1       -1.559  -4.488   5.827  0.00  0.00    +0.290 C 
ATOM     13  C   LIG    1       -2.860  -4.863   5.100  0.00  0.00    +0.010 C 
ATOM     14  C   LIG    1       -2.997  -6.386   5.066  0.00  0.00    +0.020 C 
ATOM     15  C   LIG    1       -1.822  -6.989   4.292  0.00  0.00    +0.010 C 
ATOM     16  C   LIG    1       -0.513  -6.638   5.005  0.00  0.00    +0.290 C 
ENDBRANCH   8  11
ENDBRANCH   7   8
BRANCH   5  17
ATOM     17  N   LIG    1       -0.157  -0.486   1.390  0.00  0.00    -0.740 N 
ATOM     18  H   LIG    1       -0.054   0.125   2.136  0.00  0.00    +0.400 HD
BRANCH  17  19
ATOM     19  C   LIG    1       -0.485   0.030   0.059  0.00  0.00    +0.310 C 
BRANCH  19  20
ATOM     20  C   LIG    1       -0.608   1.531   0.119  0.00  0.00    -0.030 A 
ATOM     21  C   LIG    1       -1.853   2.119   0.180  0.00  0.00    +0.020 A 
ATOM     22  C   LIG    1       -1.967   3.500   0.239  0.00  0.00    +0.130 A 
ATOM     23  C   LIG    1       -0.833   4.296   0.228  0.00  0.00    +0.010 A 
ATOM     24  C   LIG    1        0.417   3.718   0.161  0.00  0.00    +0.110 A 
ATOM     25  F   LIG    1       -3.190   4.072   0.304  0.00  0.00    -0.130 F 
ATOM     26  C   LIG    1        0.539   2.328   0.106  0.00  0.00    -0.020 A 
BRANCH  26  27
ATOM     27  C   LIG    1        1.835   1.722   0.037  0.00  0.00    +0.240 C 
ATOM     28  N   LIG    1        2.863   1.242  -0.018  0.00  0.00    -0.390 NA
ENDBRANCH  26  27
ENDBRANCH  19  20
ENDBRANCH  17  19
ENDBRANCH   5  17
TORSDOF 6
