REMARK  Name = ZINCpk00000xO9cc.1
REMARK                            x       y       z     vdW  Elec       q    Type
REMARK                         _______ _______ _______ _____ _____    ______ ____
ROOT
ATOM      1  C   LIG    1       -2.217   1.029  -1.062  0.00  0.00    +0.540 C 
ATOM      2  N   LIG    1       -2.479  -0.206  -0.591  0.00  0.00    -0.630 N 
ATOM      3  H   LIG    1       -1.754  -0.774  -0.288  0.00  0.00    +0.410 HD
ATOM      4  O   LIG    1       -3.124   1.739  -1.441  0.00  0.00    -0.520 OA
ENDROOT
BRANCH   1  10
ATOM      5  C   LIG    1        3.046   3.126  -3.504  0.00  0.00    +0.100 C 
ATOM      6  C   LIG    1        2.037   2.011  -3.408  0.00  0.00    +0.530 C 
ATOM      7  N   LIG    1        0.930   2.167  -2.654  0.00  0.00    -0.620 N 
ATOM      8  C   LIG    1        0.585   3.366  -1.877  0.00  0.00    +0.260 C 
ATOM      9  C   LIG    1       -0.751   3.077  -1.157  0.00  0.00    +0.090 C 
ATOM     10  C   LIG    1       -0.795   1.527  -1.120  0.00  0.00    +0.090 C 
ATOM     11  C   LIG    1       -0.134   1.163  -2.472  0.00  0.00    +0.240 C 
ATOM     12  O   LIG    1        2.220   0.974  -4.010  0.00  0.00    -0.540 OA
BRANCH  10  13
ATOM     13  N   LIG    1       -0.012   1.005   0.008  0.00  0.00    -0.820 NA
ATOM     14  H   LIG    1        0.925   1.379   0.001  0.00  0.00    +0.360 HD
ATOM     15  H   LIG    1        0.002  -0.004   0.002  0.00  0.00    +0.340 HD
ENDBRANCH  10  13
ENDBRANCH   1  10
BRANCH   2  16
ATOM     16  C   LIG    1       -3.807  -0.672  -0.537  0.00  0.00    -0.000 A 
ATOM     17  C   LIG    1       -4.210  -1.887  -0.088  0.00  0.00    +0.200 A 
ATOM     18  N   LIG    1       -5.562  -1.939  -0.204  0.00  0.00    -0.370 N 
ATOM     19  N   LIG    1       -5.995  -0.719  -0.739  0.00  0.00    -0.270 NA
ATOM     20  C   LIG    1       -4.948   0.041  -0.933  0.00  0.00    +0.250 A 
BRANCH  18  21
ATOM     21  C   LIG    1       -6.417  -3.070   0.167  0.00  0.00    +0.390 C 
BRANCH  21  22
ATOM     22  C   LIG    1       -7.476  -2.604   1.132  0.00  0.00    -0.110 A 
ATOM     23  C   LIG    1       -7.236  -2.645   2.493  0.00  0.00    +0.040 A 
ATOM     24  C   LIG    1       -8.205  -2.213   3.379  0.00  0.00    +0.030 A 
ATOM     25  C   LIG    1       -9.419  -1.750   2.904  0.00  0.00    -0.020 A 
ATOM     26  C   LIG    1       -9.661  -1.715   1.542  0.00  0.00    +0.030 A 
ATOM     27 CL   LIG    1      -10.639  -1.213   4.016  0.00  0.00    -0.070 Cl
ATOM     28  C   LIG    1       -8.689  -2.142   0.657  0.00  0.00    +0.070 A 
ENDBRANCH  21  22
ENDBRANCH  18  21
ENDBRANCH   2  16
TORSDOF 5
