REMARK  Name = ZINCrD0000033EnH.0
REMARK                            x       y       z     vdW  Elec       q    Type
REMARK                         _______ _______ _______ _____ _____    ______ ____
ROOT
ATOM      1  C   LIG    1       -0.026   2.709   5.217  0.00  0.00    +0.600 C 
ATOM      2  N   LIG    1       -0.991   3.201   6.020  0.00  0.00    -0.620 N 
ATOM      3  C   LIG    1       -2.377   3.327   5.544  0.00  0.00    +0.280 C 
ATOM      4  C   LIG    1       -3.302   2.660   6.574  0.00  0.00    +0.190 C 
ATOM      5  N   LIG    1       -3.046   3.237   7.901  0.00  0.00    -0.510 NA
ATOM      6  C   LIG    1       -1.675   2.959   8.347  0.00  0.00    +0.190 C 
ATOM      7  C   LIG    1       -0.684   3.633   7.392  0.00  0.00    +0.300 C 
ATOM      8  O   LIG    1        1.034   2.346   5.692  0.00  0.00    -0.530 OA
ENDROOT
BRANCH   1  12
ATOM      9  C   LIG    1       -1.038   2.703   1.418  0.00  0.00    -0.210 A 
ATOM     10  C   LIG    1        0.114   2.042   1.586  0.00  0.00    -0.120 A 
ATOM     11  C   LIG    1        0.568   1.981   2.881  0.00  0.00    +0.110 A 
ATOM     12  C   LIG    1       -0.254   2.612   3.773  0.00  0.00    -0.280 A 
ATOM     13  C   LIG    1        0.861   1.415   0.436  0.00  0.00    +0.110 C 
ATOM     14  S   LIG    1       -1.628   3.287   2.909  0.00  0.00    +0.210 S 
BRANCH   9  16
ATOM     15  C   LIG    1       -2.688   1.742  -0.165  0.00  0.00    +0.030 C 
ATOM     16  C   LIG    1       -1.723   2.902   0.091  0.00  0.00    +0.090 C 
ENDBRANCH   9  16
ENDBRANCH   1  12
BRANCH   5  17
ATOM     17  C   LIG    1       -4.027   2.755   8.882  0.00  0.00    +0.260 C 
BRANCH  17  18
ATOM     18  C   LIG    1       -3.934   1.254   8.990  0.00  0.00    +0.480 C 
ATOM     19  N   LIG    1       -4.699   0.594   9.882  0.00  0.00    -0.670 N 
ATOM     20  H   LIG    1       -5.354   1.077  10.411  0.00  0.00    +0.410 HD
ATOM     21  O   LIG    1       -3.172   0.641   8.274  0.00  0.00    -0.510 OA
BRANCH  19  22
ATOM     22  C   LIG    1       -4.550  -0.788  10.045  0.00  0.00    +0.130 A 
ATOM     23  C   LIG    1       -4.187  -1.581   8.964  0.00  0.00    +0.020 A 
ATOM     24  C   LIG    1       -4.033  -2.943   9.130  0.00  0.00    +0.020 A 
ATOM     25  C   LIG    1       -4.253  -3.520  10.367  0.00  0.00    -0.100 A 
ATOM     26  C   LIG    1       -4.620  -2.733  11.444  0.00  0.00    +0.030 A 
ATOM     27  C   LIG    1       -4.091  -5.008  10.543  0.00  0.00    +0.100 C 
ATOM     28  C   LIG    1       -4.769  -1.369  11.287  0.00  0.00    -0.010 A 
ENDBRANCH  19  22
ENDBRANCH  17  18
ENDBRANCH   5  17
TORSDOF 5
