REMARK  Name = ZINCpe00000VVGjr.0
REMARK                            x       y       z     vdW  Elec       q    Type
REMARK                         _______ _______ _______ _____ _____    ______ ____
ROOT
ATOM      1  N   LIG    1       -3.305   1.381   1.366  0.00  0.00    -0.530 NA
ATOM      2  C   LIG    1       -2.480   0.331   1.980  0.00  0.00    +0.180 C 
ATOM      3  C   LIG    1       -2.852   0.193   3.458  0.00  0.00    +0.180 C 
ATOM      4  N   LIG    1       -4.281  -0.131   3.573  0.00  0.00    -0.530 NA
ATOM      5  C   LIG    1       -5.106   0.918   2.959  0.00  0.00    +0.180 C 
ATOM      6  C   LIG    1       -4.734   1.057   1.481  0.00  0.00    +0.180 C 
ENDROOT
BRANCH   1   7
ATOM      7  C   LIG    1       -2.925   1.596  -0.036  0.00  0.00    +0.250 C 
BRANCH   7  10
ATOM      8  N   LIG    1        0.144   3.561  -0.157  0.00  0.00    -0.370 N 
ATOM      9  C   LIG    1       -1.200   3.474  -0.081  0.00  0.00    +0.250 A 
ATOM     10  C   LIG    1       -1.529   2.161  -0.097  0.00  0.00    -0.230 A 
ATOM     11  C   LIG    1       -0.345   1.421  -0.178  0.00  0.00    +0.240 A 
ATOM     12  N   LIG    1        0.659   2.260  -0.217  0.00  0.00    -0.300 NA
BRANCH   8  13
ATOM     13  C   LIG    1        0.928   4.799  -0.175  0.00  0.00    +0.330 C 
BRANCH  13  14
ATOM     14  C   LIG    1        1.966   4.761   0.948  0.00  0.00    +0.180 C 
BRANCH  14  15
ATOM     15  O   LIG    1        2.731   5.969   0.931  0.00  0.00    -0.570 OA
ATOM     16  H   LIG    1        3.410   6.014   1.617  0.00  0.00    +0.390 HD
ENDBRANCH  14  15
ENDBRANCH  13  14
ENDBRANCH   8  13
ENDBRANCH   7  10
ENDBRANCH   1   7
BRANCH   4  17
ATOM     17  C   LIG    1       -4.661  -0.347   4.975  0.00  0.00    +0.200 C 
BRANCH  17  18
ATOM     18  C   LIG    1       -4.107   0.791   5.835  0.00  0.00    +0.220 C 
BRANCH  18  19
ATOM     19  C   LIG    1       -4.367   0.495   7.289  0.00  0.00    -0.090 A 
ATOM     20  C   LIG    1       -5.613   0.744   7.833  0.00  0.00    +0.010 A 
ATOM     21  C   LIG    1       -5.855   0.468   9.166  0.00  0.00    +0.060 A 
ATOM     22  C   LIG    1       -4.847  -0.048   9.959  0.00  0.00    -0.010 A 
ATOM     23  C   LIG    1       -3.596  -0.292   9.416  0.00  0.00    +0.100 A 
ATOM     24  F   LIG    1       -2.611  -0.796  10.191  0.00  0.00    -0.140 F 
ATOM     25  C   LIG    1       -3.358  -0.020   8.080  0.00  0.00    -0.010 A 
ENDBRANCH  18  19
BRANCH  18  26
ATOM     26  O   LIG    1       -4.751   2.016   5.476  0.00  0.00    -0.540 OA
ATOM     27  H   LIG    1       -5.710   2.006   5.598  0.00  0.00    +0.370 HD
ENDBRANCH  18  26
ENDBRANCH  17  18
ENDBRANCH   4  17
TORSDOF 9
