REMARK  Name = ZINCvU0000000FxD.0
REMARK                            x       y       z     vdW  Elec       q    Type
REMARK                         _______ _______ _______ _____ _____    ______ ____
ROOT
ATOM      1  N   LIG    1       -2.548   3.518   0.044  0.00  0.00    -0.480 N 
ATOM      2  C   LIG    1       -1.222   3.132   0.039  0.00  0.00    +0.060 A 
ATOM      3  C   LIG    1       -0.016   3.818   0.033  0.00  0.00    +0.010 A 
ATOM      4  C   LIG    1        1.170   3.114   0.030  0.00  0.00    +0.030 A 
ATOM      5  C   LIG    1        1.164   1.727   0.035  0.00  0.00    +0.000 A 
ATOM      6  C   LIG    1       -0.014   1.035   0.042  0.00  0.00    +0.070 A 
ATOM      7  C   LIG    1       -1.228   1.727   0.038  0.00  0.00    +0.050 A 
ATOM      8  N   LIG    1       -2.528   1.336   0.050  0.00  0.00    -0.480 NA
ATOM      9  C   LIG    1       -3.299   2.384   0.050  0.00  0.00    +0.290 A 
ENDROOT
BRANCH   9  10
ATOM     10  C   LIG    1       -4.806   2.347   0.056  0.00  0.00    +0.090 C 
ATOM     11  C   LIG    1       -5.336   1.585   1.292  0.00  0.00    +0.090 C 
ATOM     12  C   LIG    1       -6.545   0.836   0.776  0.00  0.00    +0.520 C 
ATOM     13  N   LIG    1       -6.526   0.797  -0.567  0.00  0.00    -0.560 N 
ATOM     14  O   LIG    1       -7.407   0.344   1.473  0.00  0.00    -0.500 OA
ATOM     15  C   LIG    1       -5.342   1.478  -1.104  0.00  0.00    +0.300 C 
BRANCH  13  16
ATOM     16  C   LIG    1       -7.508   0.185  -1.353  0.00  0.00    +0.170 A 
ATOM     17  C   LIG    1       -8.527  -0.542  -0.752  0.00  0.00    -0.010 A 
ATOM     18  C   LIG    1       -9.499  -1.141  -1.531  0.00  0.00    -0.050 A 
ATOM     19  C   LIG    1       -9.451  -1.025  -2.908  0.00  0.00    -0.030 A 
ATOM     20  C   LIG    1       -8.434  -0.307  -3.510  0.00  0.00    -0.050 A 
ATOM     21  C   LIG    1       -8.386  -0.184  -5.011  0.00  0.00    +0.100 C 
ATOM     22  C   LIG    1      -10.608  -1.925  -0.879  0.00  0.00    +0.090 C 
ATOM     23  C   LIG    1       -7.463   0.299  -2.737  0.00  0.00    -0.040 A 
ENDBRANCH  13  16
ENDBRANCH   9  10
BRANCH   1  24
ATOM     24  C   LIG    1       -3.052   4.894   0.042  0.00  0.00    +0.350 C 
BRANCH  24  30
ATOM     25  C   LIG    1       -5.913   5.377  -4.036  0.00  0.00    +0.090 C 
ATOM     26  C   LIG    1       -4.599   5.593  -3.331  0.00  0.00    -0.080 A 
ATOM     27  C   LIG    1       -3.557   6.220  -3.988  0.00  0.00    +0.020 A 
ATOM     28  C   LIG    1       -2.351   6.417  -3.341  0.00  0.00    +0.020 A 
ATOM     29  C   LIG    1       -2.189   5.992  -2.036  0.00  0.00    +0.020 A 
ATOM     30  C   LIG    1       -3.230   5.361  -1.380  0.00  0.00    -0.110 A 
ATOM     31  C   LIG    1       -4.435   5.164  -2.026  0.00  0.00    +0.020 A 
ENDBRANCH  24  30
ENDBRANCH   1  24
TORSDOF 4
