REMARK  Name = ZINCtV00000L6jYN.0
REMARK                            x       y       z     vdW  Elec       q    Type
REMARK                         _______ _______ _______ _____ _____    ______ ____
ROOT
ATOM      1  N   LIG    1       -1.112  -0.707   0.122  0.00  0.00    -0.650 N 
ATOM      2  H   LIG    1       -1.965  -0.246   0.130  0.00  0.00    +0.420 HD
ATOM      3  C   LIG    1        0.033  -0.005   0.010  0.00  0.00    +0.690 C 
ATOM      4  N   LIG    1        0.000   1.342   0.010  0.00  0.00    -0.610 N 
ATOM      5  C   LIG    1       -1.312   2.018  -0.007  0.00  0.00    +0.250 C 
ATOM      6  C   LIG    1       -1.335   3.224  -0.958  0.00  0.00    +0.020 C 
ATOM      7  C   LIG    1       -0.593   2.891  -2.229  0.00  0.00    +0.010 C 
ATOM      8  C   LIG    1        0.867   3.310  -2.087  0.00  0.00    +0.000 C 
ATOM      9  C   LIG    1        1.724   2.310  -1.433  0.00  0.00    +0.020 C 
ATOM     10  C   LIG    1        1.252   2.066   0.021  0.00  0.00    +0.310 C 
ATOM     11  O   LIG    1        1.095  -0.588  -0.091  0.00  0.00    -0.520 OA
ENDROOT
BRANCH  10  12
ATOM     12  C   LIG    1        2.291   1.260   0.758  0.00  0.00    -0.020 A 
ATOM     13  C   LIG    1        2.065   0.827   2.055  0.00  0.00    -0.040 A 
ATOM     14  C   LIG    1        3.039   0.086   2.697  0.00  0.00    +0.250 A 
ATOM     15  N   LIG    1        4.176  -0.201   2.093  0.00  0.00    -0.490 NA
ATOM     16  C   LIG    1        4.427   0.199   0.862  0.00  0.00    +0.250 A 
ATOM     17  C   LIG    1        3.498   0.939   0.155  0.00  0.00    -0.020 A 
ENDBRANCH  10  12
BRANCH   1  22
ATOM     18  C   LIG    1       -2.176  -2.972   0.348  0.00  0.00    -0.200 A 
ATOM     19  C   LIG    1       -1.605  -4.216   0.414  0.00  0.00    +0.060 A 
ATOM     20  O   LIG    1       -0.275  -4.025   0.331  0.00  0.00    +0.120 OA
ATOM     21  N   LIG    1       -0.001  -2.853   0.223  0.00  0.00    -0.330 NA
ATOM     22  C   LIG    1       -1.071  -2.098   0.226  0.00  0.00    +0.270 A 
BRANCH  19  23
ATOM     23  C   LIG    1       -2.305  -5.502   0.547  0.00  0.00    -0.140 A 
ATOM     24  C   LIG    1       -1.705  -6.723   0.603  0.00  0.00    +0.070 A 
ATOM     25  C   LIG    1       -2.576  -7.782   0.734  0.00  0.00    +0.040 A 
ATOM     26  C   LIG    1       -3.873  -7.450   0.774  0.00  0.00    -0.150 A 
ATOM     27 CL   LIG    1       -5.185  -8.576   0.926  0.00  0.00    -0.000 Cl
ATOM     28  S   LIG    1       -4.049  -5.705   0.651  0.00  0.00    +0.230 S 
ENDBRANCH  19  23
BRANCH  18  30
ATOM     29  C   LIG    1       -4.208  -2.606  -1.025  0.00  0.00    +0.040 C 
ATOM     30  C   LIG    1       -3.640  -2.617   0.396  0.00  0.00    +0.110 C 
ENDBRANCH  18  30
ENDBRANCH   1  22
TORSDOF 4
