REMARK  Name = ZINCkj000005krGM.0
REMARK                            x       y       z     vdW  Elec       q    Type
REMARK                         _______ _______ _______ _____ _____    ______ ____
ROOT
ATOM      1  N   LIG    1       -0.573   1.645   3.710  0.00  0.00    -0.510 N 
ATOM      2  H   LIG    1       -1.422   1.102   3.769  0.00  0.00    +0.430 HD
ATOM      3  H   LIG    1       -0.804   2.627   3.688  0.00  0.00    +0.420 HD
ENDROOT
BRANCH   1   4
ATOM      4  C   LIG    1        0.269   1.366   4.881  0.00  0.00    +0.320 C 
BRANCH   4  12
ATOM      5  C   LIG    1        0.501   4.033   5.968  0.00  0.00    +0.100 C 
ATOM      6  C   LIG    1       -0.367   3.011   6.657  0.00  0.00    -0.050 A 
ATOM      7  C   LIG    1       -1.056   3.351   7.806  0.00  0.00    +0.020 A 
ATOM      8  C   LIG    1       -1.847   2.412   8.441  0.00  0.00    +0.070 A 
ATOM      9  C   LIG    1       -1.954   1.135   7.923  0.00  0.00    +0.020 A 
ATOM     10  C   LIG    1       -1.269   0.796   6.771  0.00  0.00    -0.050 A 
ATOM     11  C   LIG    1       -1.386  -0.597   6.207  0.00  0.00    +0.100 C 
ATOM     12  C   LIG    1       -0.478   1.735   6.136  0.00  0.00    -0.180 A 
ENDBRANCH   4  12
ENDBRANCH   1   4
BRANCH   1  13
ATOM     13  C   LIG    1        0.155   1.285   2.486  0.00  0.00    +0.260 C 
BRANCH  13  14
ATOM     14  C   LIG    1       -0.723   1.576   1.267  0.00  0.00    +0.100 C 
ATOM     15  C   LIG    1       -0.013   1.086   0.008  0.00  0.00    +0.120 C 
ATOM     16  C   LIG    1       -0.749   1.591  -1.235  0.00  0.00    -0.300 C 
ATOM     17  S   LIG    1       -2.416   0.870  -1.269  0.00  0.00    +2.420 S 
ATOM     18  C   LIG    1       -3.045   1.352   0.366  0.00  0.00    -0.310 C 
ATOM     19  O   LIG    1       -2.299  -0.545  -1.314  0.00  0.00    -0.930 OA
ATOM     20  O   LIG    1       -3.180   1.538  -2.264  0.00  0.00    -0.920 OA
ATOM     21  C   LIG    1       -2.064   0.872   1.438  0.00  0.00    +0.040 C 
BRANCH  14  22
ATOM     22  O   LIG    1       -0.938   2.985   1.168  0.00  0.00    -0.530 OA
ATOM     23  H   LIG    1       -1.386   3.369   1.933  0.00  0.00    +0.380 HD
ENDBRANCH  14  22
ENDBRANCH  13  14
ENDBRANCH   1  13
TORSDOF 5
