REMARK  Name = ZINCtV00000L6kmp.0
REMARK                            x       y       z     vdW  Elec       q    Type
REMARK                         _______ _______ _______ _____ _____    ______ ____
ROOT
ATOM      1  O   LIG    1        3.461   7.184  -0.618  0.00  0.00    -0.490 OA
ATOM      2  C   LIG    1        3.496   6.001  -0.331  0.00  0.00    +0.550 A 
ATOM      3  C   LIG    1        4.772   5.279  -0.224  0.00  0.00    -0.190 A 
ATOM      4  C   LIG    1        5.994   5.912  -0.446  0.00  0.00    +0.100 A 
ATOM      5  C   LIG    1        7.163   5.191  -0.334  0.00  0.00    +0.000 A 
ATOM      6  C   LIG    1        7.132   3.842  -0.003  0.00  0.00    +0.070 A 
ATOM      7  C   LIG    1        5.937   3.198   0.221  0.00  0.00    +0.030 A 
ATOM      8  C   LIG    1        4.737   3.907   0.113  0.00  0.00    +0.150 A 
ATOM      9  N   LIG    1        3.546   3.312   0.323  0.00  0.00    -0.500 NA
ATOM     10  C   LIG    1        2.421   3.973   0.223  0.00  0.00    +0.430 A 
ATOM     11  N   LIG    1        2.361   5.300  -0.104  0.00  0.00    -0.540 N 
ENDROOT
BRANCH  10  12
ATOM     12  C   LIG    1        1.155   3.250   0.469  0.00  0.00    -0.060 A 
ATOM     13  C   LIG    1        0.963   2.561   1.668  0.00  0.00    +0.090 A 
ATOM     14  C   LIG    1       -0.220   1.888   1.891  0.00  0.00    +0.030 A 
ATOM     15  C   LIG    1       -1.214   1.890   0.926  0.00  0.00    -0.010 A 
ATOM     16  C   LIG    1       -1.031   2.576  -0.263  0.00  0.00    +0.040 A 
ATOM     17 CL   LIG    1       -2.697   1.035   1.212  0.00  0.00    -0.060 Cl
ATOM     18  C   LIG    1        0.148   3.253  -0.498  0.00  0.00    +0.050 A 
ENDBRANCH  10  12
BRANCH  11  19
ATOM     19  C   LIG    1        1.060   5.967  -0.202  0.00  0.00    +0.320 C 
BRANCH  19  20
ATOM     20  C   LIG    1        0.612   6.417   1.190  0.00  0.00    +0.200 C 
BRANCH  20  21
ATOM     21  O   LIG    1        1.511   7.412   1.682  0.00  0.00    -0.290 OA
BRANCH  21  22
ATOM     22  C   LIG    1        1.253   7.921   2.916  0.00  0.00    +0.140 A 
ATOM     23  C   LIG    1        0.154   7.476   3.634  0.00  0.00    -0.040 A 
ATOM     24  C   LIG    1       -0.104   7.991   4.891  0.00  0.00    +0.080 A 
ATOM     25  C   LIG    1        0.727   8.959   5.427  0.00  0.00    -0.060 A 
ATOM     26  C   LIG    1        1.822   9.409   4.710  0.00  0.00    +0.090 A 
ATOM     27 CL   LIG    1        0.396   9.609   7.002  0.00  0.00    -0.060 Cl
ATOM     28  C   LIG    1        2.086   8.892   3.455  0.00  0.00    -0.060 A 
ATOM     29 CL   LIG    1        3.459   9.457   2.555  0.00  0.00    -0.030 Cl
ENDBRANCH  21  22
ENDBRANCH  20  21
ENDBRANCH  19  20
ENDBRANCH  11  19
TORSDOF 5
