REMARK  Name = ZINCrD00000F5Lob.0
REMARK                            x       y       z     vdW  Elec       q    Type
REMARK                         _______ _______ _______ _____ _____    ______ ____
ROOT
ATOM      1  N   LIG    1        2.439   2.977   0.066  0.00  0.00    -0.550 N 
ENDROOT
BRANCH   1   5
ATOM      2  C   LIG    1        1.235  -0.378  -0.027  0.00  0.00    +0.320 A 
ATOM      3  N   LIG    1       -0.017  -0.032   0.037  0.00  0.00    -0.490 NA
ATOM      4  S   LIG    1       -0.024   1.666   0.108  0.00  0.00    +0.200 S 
ATOM      5  C   LIG    1        1.692   1.813   0.047  0.00  0.00    +0.340 A 
ATOM      6  N   LIG    1        2.137   0.576  -0.022  0.00  0.00    -0.570 NA
BRANCH   2   7
ATOM      7  C   LIG    1        1.638  -1.829  -0.103  0.00  0.00    +0.250 C 
BRANCH   7   8
ATOM      8  C   LIG    1        1.717  -2.253  -1.547  0.00  0.00    +0.470 C 
ATOM      9  O   LIG    1        1.471  -1.459  -2.424  0.00  0.00    -0.500 OA
BRANCH   8  11
ATOM     10  C   LIG    1        2.116  -3.851  -3.269  0.00  0.00    +0.270 C 
ATOM     11  O   LIG    1        2.060  -3.513  -1.858  0.00  0.00    -0.360 OA
ENDBRANCH   8  11
ENDBRANCH   7   8
ENDBRANCH   2   7
ENDBRANCH   1   5
BRANCH   1  12
ATOM     12  C   LIG    1        1.768   4.276   0.147  0.00  0.00    +0.340 C 
BRANCH  12  13
ATOM     13  C   LIG    1        1.694   4.723   1.609  0.00  0.00    -0.040 C 
ATOM     14  C   LIG    1        0.920   6.006   1.917  0.00  0.00    -0.040 C 
ATOM     15  C   LIG    1        0.386   6.208   3.349  0.00  0.00    +0.040 C 
ATOM     16  C   LIG    1        1.558   6.889   4.099  0.00  0.00    +0.020 C 
ATOM     17  C   LIG    1        2.801   6.175   3.510  0.00  0.00    +0.040 C 
ATOM     18  C   LIG    1        2.456   5.991   1.998  0.00  0.00    -0.050 C 
ENDBRANCH  12  13
ENDBRANCH   1  12
BRANCH   1  19
ATOM     19  C   LIG    1        3.901   2.910   0.005  0.00  0.00    +0.380 C 
BRANCH  19  20
ATOM     20  C   LIG    1        4.341   2.835  -1.434  0.00  0.00    -0.160 A 
ATOM     21  C   LIG    1        3.414   2.955  -2.459  0.00  0.00    +0.080 A 
ATOM     22  C   LIG    1        3.866   2.887  -3.768  0.00  0.00    -0.040 A 
ATOM     23  C   LIG    1        5.213   2.691  -4.007  0.00  0.00    +0.130 A 
ATOM     24  N   LIG    1        6.065   2.575  -3.007  0.00  0.00    -0.480 NA
ATOM     25  C   LIG    1        5.713   2.608  -5.426  0.00  0.00    +0.120 C 
ATOM     26  C   LIG    1        5.672   2.641  -1.750  0.00  0.00    +0.140 A 
ATOM     27  C   LIG    1        6.687   2.502  -0.645  0.00  0.00    +0.120 C 
ENDBRANCH  19  20
ENDBRANCH   1  19
TORSDOF 8
