REMARK  Name = ZINCrD000000ASys.0
REMARK                            x       y       z     vdW  Elec       q    Type
REMARK                         _______ _______ _______ _____ _____    ______ ____
ROOT
ATOM      1  C   LIG    1       -3.600   7.221  -0.294  0.00  0.00    -0.260 A 
ATOM      2  C   LIG    1       -3.566   5.824  -0.199  0.00  0.00    +0.430 A 
ATOM      3  N   LIG    1       -2.401   5.221  -0.055  0.00  0.00    -0.530 NA
ATOM      4  C   LIG    1       -1.274   5.919  -0.000  0.00  0.00    +0.580 A 
ATOM      5  N   LIG    1       -1.265   7.243  -0.082  0.00  0.00    -0.530 NA
ATOM      6  C   LIG    1       -2.387   7.921  -0.232  0.00  0.00    +0.200 A 
ENDROOT
BRANCH   1   8
ATOM      7  O   LIG    1       -4.884   9.140  -0.639  0.00  0.00    -0.510 OA
ATOM      8  C   LIG    1       -4.879   7.938  -0.456  0.00  0.00    +0.570 C 
ATOM      9  N   LIG    1       -6.043   7.260  -0.402  0.00  0.00    -0.720 N 
ATOM     10  H   LIG    1       -6.039   6.301  -0.256  0.00  0.00    +0.400 HD
BRANCH   9  11
ATOM     11  C   LIG    1       -7.313   7.972  -0.563  0.00  0.00    +0.290 C 
BRANCH  11  12
ATOM     12  C   LIG    1       -8.472   6.977  -0.459  0.00  0.00    -0.020 C 
ATOM     13  C   LIG    1       -8.414   6.000  -1.637  0.00  0.00    +0.000 C 
ATOM     14  C   LIG    1       -9.620   5.059  -1.569  0.00  0.00    +0.210 C 
ATOM     15  O   LIG    1      -10.824   5.829  -1.582  0.00  0.00    -0.380 OA
ATOM     16  C   LIG    1      -10.955   6.727  -0.478  0.00  0.00    +0.210 C 
ATOM     17  C   LIG    1       -9.802   7.734  -0.502  0.00  0.00    +0.010 C 
ENDBRANCH  11  12
ENDBRANCH   9  11
ENDBRANCH   1   8
BRANCH   6  18
ATOM     18  C   LIG    1       -2.365   9.424  -0.329  0.00  0.00    +0.530 C 
ATOM     19  F   LIG    1       -2.864   9.819  -1.575  0.00  0.00    -0.150 F 
ATOM     20  F   LIG    1       -1.051   9.882  -0.187  0.00  0.00    -0.160 F 
ATOM     21  F   LIG    1       -3.161   9.969   0.685  0.00  0.00    -0.150 F 
ENDBRANCH   6  18
BRANCH   4  22
ATOM     22  N   LIG    1       -0.077   5.248   0.151  0.00  0.00    -0.620 N 
ATOM     23  H   LIG    1        0.747   5.747   0.268  0.00  0.00    +0.430 HD
BRANCH  22  24
ATOM     24  C   LIG    1       -0.052   3.850   0.135  0.00  0.00    +0.150 A 
ATOM     25  C   LIG    1       -0.946   3.147  -0.662  0.00  0.00    +0.020 A 
ATOM     26  C   LIG    1       -0.918   1.766  -0.675  0.00  0.00    +0.030 A 
ATOM     27  C   LIG    1       -0.001   1.084   0.103  0.00  0.00    +0.000 A 
ATOM     28  C   LIG    1        0.887   1.781   0.901  0.00  0.00    +0.030 A 
ATOM     29  C   LIG    1        0.868   3.162   0.916  0.00  0.00    -0.010 A 
ENDBRANCH  22  24
ENDBRANCH   4  22
TORSDOF 6
