REMARK  Name = ZINCpk00000xMe82.0
REMARK                            x       y       z     vdW  Elec       q    Type
REMARK                         _______ _______ _______ _____ _____    ______ ____
ROOT
ATOM      1  N   LIG    1       -1.697  -0.410  -4.461  0.00  0.00    -0.680 NA
ATOM      2  H   LIG    1       -1.234  -1.219  -4.192  0.00  0.00    +0.410 HD
ENDROOT
BRANCH   1   7
ATOM      3  N   LIG    1       -1.207  -0.739  -6.834  0.00  0.00    -0.370 N 
ATOM      4  N   LIG    1       -1.537   0.007  -7.980  0.00  0.00    -0.090 NA
ATOM      5  N   LIG    1       -2.213   1.029  -7.578  0.00  0.00    -0.010 NA
ATOM      6  N   LIG    1       -2.348   1.002  -6.301  0.00  0.00    -0.360 NA
ATOM      7  C   LIG    1       -1.755  -0.058  -5.797  0.00  0.00    +0.500 C 
BRANCH   3  12
ATOM      8  C   LIG    1        1.771  -5.565  -6.604  0.00  0.00    +0.100 C 
ATOM      9  C   LIG    1        0.980  -4.284  -6.665  0.00  0.00    -0.070 A 
ATOM     10  C   LIG    1       -0.036  -4.144  -7.592  0.00  0.00    +0.040 A 
ATOM     11  C   LIG    1       -0.763  -2.970  -7.650  0.00  0.00    +0.050 A 
ATOM     12  C   LIG    1       -0.472  -1.931  -6.777  0.00  0.00    +0.120 A 
ATOM     13  C   LIG    1        0.553  -2.073  -5.851  0.00  0.00    +0.010 A 
ATOM     14  C   LIG    1        1.272  -3.250  -5.794  0.00  0.00    +0.040 A 
ENDBRANCH   3  12
ENDBRANCH   1   7
BRANCH   1  15
ATOM     15  C   LIG    1       -2.334   0.440  -3.451  0.00  0.00    +0.290 C 
ATOM     16  C   LIG    1       -1.650   0.238  -2.083  0.00  0.00    +0.050 C 
ATOM     17  C   LIG    1       -2.811   0.319  -1.062  0.00  0.00    +0.000 C 
ATOM     18  C   LIG    1       -3.969  -0.402  -1.797  0.00  0.00    +0.000 C 
ATOM     19  C   LIG    1       -3.806   0.031  -3.271  0.00  0.00    +0.150 C 
BRANCH  19  20
ATOM     20  O   LIG    1       -4.660   1.143  -3.547  0.00  0.00    -0.550 OA
ATOM     21  H   LIG    1       -5.603   0.948  -3.451  0.00  0.00    +0.380 HD
ENDBRANCH  19  20
BRANCH  17  22
ATOM     22  C   LIG    1       -2.449  -0.415   0.230  0.00  0.00    +0.330 C 
BRANCH  22  23
ATOM     23  N   LIG    1       -3.541  -0.272   1.196  0.00  0.00    -0.370 N 
ATOM     24  C   LIG    1       -4.193  -1.280   1.813  0.00  0.00    +0.220 A 
ATOM     25  C   LIG    1       -5.125  -0.732   2.626  0.00  0.00    -0.120 A 
ATOM     26  C   LIG    1       -5.047   0.659   2.495  0.00  0.00    +0.220 A 
ATOM     27  N   LIG    1       -4.098   0.935   1.638  0.00  0.00    -0.290 NA
ENDBRANCH  22  23
ENDBRANCH  17  22
ENDBRANCH   1  15
TORSDOF 6
