REMARK  Name = ZINCpk00000KfLaS.0
REMARK                            x       y       z     vdW  Elec       q    Type
REMARK                         _______ _______ _______ _____ _____    ______ ____
ROOT
ATOM      1  C   LIG    1       -0.023   0.040  -0.087  0.00  0.00    +0.230 C 
ATOM      2  C   LIG    1       -0.271   1.562  -0.131  0.00  0.00    +0.050 C 
ATOM      3  C   LIG    1        1.165   2.146  -0.205  0.00  0.00    +0.040 C 
ATOM      4  C   LIG    1        1.886   1.088  -1.077  0.00  0.00    +0.280 C 
ATOM      5  N   LIG    1        1.309  -0.203  -0.660  0.00  0.00    -0.590 N 
ATOM      6  C   LIG    1        1.904  -1.406  -0.783  0.00  0.00    +0.590 C 
ATOM      7  O   LIG    1        1.301  -2.416  -0.479  0.00  0.00    -0.520 OA
ENDROOT
BRANCH   6   8
ATOM      8  C   LIG    1        3.292  -1.496  -1.289  0.00  0.00    +0.010 A 
ATOM      9  C   LIG    1        3.912  -2.744  -1.418  0.00  0.00    +0.150 A 
ATOM     10  C   LIG    1        5.211  -2.777  -1.896  0.00  0.00    +0.040 A 
ATOM     11  C   LIG    1        5.822  -1.567  -2.219  0.00  0.00    +0.320 A 
ATOM     12  N   LIG    1        5.157  -0.428  -2.065  0.00  0.00    -0.250 NA
ATOM     13  N   LIG    1        3.951  -0.394  -1.627  0.00  0.00    -0.170 NA
BRANCH  11  14
ATOM     14  N   LIG    1        7.130  -1.552  -2.704  0.00  0.00    -0.410 N 
ATOM     15  C   LIG    1        7.887  -0.440  -2.976  0.00  0.00    +0.160 A 
ATOM     16  C   LIG    1        9.080  -0.880  -3.417  0.00  0.00    +0.160 A 
ATOM     17  N   LIG    1        9.056  -2.221  -3.426  0.00  0.00    -0.470 NA
ATOM     18  C   LIG    1        7.894  -2.637  -3.001  0.00  0.00    +0.420 A 
ENDBRANCH  11  14
ENDBRANCH   6   8
BRANCH   1  19
ATOM     19  C   LIG    1       -1.088  -0.684  -0.914  0.00  0.00    +0.320 C 
BRANCH  19  23
ATOM     20  C   LIG    1       -5.908   0.493  -0.207  0.00  0.00    +0.110 C 
ATOM     21  C   LIG    1       -4.499   0.011   0.024  0.00  0.00    -0.240 A 
ATOM     22  C   LIG    1       -3.498   0.012  -0.886  0.00  0.00    +0.220 A 
ATOM     23  N   LIG    1       -2.400  -0.499  -0.290  0.00  0.00    -0.370 N 
ATOM     24  N   LIG    1       -2.736  -0.817   1.033  0.00  0.00    -0.290 NA
ATOM     25  C   LIG    1       -3.994  -0.510   1.220  0.00  0.00    +0.230 A 
ENDBRANCH  19  23
ENDBRANCH   1  19
TORSDOF 4
