REMARK  Name = ZINCpk00000xI8cf.0
REMARK                            x       y       z     vdW  Elec       q    Type
REMARK                         _______ _______ _______ _____ _____    ______ ____
ROOT
ATOM      1  C   LIG    1       -2.847   2.246   5.146  0.00  0.00    +0.150 C 
ATOM      2  C   LIG    1       -1.793   2.753   6.163  0.00  0.00    +0.200 C 
ATOM      3  O   LIG    1       -2.594   3.284   7.241  0.00  0.00    -0.360 OA
ATOM      4  C   LIG    1       -3.700   2.384   7.425  0.00  0.00    +0.210 C 
ATOM      5  C   LIG    1       -3.951   1.686   6.074  0.00  0.00    +0.240 C 
ENDROOT
BRANCH   5   6
ATOM      6  N   LIG    1       -3.814   0.234   6.215  0.00  0.00    -0.710 N 
ATOM      7  H   LIG    1       -2.951  -0.187   6.082  0.00  0.00    +0.410 HD
ATOM      8  C   LIG    1       -4.889  -0.517   6.529  0.00  0.00    +0.570 C 
ATOM      9  O   LIG    1       -5.971   0.011   6.696  0.00  0.00    -0.540 OA
BRANCH   8  10
ATOM     10  C   LIG    1       -4.751  -1.980   6.670  0.00  0.00    -0.170 A 
ATOM     11  C   LIG    1       -3.510  -2.592   6.480  0.00  0.00    +0.090 A 
ATOM     12  C   LIG    1       -3.383  -3.954   6.615  0.00  0.00    -0.010 A 
ATOM     13  C   LIG    1       -4.490  -4.739   6.941  0.00  0.00    +0.140 A 
ATOM     14  O   LIG    1       -4.577  -6.083   7.130  0.00  0.00    -0.300 OA
ATOM     15  C   LIG    1       -5.951  -6.490   7.020  0.00  0.00    +0.240 C 
ATOM     16  C   LIG    1       -6.722  -5.220   7.451  0.00  0.00    +0.080 C 
ATOM     17  C   LIG    1       -5.725  -4.124   7.124  0.00  0.00    -0.180 A 
ATOM     18  C   LIG    1       -5.861  -2.763   7.002  0.00  0.00    +0.130 A 
ENDBRANCH   8  10
ENDBRANCH   5   6
BRANCH   1  19
ATOM     19  O   LIG    1       -2.303   1.215   4.319  0.00  0.00    -0.290 OA
BRANCH  19  22
ATOM     20  N   LIG    1       -0.698   1.558   1.213  0.00  0.00    -0.360 N 
ATOM     21  C   LIG    1       -1.155   0.782   2.231  0.00  0.00    +0.210 A 
ATOM     22  C   LIG    1       -1.725   1.602   3.148  0.00  0.00    -0.030 A 
ATOM     23  C   LIG    1       -1.613   2.917   2.678  0.00  0.00    +0.170 A 
ATOM     24  N   LIG    1       -0.995   2.892   1.525  0.00  0.00    -0.260 NA
BRANCH  20  26
ATOM     25  C   LIG    1       -0.753   1.593  -1.232  0.00  0.00    +0.040 C 
ATOM     26  C   LIG    1       -0.013   1.086   0.008  0.00  0.00    +0.320 C 
ENDBRANCH  20  26
ENDBRANCH  19  22
ENDBRANCH   1  19
TORSDOF 5
