REMARK  Name = ZINCqH0000003vBo.0
REMARK                            x       y       z     vdW  Elec       q    Type
REMARK                         _______ _______ _______ _____ _____    ______ ____
ROOT
ATOM      1  N   LIG    1        0.314   0.630   1.864  0.00  0.00    -0.720 N 
ATOM      2  H   LIG    1        0.388  -0.336   1.811  0.00  0.00    +0.400 HD
ATOM      3  C   LIG    1       -0.836   1.196   2.278  0.00  0.00    +0.600 C 
ATOM      4  O   LIG    1       -0.929   2.407   2.345  0.00  0.00    -0.520 OA
ENDROOT
BRANCH   3   5
ATOM      5  C   LIG    1       -1.982   0.349   2.650  0.00  0.00    -0.250 A 
ATOM      6  C   LIG    1       -2.984  -0.094   1.806  0.00  0.00    +0.160 A 
ATOM      7  N   LIG    1       -3.830  -0.838   2.544  0.00  0.00    -0.300 N 
ATOM      8  N   LIG    1       -3.361  -0.867   3.862  0.00  0.00    -0.260 NA
ATOM      9 CL   LIG    1       -3.126   0.247   0.110  0.00  0.00    +0.020 Cl
ATOM     10  C   LIG    1       -2.260  -0.170   3.936  0.00  0.00    +0.130 A 
ATOM     11  C   LIG    1       -1.432   0.047   5.176  0.00  0.00    +0.180 C 
BRANCH   7  12
ATOM     12  C   LIG    1       -4.984  -1.476   2.071  0.00  0.00    +0.130 A 
ATOM     13  C   LIG    1       -5.753  -0.880   1.080  0.00  0.00    +0.010 A 
ATOM     14  C   LIG    1       -6.887  -1.515   0.612  0.00  0.00    +0.040 A 
ATOM     15  C   LIG    1       -7.264  -2.737   1.137  0.00  0.00    +0.020 A 
ATOM     16  C   LIG    1       -6.504  -3.331   2.128  0.00  0.00    +0.040 A 
ATOM     17  C   LIG    1       -5.365  -2.704   2.596  0.00  0.00    +0.040 A 
ENDBRANCH   7  12
ENDBRANCH   3   5
BRANCH   1  18
ATOM     18  C   LIG    1        1.452   1.474   1.488  0.00  0.00    +0.260 C 
BRANCH  18  19
ATOM     19  C   LIG    1        2.621   0.588   1.053  0.00  0.00    +0.020 C 
BRANCH  19  20
ATOM     20  C   LIG    1        3.809   1.469   0.660  0.00  0.00    +0.080 C 
BRANCH  20  21
ATOM     21  C   LIG    1        4.979   0.584   0.225  0.00  0.00    +0.310 C 
BRANCH  21  22
ATOM     22  O   LIG    1        4.623  -0.124  -0.965  0.00  0.00    -0.390 OA
BRANCH  22  24
ATOM     23  C   LIG    1        4.920  -1.998  -2.462  0.00  0.00    +0.040 C 
ATOM     24  C   LIG    1        5.258  -1.397  -1.096  0.00  0.00    +0.140 C 
ENDBRANCH  22  24
ENDBRANCH  21  22
BRANCH  21  25
ATOM     25  O   LIG    1        6.124   1.399  -0.030  0.00  0.00    -0.390 OA
BRANCH  25  26
ATOM     26  C   LIG    1        7.346   0.666  -0.140  0.00  0.00    +0.150 C 
ATOM     27  C   LIG    1        8.519   1.643  -0.245  0.00  0.00    +0.050 C 
ENDBRANCH  25  26
ENDBRANCH  21  25
ENDBRANCH  20  21
ENDBRANCH  19  20
ENDBRANCH  18  19
ENDBRANCH   1  18
TORSDOF 10
