REMARK  Name = ZINCpk00000xKu26.0
REMARK                            x       y       z     vdW  Elec       q    Type
REMARK                         _______ _______ _______ _____ _____    ______ ____
ROOT
ATOM      1  C   LIG    1       -2.258  -2.716   1.080  0.00  0.00    +0.190 C 
ATOM      2  C   LIG    1       -1.054  -1.774   1.145  0.00  0.00    +0.210 C 
ATOM      3  N   LIG    1       -1.104  -0.843   0.008  0.00  0.00    -0.430 N 
ATOM      4  C   LIG    1       -2.353  -0.068   0.025  0.00  0.00    +0.200 C 
ATOM      5  C   LIG    1       -3.545  -1.028  -0.029  0.00  0.00    +0.120 C 
ATOM      6  C   LIG    1       -3.516  -1.803  -1.348  0.00  0.00    +0.040 C 
ATOM      7  C   LIG    1       -4.847  -0.231   0.069  0.00  0.00    +0.070 C 
ATOM      8  O   LIG    1       -3.462  -1.944   1.065  0.00  0.00    -0.360 OA
ENDROOT
BRANCH   3   9
ATOM      9  C   LIG    1        0.002  -0.004   0.002  0.00  0.00    +0.350 A 
ATOM     10  N   LIG    1       -0.016   1.302   0.009  0.00  0.00    -0.410 NA
ATOM     11  O   LIG    1        1.117   1.735   0.001  0.00  0.00    +0.080 OA
ATOM     12  C   LIG    1        1.992   0.725  -0.013  0.00  0.00    +0.210 A 
ATOM     13  N   LIG    1        1.297  -0.386  -0.012  0.00  0.00    -0.480 NA
BRANCH  12  14
ATOM     14  C   LIG    1        3.495   0.841  -0.026  0.00  0.00    +0.030 C 
ATOM     15  C   LIG    1        4.070   0.155   1.215  0.00  0.00    +0.070 C 
ATOM     16  C   LIG    1        3.892   2.318  -0.022  0.00  0.00    +0.070 C 
ATOM     17  C   LIG    1        4.048   0.167  -1.283  0.00  0.00    +0.070 C 
ENDBRANCH  12  14
ENDBRANCH   3   9
BRANCH   1  18
ATOM     18  C   LIG    1       -2.255  -3.635   2.303  0.00  0.00    +0.200 C 
BRANCH  18  19
ATOM     19  O   LIG    1       -3.313  -4.588   2.187  0.00  0.00    -0.350 OA
BRANCH  19  20
ATOM     20  C   LIG    1       -3.399  -5.498   3.284  0.00  0.00    +0.210 C 
BRANCH  20  23
ATOM     21  C   LIG    1       -5.929  -8.334   3.748  0.00  0.00    +0.300 C 
ATOM     22  N   LIG    1       -4.816  -7.407   3.969  0.00  0.00    -0.620 N 
ATOM     23  C   LIG    1       -4.543  -6.452   3.058  0.00  0.00    +0.510 C 
ATOM     24  O   LIG    1       -5.219  -6.361   2.054  0.00  0.00    -0.510 OA
ATOM     25  C   LIG    1       -4.000  -7.517   5.181  0.00  0.00    +0.280 C 
ENDBRANCH  20  23
ENDBRANCH  19  20
ENDBRANCH  18  19
ENDBRANCH   1  18
TORSDOF 6
