REMARK  Name = ZINCkj00000GeRNF.1
REMARK                            x       y       z     vdW  Elec       q    Type
REMARK                         _______ _______ _______ _____ _____    ______ ____
ROOT
ATOM      1  C   LIG    1       -0.628   0.044   0.571  0.00  0.00    +0.080 C 
ATOM      2  C   LIG    1       -1.347   0.673   1.766  0.00  0.00    +0.130 C 
ATOM      3  C   LIG    1       -2.643  -0.093   2.042  0.00  0.00    +0.280 C 
ATOM      4  N   LIG    1       -3.324   0.498   3.202  0.00  0.00    -0.390 N 
ATOM      5  C   LIG    1       -2.455   0.403   4.383  0.00  0.00    +0.180 C 
ATOM      6  C   LIG    1       -1.158   1.173   4.126  0.00  0.00    +0.190 C 
ATOM      7  C   LIG    1       -1.482   2.646   3.868  0.00  0.00    +0.030 C 
ATOM      8  C   LIG    1       -3.173   1.003   5.594  0.00  0.00    +0.100 C 
ATOM      9  C   LIG    1       -4.576  -0.226   3.457  0.00  0.00    +0.330 C 
ATOM     10  H   LIG    1       -3.529   1.468   3.013  0.00  0.00    +0.420 HD
ATOM     11  N   LIG    1       -0.480   0.607   2.951  0.00  0.00    -0.530 NA
ENDROOT
BRANCH  11  12
ATOM     12  C   LIG    1        0.800   1.284   2.704  0.00  0.00    +0.340 C 
BRANCH  12  13
ATOM     13  C   LIG    1        1.618   1.287   3.970  0.00  0.00    +0.170 A 
ATOM     14  N   LIG    1        1.573   2.179   4.929  0.00  0.00    -0.300 NA
ATOM     15  N   LIG    1        2.419   1.831   5.836  0.00  0.00    -0.070 NA
ATOM     16  N   LIG    1        3.008   0.744   5.477  0.00  0.00    -0.080 NA
ATOM     17  N   LIG    1        2.542   0.377   4.332  0.00  0.00    -0.280 N 
BRANCH  17  18
ATOM     18  C   LIG    1        2.942  -0.807   3.568  0.00  0.00    +0.160 C 
ATOM     19  C   LIG    1        1.702  -1.632   3.218  0.00  0.00    +0.080 C 
ATOM     20  C   LIG    1        3.899  -1.656   4.407  0.00  0.00    +0.080 C 
ATOM     21  C   LIG    1        3.644  -0.370   2.280  0.00  0.00    +0.080 C 
ENDBRANCH  17  18
ENDBRANCH  12  13
ENDBRANCH  11  12
TORSDOF 3
