REMARK  Name = ZINCkj00000GeRNF.0
REMARK                            x       y       z     vdW  Elec       q    Type
REMARK                         _______ _______ _______ _____ _____    ______ ____
ROOT
ATOM      1  C   LIG    1        0.601  -1.530  -0.562  0.00  0.00    +0.080 C 
ATOM      2  C   LIG    1        0.872  -0.026  -0.437  0.00  0.00    +0.150 C 
ATOM      3  C   LIG    1        0.263   0.486   0.868  0.00  0.00    +0.280 C 
ATOM      4  N   LIG    1        0.517   1.914   1.036  0.00  0.00    -0.380 N 
ATOM      5  C   LIG    1        1.919   2.278   0.904  0.00  0.00    +0.170 C 
ATOM      6  C   LIG    1        2.664   1.610  -0.239  0.00  0.00    +0.190 C 
ATOM      7  C   LIG    1        2.469   2.370  -1.551  0.00  0.00    +0.030 C 
ATOM      8  C   LIG    1        2.029   3.804   0.749  0.00  0.00    +0.100 C 
ATOM      9  C   LIG    1       -0.340   2.706   0.147  0.00  0.00    +0.320 C 
ATOM     10  H   LIG    1        0.233   2.153   1.999  0.00  0.00    +0.430 HD
ATOM     11  N   LIG    1        2.320   0.201  -0.401  0.00  0.00    -0.530 NA
ENDROOT
BRANCH  11  12
ATOM     12  C   LIG    1        2.979  -0.384  -1.577  0.00  0.00    +0.340 C 
BRANCH  12  13
ATOM     13  C   LIG    1        4.472  -0.225  -1.446  0.00  0.00    +0.170 A 
ATOM     14  N   LIG    1        5.179   0.828  -1.778  0.00  0.00    -0.300 NA
ATOM     15  N   LIG    1        6.415   0.576  -1.515  0.00  0.00    -0.070 NA
ATOM     16  N   LIG    1        6.514  -0.610  -1.025  0.00  0.00    -0.080 NA
ATOM     17  N   LIG    1        5.337  -1.134  -0.961  0.00  0.00    -0.280 N 
BRANCH  17  18
ATOM     18  C   LIG    1        5.005  -2.470  -0.459  0.00  0.00    +0.160 C 
ATOM     19  C   LIG    1        3.919  -2.356   0.613  0.00  0.00    +0.070 C 
ATOM     20  C   LIG    1        6.255  -3.112   0.147  0.00  0.00    +0.090 C 
ATOM     21  C   LIG    1        4.495  -3.336  -1.612  0.00  0.00    +0.070 C 
ENDBRANCH  17  18
ENDBRANCH  12  13
ENDBRANCH  11  12
TORSDOF 3
