REMARK  Name = ZINCkj000005kGSt.0
REMARK                            x       y       z     vdW  Elec       q    Type
REMARK                         _______ _______ _______ _____ _____    ______ ____
ROOT
ATOM      1  C   LIG    1        3.396   1.771   1.574  0.00  0.00    +0.590 C 
ATOM      2  N   LIG    1        2.066   1.569   1.484  0.00  0.00    -0.730 N 
ATOM      3  H   LIG    1        1.634   0.920   2.061  0.00  0.00    +0.400 HD
ATOM      4  O   LIG    1        3.937   2.584   0.850  0.00  0.00    -0.530 OA
ENDROOT
BRANCH   1   7
ATOM      5  C   LIG    1        6.257   2.004   1.560  0.00  0.00    +0.160 C 
ATOM      6  C   LIG    1        5.569   1.107   2.556  0.00  0.00    +0.260 A 
ATOM      7  C   LIG    1        4.193   1.006   2.550  0.00  0.00    -0.280 A 
ATOM      8  C   LIG    1        3.552   0.166   3.494  0.00  0.00    +0.130 A 
ATOM      9  C   LIG    1        4.312  -0.532   4.379  0.00  0.00    -0.080 A 
ATOM     10  C   LIG    1        5.713  -0.397   4.346  0.00  0.00    +0.520 A 
ATOM     11  O   LIG    1        6.399  -1.017   5.141  0.00  0.00    -0.530 OA
ATOM     12  N   LIG    1        6.301   0.411   3.445  0.00  0.00    -0.600 N 
ATOM     13  H   LIG    1        7.268   0.492   3.436  0.00  0.00    +0.420 HD
ENDBRANCH   1   7
BRANCH   2  14
ATOM     14  C   LIG    1        1.274   2.329   0.514  0.00  0.00    +0.290 C 
BRANCH  14  15
ATOM     15  C   LIG    1       -0.195   1.912   0.617  0.00  0.00    -0.020 C 
ATOM     16  C   LIG    1       -0.806   2.386   1.955  0.00  0.00    +0.080 C 
ATOM     17  C   LIG    1       -2.233   2.857   1.596  0.00  0.00    +0.260 C 
ATOM     18  N   LIG    1       -2.414   2.628   0.146  0.00  0.00    -0.370 N 
ATOM     19  H   LIG    1       -2.845   1.730  -0.014  0.00  0.00    +0.420 HD
ATOM     20  C   LIG    1       -1.050   2.653  -0.442  0.00  0.00    +0.290 C 
BRANCH  18  21
ATOM     21  C   LIG    1       -3.237   3.696  -0.438  0.00  0.00    +0.100 C 
ATOM     22  C   LIG    1       -4.604   3.306  -1.003  0.00  0.00    +0.100 C 
ATOM     23  C   LIG    1       -3.460   3.669  -1.952  0.00  0.00    +0.100 C 
ENDBRANCH  18  21
ENDBRANCH  14  15
ENDBRANCH   2  14
TORSDOF 4
