REMARK  Name = ZINCkj000005kGSt.1
REMARK                            x       y       z     vdW  Elec       q    Type
REMARK                         _______ _______ _______ _____ _____    ______ ____
ROOT
ATOM      1  C   LIG    1       -0.073   1.175   0.458  0.00  0.00    +0.590 C 
ATOM      2  N   LIG    1        1.082   1.847   0.632  0.00  0.00    -0.730 N 
ATOM      3  H   LIG    1        1.086   2.816   0.616  0.00  0.00    +0.400 HD
ATOM      4  O   LIG    1       -0.078  -0.041   0.478  0.00  0.00    -0.530 OA
ENDROOT
BRANCH   1   7
ATOM      5  C   LIG    1       -2.467  -0.267  -0.205  0.00  0.00    +0.160 C 
ATOM      6  C   LIG    1       -2.488   1.235  -0.083  0.00  0.00    +0.260 A 
ATOM      7  C   LIG    1       -1.330   1.914   0.236  0.00  0.00    -0.280 A 
ATOM      8  C   LIG    1       -1.356   3.325   0.343  0.00  0.00    +0.130 A 
ATOM      9  C   LIG    1       -2.528   3.981   0.133  0.00  0.00    -0.080 A 
ATOM     10  C   LIG    1       -3.686   3.247  -0.185  0.00  0.00    +0.520 A 
ATOM     11  O   LIG    1       -4.740   3.830  -0.374  0.00  0.00    -0.530 OA
ATOM     12  N   LIG    1       -3.639   1.906  -0.282  0.00  0.00    -0.600 N 
ATOM     13  H   LIG    1       -4.445   1.414  -0.502  0.00  0.00    +0.420 HD
ENDBRANCH   1   7
BRANCH   2  14
ATOM     14  C   LIG    1        2.332   1.112   0.846  0.00  0.00    +0.290 C 
BRANCH  14  15
ATOM     15  C   LIG    1        3.484   2.104   1.014  0.00  0.00    +0.000 C 
ATOM     16  C   LIG    1        3.383   2.836   2.378  0.00  0.00    +0.080 C 
ATOM     17  C   LIG    1        4.863   3.211   2.643  0.00  0.00    +0.260 C 
ATOM     18  N   LIG    1        5.640   2.061   2.134  0.00  0.00    -0.360 N 
ATOM     19  H   LIG    1        5.851   1.430   2.893  0.00  0.00    +0.420 HD
ATOM     20  C   LIG    1        4.833   1.362   1.117  0.00  0.00    +0.280 C 
BRANCH  18  21
ATOM     21  C   LIG    1        6.891   2.539   1.529  0.00  0.00    +0.100 C 
ATOM     22  C   LIG    1        8.192   1.870   1.976  0.00  0.00    +0.100 C 
ATOM     23  C   LIG    1        7.868   3.294   2.431  0.00  0.00    +0.090 C 
ENDBRANCH  18  21
ENDBRANCH  14  15
ENDBRANCH   2  14
TORSDOF 4
