REMARK  Name = ZINCrH000004m3Jr.0
REMARK                            x       y       z     vdW  Elec       q    Type
REMARK                         _______ _______ _______ _____ _____    ______ ____
ROOT
ATOM      1  C   LIG    1       -0.014   1.209   0.007  0.00  0.00    +0.510 C 
ATOM      2  N   LIG    1       -1.191   1.867   0.018  0.00  0.00    -0.670 N 
ATOM      3  H   LIG    1       -1.205   2.833   0.098  0.00  0.00    +0.410 HD
ATOM      4  O   LIG    1        0.002  -0.004  -0.008  0.00  0.00    -0.500 OA
ENDROOT
BRANCH   2   5
ATOM      5  C   LIG    1       -2.393   1.154  -0.086  0.00  0.00    +0.130 A 
ATOM      6  C   LIG    1       -3.469   1.704  -0.770  0.00  0.00    +0.040 A 
ATOM      7  C   LIG    1       -4.652   1.000  -0.875  0.00  0.00    -0.030 A 
ATOM      8  C   LIG    1       -4.768  -0.253  -0.290  0.00  0.00    +0.090 A 
ATOM      9  C   LIG    1       -3.695  -0.801   0.397  0.00  0.00    +0.040 A 
ATOM     10  C   LIG    1       -2.510  -0.099   0.499  0.00  0.00    +0.070 A 
BRANCH   8  11
ATOM     11  O   LIG    1       -5.935  -0.944  -0.390  0.00  0.00    -0.310 OA
BRANCH  11  12
ATOM     12  C   LIG    1       -6.999  -0.320  -1.112  0.00  0.00    +0.600 C 
ATOM     13  F   LIG    1       -7.331   0.892  -0.498  0.00  0.00    -0.170 F 
ATOM     14  F   LIG    1       -8.116  -1.162  -1.117  0.00  0.00    -0.130 F 
ATOM     15  F   LIG    1       -6.591  -0.079  -2.428  0.00  0.00    -0.160 F 
ENDBRANCH  11  12
ENDBRANCH   8  11
ENDBRANCH   2   5
BRANCH   1  16
ATOM     16  C   LIG    1        1.280   1.980   0.007  0.00  0.00    +0.120 C 
BRANCH  16  19
ATOM     17  C   LIG    1        4.027  -0.295  -1.243  0.00  0.00    +0.150 A 
ATOM     18  C   LIG    1        2.960   0.591  -1.220  0.00  0.00    -0.090 A 
ATOM     19  C   LIG    1        2.439   1.017  -0.013  0.00  0.00    +0.000 A 
ATOM     20  C   LIG    1        2.981   0.566   1.176  0.00  0.00    -0.090 A 
ATOM     21  C   LIG    1        4.044  -0.325   1.162  0.00  0.00    +0.150 A 
ATOM     22  C   LIG    1        4.571  -0.755  -0.050  0.00  0.00    +0.030 A 
BRANCH  17  24
ATOM     23  C   LIG    1        3.931  -0.198  -3.618  0.00  0.00    +0.240 C 
ATOM     24  O   LIG    1        4.540  -0.713  -2.432  0.00  0.00    -0.300 OA
ENDBRANCH  17  24
BRANCH  21  25
ATOM     25  O   LIG    1        4.573  -0.773   2.332  0.00  0.00    -0.300 OA
ATOM     26  C   LIG    1        3.980  -0.289   3.539  0.00  0.00    +0.240 C 
ENDBRANCH  21  25
BRANCH  22  27
ATOM     27  O   LIG    1        5.618  -1.625  -0.068  0.00  0.00    -0.310 OA
ATOM     28  C   LIG    1        6.931  -1.060  -0.070  0.00  0.00    +0.210 C 
ENDBRANCH  22  27
ENDBRANCH  16  19
ENDBRANCH   1  16
TORSDOF 8
