REMARK  Name = ZINCpk00000GUZzX.0
REMARK                            x       y       z     vdW  Elec       q    Type
REMARK                         _______ _______ _______ _____ _____    ______ ____
ROOT
ATOM      1  N   LIG    1        4.211   8.879  -2.159  0.00  0.00    -0.530 NA
ATOM      2  C   LIG    1        2.842   9.384  -2.048  0.00  0.00    +0.170 C 
ATOM      3  C   LIG    1        1.892   8.438  -1.433  0.00  0.00    +0.020 C 
ATOM      4  C   LIG    1        2.328   8.131   0.022  0.00  0.00    +0.260 C 
ATOM      5  N   LIG    1        3.543   7.347   0.007  0.00  0.00    -0.590 N 
ATOM      6  C   LIG    1        4.891   7.955   0.004  0.00  0.00    +0.290 C 
ATOM      7  C   LIG    1        3.443   6.003   0.001  0.00  0.00    +0.520 C 
ATOM      8  O   LIG    1        4.446   5.320  -0.011  0.00  0.00    -0.510 OA
ATOM      9  C   LIG    1        4.959   9.164  -0.953  0.00  0.00    +0.190 C 
ENDROOT
BRANCH   1  10
ATOM     10  C   LIG    1        4.883   9.437  -3.340  0.00  0.00    +0.300 C 
BRANCH  10  15
ATOM     11  N   LIG    1        6.358   7.608  -4.314  0.00  0.00    -0.440 N 
ATOM     12  C   LIG    1        7.685   7.277  -4.253  0.00  0.00    +0.120 A 
ATOM     13  C   LIG    1        8.280   8.194  -3.467  0.00  0.00    +0.140 A 
ATOM     14  N   LIG    1        7.343   9.064  -3.062  0.00  0.00    -0.490 NA
ATOM     15  C   LIG    1        6.188   8.716  -3.561  0.00  0.00    +0.210 A 
BRANCH  11  17
ATOM     16  C   LIG    1        5.125   7.548  -6.425  0.00  0.00    +0.030 C 
ATOM     17  C   LIG    1        5.316   6.893  -5.056  0.00  0.00    +0.290 C 
ENDBRANCH  11  17
ENDBRANCH  10  15
ENDBRANCH   1  10
BRANCH   7  18
ATOM     18  C   LIG    1        2.086   5.348   0.010  0.00  0.00    +0.220 C 
BRANCH  18  19
ATOM     19  O   LIG    1        2.242   3.928   0.002  0.00  0.00    -0.280 OA
BRANCH  19  20
ATOM     20  C   LIG    1        1.105   3.182   0.008  0.00  0.00    +0.080 A 
ATOM     21  C   LIG    1        1.173   1.793   0.001  0.00  0.00    +0.050 A 
ATOM     22  C   LIG    1       -0.013   1.076   0.008  0.00  0.00    +0.010 A 
ATOM     23  C   LIG    1       -1.214   1.759   0.017  0.00  0.00    +0.220 A 
ATOM     24  N   LIG    1       -1.244   3.077   0.029  0.00  0.00    -0.450 NA
ATOM     25  C   LIG    1       -0.139   3.796   0.023  0.00  0.00    +0.170 A 
ENDBRANCH  19  20
ENDBRANCH  18  19
ENDBRANCH   7  18
TORSDOF 6
