REMARK  Name = ZINCrH000004rrht.0
REMARK                            x       y       z     vdW  Elec       q    Type
REMARK                         _______ _______ _______ _____ _____    ______ ____
ROOT
ATOM      1  C   LIG    1       -2.200   2.317   3.760  0.00  0.00    -0.690 A 
ATOM      2  C   LIG    1       -2.813   2.354   2.520  0.00  0.00    +0.170 A 
ATOM      3  C   LIG    1       -2.074   2.143   1.370  0.00  0.00    -0.010 A 
ATOM      4  C   LIG    1       -0.721   1.885   1.453  0.00  0.00    +0.040 A 
ATOM      5  C   LIG    1       -0.096   1.847   2.701  0.00  0.00    -0.170 A 
ATOM      6  C   LIG    1        0.081   1.651   0.199  0.00  0.00    +0.130 C 
ATOM      7  C   LIG    1       -0.847   2.066   3.857  0.00  0.00    +0.160 A 
ENDROOT
BRANCH   5   8
ATOM      8  C   LIG    1        1.353   1.577   2.797  0.00  0.00    +0.570 C 
ATOM      9  N   LIG    1        1.947   1.506   4.005  0.00  0.00    -0.670 N 
ATOM     10  H   LIG    1        1.413   1.571   4.812  0.00  0.00    +0.410 HD
ATOM     11  O   LIG    1        2.011   1.418   1.787  0.00  0.00    -0.500 OA
BRANCH   9  12
ATOM     12  C   LIG    1        3.329   1.339   4.094  0.00  0.00    +0.190 A 
ATOM     13  C   LIG    1        4.016   0.560   3.165  0.00  0.00    -0.020 A 
ATOM     14  C   LIG    1        5.384   0.423   3.286  0.00  0.00    +0.280 A 
ATOM     15  N   LIG    1        6.038   1.011   4.270  0.00  0.00    -0.490 NA
ATOM     16  C   LIG    1        5.423   1.753   5.171  0.00  0.00    +0.280 A 
ATOM     17  C   LIG    1        4.057   1.943   5.118  0.00  0.00    -0.060 A 
ENDBRANCH   9  12
ENDBRANCH   5   8
BRANCH   1  18
ATOM     18  S   LIG    1       -3.150   2.593   5.218  0.00  0.00    +2.690 S 
ATOM     19  O   LIG    1       -2.390   2.066   6.297  0.00  0.00    -0.950 OA
ATOM     20  O   LIG    1       -4.474   2.172   4.921  0.00  0.00    -0.940 OA
BRANCH  18  21
ATOM     21  N   LIG    1       -3.222   4.231   5.454  0.00  0.00    -1.060 N 
ATOM     22  H   LIG    1       -2.808   4.627   6.237  0.00  0.00    +0.430 HD
BRANCH  21  27
ATOM     23  C   LIG    1       -5.888   7.524   1.685  0.00  0.00    +0.090 C 
ATOM     24  C   LIG    1       -5.179   6.649   2.687  0.00  0.00    -0.070 A 
ATOM     25  C   LIG    1       -5.912   5.854   3.549  0.00  0.00    +0.020 A 
ATOM     26  C   LIG    1       -5.266   5.051   4.468  0.00  0.00    +0.040 A 
ATOM     27  C   LIG    1       -3.878   5.042   4.526  0.00  0.00    +0.110 A 
ATOM     28  C   LIG    1       -3.145   5.845   3.661  0.00  0.00    +0.020 A 
ATOM     29  C   LIG    1       -3.798   6.642   2.741  0.00  0.00    +0.010 A 
ENDBRANCH  21  27
ENDBRANCH  18  21
ENDBRANCH   1  18
TORSDOF 5
