REMARK  Name = ZINCrg000000s5Vt.0
REMARK                            x       y       z     vdW  Elec       q    Type
REMARK                         _______ _______ _______ _____ _____    ______ ____
ROOT
ATOM      1  N   LIG    1       -0.724   1.573  -1.184  0.00  0.00    -0.480 N 
ATOM      2  C   LIG    1       -0.043   1.059   0.014  0.00  0.00    +0.230 C 
ATOM      3  C   LIG    1       -0.767   1.561   1.270  0.00  0.00    +0.330 C 
ATOM      4  N   LIG    1       -0.921   3.016   1.157  0.00  0.00    -0.550 N 
ATOM      5  C   LIG    1       -1.196   3.902   2.125  0.00  0.00    +0.660 A 
ATOM      6  N   LIG    1       -1.304   5.116   1.540  0.00  0.00    -0.440 N 
ATOM      7  N   LIG    1       -1.054   4.944   0.169  0.00  0.00    -0.260 NA
ATOM      8  O   LIG    1       -1.324   3.658   3.311  0.00  0.00    -0.550 OA
ATOM      9  C   LIG    1       -0.820   3.697  -0.042  0.00  0.00    +0.290 A 
ATOM     10  C   LIG    1       -0.481   3.018  -1.348  0.00  0.00    +0.350 C 
ENDROOT
BRANCH   1  21
ATOM     11  C   LIG    1       -2.702   1.085  -3.156  0.00  0.00    +0.110 C 
ATOM     12  C   LIG    1       -1.282   0.608  -3.316  0.00  0.00    -0.110 A 
ATOM     13  C   LIG    1       -0.915  -0.079  -4.434  0.00  0.00    +0.080 A 
ATOM     14  C   LIG    1        0.424  -0.507  -4.545  0.00  0.00    -0.100 A 
ATOM     15  C   LIG    1        0.870  -1.219  -5.669  0.00  0.00    +0.030 A 
ATOM     16  C   LIG    1        2.171  -1.616  -5.742  0.00  0.00    +0.020 A 
ATOM     17  C   LIG    1        3.066  -1.325  -4.716  0.00  0.00    +0.030 A 
ATOM     18  C   LIG    1        2.667  -0.636  -3.611  0.00  0.00    +0.040 A 
ATOM     19  C   LIG    1        1.333  -0.210  -3.500  0.00  0.00    +0.140 A 
ATOM     20  N   LIG    1        0.915   0.473  -2.427  0.00  0.00    -0.500 NA
ATOM     21  C   LIG    1       -0.335   0.872  -2.315  0.00  0.00    +0.320 A 
ENDBRANCH   1  21
BRANCH   6  22
ATOM     22  C   LIG    1       -1.622   6.378   2.213  0.00  0.00    +0.410 C 
BRANCH  22  23
ATOM     23  C   LIG    1       -0.347   7.041   2.666  0.00  0.00    +0.500 C 
ATOM     24  N   LIG    1       -0.395   8.222   3.313  0.00  0.00    -0.620 N 
ATOM     25  C   LIG    1       -1.687   8.861   3.576  0.00  0.00    +0.280 C 
ATOM     26  C   LIG    1        0.845   8.867   3.754  0.00  0.00    +0.300 C 
ATOM     27  O   LIG    1        0.722   6.511   2.449  0.00  0.00    -0.520 OA
ENDBRANCH  22  23
ENDBRANCH   6  22
TORSDOF 3
