REMARK  Name = ZINCvU00000008Wt.0
REMARK                            x       y       z     vdW  Elec       q    Type
REMARK                         _______ _______ _______ _____ _____    ______ ____
ROOT
ATOM      1  C   LIG    1        4.864   1.054  -0.253  0.00  0.00    +0.060 C 
ENDROOT
BRANCH   1   2
ATOM      2  C   LIG    1        5.103   0.706  -1.700  0.00  0.00    -0.100 A 
ATOM      3  C   LIG    1        5.185   1.709  -2.648  0.00  0.00    +0.040 A 
ATOM      4  C   LIG    1        5.409   1.389  -3.974  0.00  0.00    +0.010 A 
ATOM      5  C   LIG    1        5.542   0.067  -4.354  0.00  0.00    +0.020 A 
ATOM      6  C   LIG    1        5.455  -0.936  -3.406  0.00  0.00    +0.010 A 
ATOM      7  C   LIG    1        5.235  -0.617  -2.079  0.00  0.00    +0.060 A 
ENDBRANCH   1   2
BRANCH   1   8
ATOM      8  C   LIG    1        3.557   1.792  -0.124  0.00  0.00    +0.550 C 
ATOM      9  N   LIG    1        2.403   1.105  -0.015  0.00  0.00    -0.660 N 
ATOM     10  H   LIG    1        2.419   0.137   0.048  0.00  0.00    +0.420 HD
ATOM     11  O   LIG    1        3.543   3.005  -0.117  0.00  0.00    -0.500 OA
BRANCH   9  12
ATOM     12  C   LIG    1        1.181   1.787   0.008  0.00  0.00    +0.130 A 
ATOM     13  C   LIG    1        0.059   1.225  -0.586  0.00  0.00    +0.030 A 
ATOM     14  C   LIG    1       -1.145   1.902  -0.567  0.00  0.00    +0.010 A 
ATOM     15  C   LIG    1       -1.236   3.136   0.054  0.00  0.00    +0.090 A 
ATOM     16  C   LIG    1       -0.118   3.699   0.647  0.00  0.00    +0.010 A 
ATOM     17  F   LIG    1       -2.415   3.795   0.076  0.00  0.00    -0.140 F 
ATOM     18  C   LIG    1        1.088   3.028   0.626  0.00  0.00    +0.060 A 
ENDBRANCH   9  12
ENDBRANCH   1   8
BRANCH   1  19
ATOM     19  S   LIG    1        6.212   2.105   0.345  0.00  0.00    +0.150 S 
BRANCH  19  23
ATOM     20  C   LIG    1        9.524   0.085   0.303  0.00  0.00    +0.220 A 
ATOM     21  N   LIG    1        8.665  -0.798  -0.148  0.00  0.00    -0.260 NA
ATOM     22  N   LIG    1        7.492  -0.271  -0.189  0.00  0.00    -0.270 NA
ATOM     23  C   LIG    1        7.557   0.974   0.226  0.00  0.00    +0.120 A 
ATOM     24  O   LIG    1        8.840   1.224   0.549  0.00  0.00    -0.200 OA
BRANCH  20  30
ATOM     25  C   LIG    1       13.986   1.816   1.713  0.00  0.00    +0.100 C 
ATOM     26  C   LIG    1       13.122   0.701   1.183  0.00  0.00    -0.080 A 
ATOM     27  C   LIG    1       13.686  -0.527   0.885  0.00  0.00    +0.040 A 
ATOM     28  C   LIG    1       12.900  -1.557   0.399  0.00  0.00    -0.080 A 
ATOM     29  C   LIG    1       11.547  -1.365   0.208  0.00  0.00    +0.070 A 
ATOM     30  C   LIG    1       10.972  -0.128   0.506  0.00  0.00    -0.020 A 
ATOM     31  C   LIG    1       13.522  -2.891   0.079  0.00  0.00    +0.100 C 
ATOM     32  C   LIG    1       11.772   0.908   0.991  0.00  0.00    +0.040 A 
ENDBRANCH  20  30
ENDBRANCH  19  23
ENDBRANCH   1  19
TORSDOF 6
