REMARK  Name = ZINCrH000004nfTi.0
REMARK                            x       y       z     vdW  Elec       q    Type
REMARK                         _______ _______ _______ _____ _____    ______ ____
ROOT
ATOM      1  C   LIG    1        6.016   0.591  -0.274  0.00  0.00    +0.600 C 
ATOM      2  N   LIG    1        6.604  -0.582   0.038  0.00  0.00    -0.600 N 
ATOM      3  C   LIG    1        5.819  -1.818   0.039  0.00  0.00    +0.300 C 
ATOM      4  O   LIG    1        6.682   1.607  -0.335  0.00  0.00    -0.510 OA
ENDROOT
BRANCH   1  10
ATOM      5  C   LIG    1        0.110   1.294  -1.381  0.00  0.00    +0.110 A 
ATOM      6  C   LIG    1        0.134  -0.096  -1.316  0.00  0.00    -0.020 A 
ATOM      7  C   LIG    1        1.312  -0.768  -1.073  0.00  0.00    +0.070 A 
ATOM      8  C   LIG    1        2.493  -0.059  -0.888  0.00  0.00    +0.030 A 
ATOM      9  O   LIG    1        3.764  -0.435  -0.640  0.00  0.00    -0.180 OA
ATOM     10  C   LIG    1        4.572   0.640  -0.539  0.00  0.00    -0.030 A 
ATOM     11  C   LIG    1        3.849   1.776  -0.720  0.00  0.00    -0.080 A 
ATOM     12  C   LIG    1        4.364   3.192  -0.688  0.00  0.00    +0.150 C 
ATOM     13  C   LIG    1        2.471   1.346  -0.953  0.00  0.00    -0.100 A 
ATOM     14  C   LIG    1        1.272   2.018  -1.201  0.00  0.00    +0.040 A 
BRANCH   5  16
ATOM     15  C   LIG    1       -2.224   1.131  -1.811  0.00  0.00    +0.250 C 
ATOM     16  O   LIG    1       -1.061   1.941  -1.628  0.00  0.00    -0.310 OA
ENDBRANCH   5  16
ENDBRANCH   1  10
BRANCH   2  17
ATOM     17  C   LIG    1        8.029  -0.619   0.376  0.00  0.00    +0.350 C 
BRANCH  17  18
ATOM     18  C   LIG    1        8.198  -0.428   1.861  0.00  0.00    -0.110 A 
ATOM     19  C   LIG    1        8.351   0.843   2.381  0.00  0.00    +0.050 A 
ATOM     20  C   LIG    1        8.501   1.023   3.743  0.00  0.00    +0.020 A 
ATOM     21  C   LIG    1        8.512  -0.074   4.591  0.00  0.00    +0.060 A 
ATOM     22  O   LIG    1        8.671   0.117   5.929  0.00  0.00    -0.310 OA
ATOM     23  C   LIG    1        8.302  -0.971   6.783  0.00  0.00    +0.220 C 
ATOM     24  C   LIG    1        8.895  -2.261   6.201  0.00  0.00    +0.220 C 
ATOM     25  O   LIG    1        8.365  -2.443   4.884  0.00  0.00    -0.310 OA
ATOM     26  C   LIG    1        8.363  -1.353   4.069  0.00  0.00    +0.050 A 
ATOM     27  C   LIG    1        8.207  -1.526   2.702  0.00  0.00    +0.030 A 
ENDBRANCH  17  18
ENDBRANCH   2  17
TORSDOF 4
