REMARK  Name = ZINCfA000000ywuO.0
REMARK                            x       y       z     vdW  Elec       q    Type
REMARK                         _______ _______ _______ _____ _____    ______ ____
ROOT
ATOM      1  C   LIG    1        1.157   1.800  -0.240  0.00  0.00    -0.160 A 
ATOM      2  C   LIG    1       -0.013   1.078  -0.120  0.00  0.00    +0.060 A 
ATOM      3  C   LIG    1       -1.208   1.729   0.128  0.00  0.00    +0.030 A 
ATOM      4  C   LIG    1       -1.236   3.105   0.267  0.00  0.00    +0.060 A 
ATOM      5  C   LIG    1       -0.071   3.837   0.149  0.00  0.00    +0.040 A 
ATOM      6  C   LIG    1        1.134   3.187  -0.106  0.00  0.00    -0.020 A 
ENDROOT
BRANCH   6   7
ATOM      7  C   LIG    1        2.389   3.968  -0.234  0.00  0.00    -0.090 A 
ATOM      8  C   LIG    1        3.476   3.686   0.591  0.00  0.00    +0.010 A 
ATOM      9  C   LIG    1        4.642   4.414   0.465  0.00  0.00    +0.020 A 
ATOM     10  C   LIG    1        4.730   5.427  -0.472  0.00  0.00    +0.030 A 
ATOM     11  C   LIG    1        3.653   5.715  -1.291  0.00  0.00    +0.020 A 
ATOM     12  C   LIG    1        2.483   4.991  -1.176  0.00  0.00    +0.020 A 
ENDBRANCH   6   7
BRANCH   1  13
ATOM     13  C   LIG    1        2.458   1.090  -0.517  0.00  0.00    +0.320 C 
BRANCH  13  15
ATOM     14  C   LIG    1        4.046   0.516  -2.220  0.00  0.00    +0.330 C 
ATOM     15  N   LIG    1        2.846   1.306  -1.917  0.00  0.00    -0.510 N 
ATOM     16  H   LIG    1        3.041   2.285  -2.064  0.00  0.00    +0.430 HD
ATOM     17  H   LIG    1        2.092   1.019  -2.523  0.00  0.00    +0.430 HD
ENDBRANCH  13  15
ENDBRANCH   1  13
TORSDOF 3
