REMARK  Name = ZINCvU0000000HL3.0
REMARK                            x       y       z     vdW  Elec       q    Type
REMARK                         _______ _______ _______ _____ _____    ______ ____
ROOT
ATOM      1  C   LIG    1        1.153   3.176   0.008  0.00  0.00    -0.120 A 
ATOM      2  C   LIG    1        1.173   1.780   0.000  0.00  0.00    +0.080 A 
ATOM      3  C   LIG    1       -0.013   1.076   0.008  0.00  0.00    +0.040 A 
ATOM      4  C   LIG    1       -1.221   1.750   0.017  0.00  0.00    -0.060 A 
ATOM      5  C   LIG    1       -1.249   3.133   0.030  0.00  0.00    +0.030 A 
ATOM      6  C   LIG    1       -0.070   3.850   0.022  0.00  0.00    +0.040 A 
ENDROOT
BRANCH   1   9
ATOM      7  N   LIG    1        2.396   5.285   0.006  0.00  0.00    -0.570 N 
ATOM      8  H   LIG    1        1.548   5.755   0.017  0.00  0.00    +0.390 HD
ATOM      9  C   LIG    1        2.419   3.937  -0.001  0.00  0.00    +0.580 C 
ATOM     10  O   LIG    1        3.483   3.348  -0.014  0.00  0.00    -0.490 OA
BRANCH   7  13
ATOM     11  C   LIG    1        2.256   8.038   0.021  0.00  0.00    +0.090 C 
ATOM     12  C   LIG    1        3.574   7.307   0.005  0.00  0.00    +0.170 C 
ATOM     13  N   LIG    1        3.597   6.006  -0.002  0.00  0.00    -0.220 NA
BRANCH  12  14
ATOM     14  C   LIG    1        4.830   8.062  -0.004  0.00  0.00    +0.010 A 
ATOM     15  C   LIG    1        6.087   7.529  -0.013  0.00  0.00    +0.020 A 
ATOM     16  C   LIG    1        6.986   8.611  -0.022  0.00  0.00    -0.060 A 
ATOM     17  C   LIG    1        6.248   9.740  -0.009  0.00  0.00    +0.200 A 
ATOM     18  O   LIG    1        4.947   9.405   0.003  0.00  0.00    -0.170 OA
ENDBRANCH  12  14
ENDBRANCH   7  13
ENDBRANCH   1   9
BRANCH   4  19
ATOM     19  C   LIG    1       -2.513   0.974   0.020  0.00  0.00    +0.260 C 
BRANCH  19  20
ATOM     20  O   LIG    1       -2.914   0.721   1.368  0.00  0.00    -0.300 OA
BRANCH  20  21
ATOM     21  C   LIG    1       -4.068   0.027   1.548  0.00  0.00    +0.140 A 
ATOM     22  C   LIG    1       -4.801  -0.399   0.452  0.00  0.00    -0.080 A 
ATOM     23  C   LIG    1       -5.972  -1.111   0.637  0.00  0.00    +0.050 A 
ATOM     24  C   LIG    1       -6.424  -1.392   1.914  0.00  0.00    -0.020 A 
ATOM     25  C   LIG    1       -5.706  -0.969   3.014  0.00  0.00    +0.060 A 
ATOM     26  C   LIG    1       -4.522  -0.257   2.840  0.00  0.00    -0.080 A 
BRANCH  26  27
ATOM     27  C   LIG    1       -3.747   0.201   4.019  0.00  0.00    -0.040 A 
ATOM     28  C   LIG    1       -2.380  -0.060   4.101  0.00  0.00    +0.030 A 
ATOM     29  C   LIG    1       -1.663   0.371   5.199  0.00  0.00    +0.000 A 
ATOM     30  C   LIG    1       -2.300   1.052   6.220  0.00  0.00    +0.000 A 
ATOM     31  C   LIG    1       -3.657   1.310   6.146  0.00  0.00    +0.000 A 
ATOM     32  C   LIG    1       -4.383   0.887   5.051  0.00  0.00    +0.010 A 
ENDBRANCH  26  27
ENDBRANCH  20  21
ENDBRANCH  19  20
ENDBRANCH   4  19
TORSDOF 7
