REMARK  Name = ZINCrH000004ruUN.0
REMARK                            x       y       z     vdW  Elec       q    Type
REMARK                         _______ _______ _______ _____ _____    ______ ____
ROOT
ATOM      1  C   LIG    1        2.462   0.920  -0.017  0.00  0.00    +0.380 C 
ENDROOT
BRANCH   1   2
ATOM      2  C   LIG    1        1.147   1.655   0.000  0.00  0.00    +0.480 C 
ATOM      3  N   LIG    1       -0.011   0.966   0.007  0.00  0.00    -0.620 N 
ATOM      4  H   LIG    1        0.002  -0.004   0.002  0.00  0.00    +0.430 HD
ATOM      5  O   LIG    1        1.130   2.868   0.007  0.00  0.00    -0.480 OA
BRANCH   3   6
ATOM      6  C   LIG    1       -1.224   1.644   0.017  0.00  0.00    +0.280 A 
ATOM      7  N   LIG    1       -2.393   1.085   0.019  0.00  0.00    -0.490 NA
ATOM      8  C   LIG    1       -3.449   1.898   0.029  0.00  0.00    +0.160 A 
ATOM      9  C   LIG    1       -3.161   3.213   0.035  0.00  0.00    -0.120 A 
ATOM     10  S   LIG    1       -1.409   3.395   0.035  0.00  0.00    +0.220 S 
BRANCH   8  11
ATOM     11  C   LIG    1       -4.838   1.391   0.034  0.00  0.00    -0.130 A 
ATOM     12  C   LIG    1       -5.192   0.091   0.022  0.00  0.00    +0.050 A 
ATOM     13  C   LIG    1       -6.555  -0.136   0.034  0.00  0.00    +0.000 A 
ATOM     14  C   LIG    1       -7.311   0.964   0.044  0.00  0.00    -0.040 A 
ATOM     15  S   LIG    1       -6.285   2.392   0.046  0.00  0.00    +0.130 S 
ENDBRANCH   8  11
ENDBRANCH   3   6
ENDBRANCH   1   2
BRANCH   1  16
ATOM     16  N   LIG    1        3.562   1.887  -0.022  0.00  0.00    -0.980 NA
ATOM     17  C   LIG    1        4.052   2.447   1.240  0.00  0.00    +0.320 C 
BRANCH  16  18
ATOM     18  S   LIG    1        4.253   2.347  -1.455  0.00  0.00    +2.690 S 
ATOM     19  O   LIG    1        3.996   1.299  -2.379  0.00  0.00    -0.950 OA
ATOM     20  O   LIG    1        5.562   2.803  -1.141  0.00  0.00    -0.950 OA
BRANCH  18  25
ATOM     21  C   LIG    1        1.205   7.159  -3.445  0.00  0.00    +0.100 C 
ATOM     22  C   LIG    1        1.966   5.957  -2.947  0.00  0.00    -0.030 A 
ATOM     23  C   LIG    1        3.065   6.126  -2.126  0.00  0.00    -0.010 A 
ATOM     24  C   LIG    1        3.763   5.024  -1.670  0.00  0.00    +0.120 A 
ATOM     25  C   LIG    1        3.363   3.752  -2.035  0.00  0.00    -0.670 A 
ATOM     26  C   LIG    1        2.267   3.583  -2.861  0.00  0.00    +0.120 A 
ATOM     27  C   LIG    1        1.565   4.686  -3.312  0.00  0.00    -0.100 A 
ATOM     28  C   LIG    1        0.367   4.501  -4.208  0.00  0.00    +0.090 C 
ENDBRANCH  18  25
ENDBRANCH  16  18
ENDBRANCH   1  16
TORSDOF 6
