REMARK  Name = ZINCpk00001AZiyp.0
REMARK                            x       y       z     vdW  Elec       q    Type
REMARK                         _______ _______ _______ _____ _____    ______ ____
ROOT
ATOM      1  C   LIG    1       -1.231   2.195   0.020  0.00  0.00    +0.350 C 
ENDROOT
BRANCH   1   2
ATOM      2  C   LIG    1       -0.016   1.304   0.009  0.00  0.00    +0.010 A 
ATOM      3  N   LIG    1        0.002  -0.004   0.002  0.00  0.00    -0.300 NA
ATOM      4  O   LIG    1        1.138  -0.439  -0.011  0.00  0.00    +0.140 OA
ATOM      5  C   LIG    1        2.029   0.546  -0.016  0.00  0.00    -0.010 A 
ATOM      6  C   LIG    1        3.535   0.514  -0.037  0.00  0.00    +0.150 C 
ATOM      7  C   LIG    1        4.024   1.915  -0.435  0.00  0.00    +0.240 C 
ATOM      8  O   LIG    1        3.342   2.907   0.337  0.00  0.00    -0.370 OA
ATOM      9  C   LIG    1        1.954   3.068   0.004  0.00  0.00    +0.310 C 
ATOM     10  C   LIG    1        1.323   1.706  -0.001  0.00  0.00    -0.250 A 
ENDBRANCH   1   2
BRANCH   1  11
ATOM     11  C   LIG    1       -1.847   2.188   1.396  0.00  0.00    +0.190 A 
ATOM     12  N   LIG    1       -2.559   1.226   1.930  0.00  0.00    -0.260 NA
ATOM     13  N   LIG    1       -2.901   1.596   3.115  0.00  0.00    -0.080 NA
ATOM     14  N   LIG    1       -2.433   2.772   3.349  0.00  0.00    -0.080 NA
ATOM     15  N   LIG    1       -1.776   3.171   2.312  0.00  0.00    -0.290 N 
BRANCH  15  16
ATOM     16  C   LIG    1       -1.085   4.454   2.161  0.00  0.00    +0.250 C 
ATOM     17  C   LIG    1       -0.006   4.582   3.238  0.00  0.00    +0.070 C 
ATOM     18  C   LIG    1       -2.092   5.597   2.309  0.00  0.00    +0.070 C 
ENDBRANCH  15  16
ENDBRANCH   1  11
BRANCH   1  19
ATOM     19  N   LIG    1       -2.210   1.699  -0.957  0.00  0.00    -0.510 NA
BRANCH  19  20
ATOM     20  C   LIG    1       -3.411   2.545  -0.974  0.00  0.00    +0.240 C 
BRANCH  20  22
ATOM     21  C   LIG    1       -4.399   3.500   1.044  0.00  0.00    -0.010 C 
ATOM     22  C   LIG    1       -4.129   2.425   0.346  0.00  0.00    -0.010 C 
ENDBRANCH  20  22
ENDBRANCH  19  20
BRANCH  19  23
ATOM     23  C   LIG    1       -1.615   1.603  -2.296  0.00  0.00    +0.370 C 
BRANCH  23  24
ATOM     24  C   LIG    1       -0.568   0.569  -2.295  0.00  0.00    +0.200 C 
ATOM     25  N   LIG    1        0.241  -0.230  -2.293  0.00  0.00    -0.410 NA
ENDBRANCH  23  24
ENDBRANCH  19  23
ENDBRANCH   1  19
TORSDOF 8
