REMARK  Name = ZINCqH00000393oX.0
REMARK                            x       y       z     vdW  Elec       q    Type
REMARK                         _______ _______ _______ _____ _____    ______ ____
ROOT
ATOM      1  C   LIG    1        1.071   1.893   0.002  0.00  0.00    +0.040 A 
ATOM      2  C   LIG    1       -0.013   1.076   0.008  0.00  0.00    +0.190 A 
ATOM      3  N   LIG    1       -1.121   1.865   0.017  0.00  0.00    -0.330 N 
ATOM      4  N   LIG    1       -0.698   3.200   0.025  0.00  0.00    -0.270 NA
ATOM      5  C   LIG    1        0.611   3.218   0.013  0.00  0.00    +0.290 A 
ENDROOT
BRANCH   1   9
ATOM      6  N   LIG    1        4.692   2.012  -0.029  0.00  0.00    -0.740 N 
ATOM      7  H   LIG    1        4.912   1.067  -0.035  0.00  0.00    +0.400 HD
ATOM      8  C   LIG    1        3.403   2.404  -0.016  0.00  0.00    +0.710 C 
ATOM      9  N   LIG    1        2.418   1.483  -0.012  0.00  0.00    -0.660 N 
ATOM     10  H   LIG    1        2.638   0.538  -0.018  0.00  0.00    +0.410 HD
ATOM     11  O   LIG    1        3.127   3.588  -0.009  0.00  0.00    -0.570 OA
BRANCH   6  16
ATOM     12  C   LIG    1        7.060   2.401   0.532  0.00  0.00    +0.130 C 
ATOM     13  C   LIG    1        7.846   1.949  -0.723  0.00  0.00    +0.050 C 
ATOM     14  C   LIG    1        7.550   3.080  -1.738  0.00  0.00    +0.040 C 
ATOM     15  C   LIG    1        6.073   3.444  -1.478  0.00  0.00    +0.020 C 
ATOM     16  C   LIG    1        5.762   3.012  -0.034  0.00  0.00    +0.280 C 
BRANCH  12  18
ATOM     17  N   LIG    1        6.516   0.355   2.055  0.00  0.00    -0.420 NA
ATOM     18  C   LIG    1        6.753   1.246   1.392  0.00  0.00    +0.210 C 
ENDBRANCH  12  18
ENDBRANCH   6  16
ENDBRANCH   1   9
BRANCH   3  19
ATOM     19  C   LIG    1       -2.451   1.421   0.020  0.00  0.00    +0.170 A 
ATOM     20  C   LIG    1       -2.730   0.061   0.008  0.00  0.00    +0.030 A 
ATOM     21  C   LIG    1       -4.041  -0.373   0.016  0.00  0.00    +0.060 A 
ATOM     22  C   LIG    1       -5.075   0.545   0.025  0.00  0.00    +0.060 A 
ATOM     23  C   LIG    1       -4.800   1.900   0.032  0.00  0.00    -0.160 A 
ATOM     24  C   LIG    1       -3.491   2.341   0.029  0.00  0.00    +0.070 A 
BRANCH  23  25
ATOM     25  C   LIG    1       -5.930   2.897   0.042  0.00  0.00    +0.510 C 
ATOM     26  F   LIG    1       -5.521   4.059   0.706  0.00  0.00    -0.170 F 
ATOM     27  F   LIG    1       -7.033   2.346   0.702  0.00  0.00    -0.170 F 
ATOM     28  F   LIG    1       -6.285   3.214  -1.274  0.00  0.00    -0.170 F 
ENDBRANCH  23  25
ENDBRANCH   3  19
TORSDOF 5
