REMARK  Name = ZINCrD000000C6cP.0
REMARK                            x       y       z     vdW  Elec       q    Type
REMARK                         _______ _______ _______ _____ _____    ______ ____
ROOT
ATOM      1  C   LIG    1       -1.133  -2.271   0.513  0.00  0.00    +0.560 C 
ATOM      2  N   LIG    1       -0.127  -2.911  -0.115  0.00  0.00    -0.660 N 
ATOM      3  H   LIG    1        0.612  -2.405  -0.488  0.00  0.00    +0.410 HD
ATOM      4  O   LIG    1       -1.986  -2.908   1.099  0.00  0.00    -0.500 OA
ENDROOT
BRANCH   1   8
ATOM      5  O   LIG    1        0.624   2.060  -0.552  0.00  0.00    -0.520 OA
ATOM      6  C   LIG    1       -0.280   1.403  -0.066  0.00  0.00    +0.540 A 
ATOM      7  C   LIG    1       -0.186  -0.055  -0.057  0.00  0.00    +0.010 A 
ATOM      8  C   LIG    1       -1.199  -0.790   0.488  0.00  0.00    -0.030 A 
ATOM      9  C   LIG    1       -2.357  -0.080   1.052  0.00  0.00    -0.110 A 
ATOM     10  C   LIG    1       -3.420  -0.787   1.621  0.00  0.00    +0.110 A 
ATOM     11  C   LIG    1       -4.488  -0.109   2.139  0.00  0.00    -0.020 A 
ATOM     12  C   LIG    1       -4.526   1.278   2.104  0.00  0.00    +0.070 A 
ATOM     13  C   LIG    1       -3.490   1.996   1.549  0.00  0.00    -0.030 A 
ATOM     14  C   LIG    1       -2.392   1.326   1.015  0.00  0.00    +0.180 A 
ATOM     15  N   LIG    1       -1.351   2.031   0.450  0.00  0.00    -0.630 N 
ATOM     16  H   LIG    1       -1.388   3.000   0.432  0.00  0.00    +0.420 HD
ENDBRANCH   1   8
BRANCH   2  17
ATOM     17  C   LIG    1       -0.147  -4.304  -0.228  0.00  0.00    +0.140 A 
ATOM     18  C   LIG    1       -1.359  -4.977  -0.319  0.00  0.00    +0.030 A 
ATOM     19  C   LIG    1       -1.375  -6.353  -0.437  0.00  0.00    +0.030 A 
ATOM     20  C   LIG    1       -0.188  -7.062  -0.453  0.00  0.00    +0.000 A 
ATOM     21  C   LIG    1        1.020  -6.395  -0.356  0.00  0.00    -0.090 A 
ATOM     22  C   LIG    1        1.044  -5.019  -0.244  0.00  0.00    +0.010 A 
BRANCH  21  23
ATOM     23  C   LIG    1        2.312  -7.171  -0.374  0.00  0.00    +0.350 C 
BRANCH  23  24
ATOM     24  N   LIG    1        2.682  -7.534   0.997  0.00  0.00    -0.620 N 
ATOM     25  C   LIG    1        2.269  -8.773   1.666  0.00  0.00    +0.250 C 
ATOM     26  C   LIG    1        2.506  -8.526   3.172  0.00  0.00    +0.040 C 
ATOM     27  C   LIG    1        3.616  -7.450   3.145  0.00  0.00    +0.040 C 
ATOM     28  C   LIG    1        3.449  -6.777   1.800  0.00  0.00    +0.520 C 
ATOM     29  O   LIG    1        3.935  -5.709   1.493  0.00  0.00    -0.530 OA
ENDBRANCH  23  24
ENDBRANCH  21  23
ENDBRANCH   2  17
TORSDOF 4
