REMARK  Name = ZINCrD00000l1983.0
REMARK                            x       y       z     vdW  Elec       q    Type
REMARK                         _______ _______ _______ _____ _____    ______ ____
ROOT
ATOM      1  C   LIG    1        2.993   3.486   0.974  0.00  0.00    +0.080 C 
ATOM      2  C   LIG    1        3.493   2.057   1.197  0.00  0.00    +0.180 C 
ENDROOT
BRANCH   2   3
ATOM      3  N   LIG    1        2.344   1.152   1.333  0.00  0.00    -0.500 NA
ATOM      4  C   LIG    1        1.361   1.385   0.267  0.00  0.00    +0.190 C 
ATOM      5  C   LIG    1        0.103   0.555   0.546  0.00  0.00    +0.310 C 
ATOM      6  N   LIG    1        0.501  -0.849   0.730  0.00  0.00    -0.990 NA
ATOM      7  C   LIG    1        1.579  -1.148   1.684  0.00  0.00    +0.310 C 
ATOM      8  C   LIG    1        2.779  -0.251   1.360  0.00  0.00    +0.170 C 
BRANCH   6   9
ATOM      9  S   LIG    1       -0.245  -2.062  -0.116  0.00  0.00    +2.720 S 
ATOM     10  O   LIG    1       -1.524  -1.565  -0.486  0.00  0.00    -0.950 OA
ATOM     11  O   LIG    1       -0.062  -3.250   0.641  0.00  0.00    -0.950 OA
BRANCH   9  12
ATOM     12  C   LIG    1        0.654  -2.283  -1.615  0.00  0.00    -0.800 A 
ATOM     13  C   LIG    1        1.688  -3.110  -1.776  0.00  0.00    +0.160 A 
ATOM     14  C   LIG    1        2.236  -3.118  -3.047  0.00  0.00    -0.010 A 
ATOM     15  C   LIG    1        1.654  -2.289  -3.915  0.00  0.00    +0.000 A 
ATOM     16  S   LIG    1        0.332  -1.440  -3.125  0.00  0.00    +0.220 S 
ENDBRANCH   9  12
ENDBRANCH   6   9
ENDBRANCH   2   3
BRANCH   2  17
ATOM     17  C   LIG    1        4.332   1.629   0.020  0.00  0.00    +0.490 C 
ATOM     18  N   LIG    1        5.658   1.869   0.015  0.00  0.00    -0.660 N 
ATOM     19  H   LIG    1        6.086   2.244   0.801  0.00  0.00    +0.420 HD
ATOM     20  O   LIG    1        3.814   1.069  -0.922  0.00  0.00    -0.500 OA
BRANCH  18  21
ATOM     21  C   LIG    1        6.418   1.578  -1.123  0.00  0.00    +0.170 A 
ATOM     22  C   LIG    1        5.797   1.437  -2.357  0.00  0.00    +0.050 A 
ATOM     23  C   LIG    1        6.551   1.153  -3.480  0.00  0.00    -0.010 A 
ATOM     24  C   LIG    1        7.922   1.000  -3.375  0.00  0.00    +0.030 A 
ATOM     25  C   LIG    1        8.543   1.135  -2.147  0.00  0.00    +0.080 A 
ATOM     26 CL   LIG    1        5.776   0.982  -5.024  0.00  0.00    -0.050 Cl
ATOM     27  C   LIG    1        7.795   1.423  -1.021  0.00  0.00    -0.070 A 
ATOM     28 CL   LIG    1        8.576   1.592   0.521  0.00  0.00    -0.050 Cl
ENDBRANCH  18  21
ENDBRANCH   2  17
TORSDOF 5
