REMARK  Name = ZINCrg000000t5YI.0
REMARK                            x       y       z     vdW  Elec       q    Type
REMARK                         _______ _______ _______ _____ _____    ______ ____
ROOT
ATOM      1  C   LIG    1       -2.487   1.203   0.043  0.00  0.00    +0.570 A 
ATOM      2  C   LIG    1       -1.311   1.880  -0.325  0.00  0.00    -0.440 A 
ATOM      3  C   LIG    1       -1.336   3.349  -0.326  0.00  0.00    +0.580 A 
ATOM      4  N   LIG    1       -2.477   3.975   0.029  0.00  0.00    -0.660 N 
ATOM      5  H   LIG    1       -2.509   4.945   0.033  0.00  0.00    +0.440 HD
ATOM      6  C   LIG    1       -3.568   3.275   0.376  0.00  0.00    +0.710 A 
ATOM      7  O   LIG    1       -4.576   3.878   0.690  0.00  0.00    -0.520 OA
ATOM      8  O   LIG    1       -0.348   3.987  -0.640  0.00  0.00    -0.490 OA
ATOM      9  N   LIG    1       -3.588   1.933   0.390  0.00  0.00    -0.520 N 
ENDROOT
BRANCH   1  10
ATOM     10  N   LIG    1       -2.526  -0.157   0.057  0.00  0.00    -0.800 N 
ATOM     11  H   LIG    1       -3.366  -0.619  -0.088  0.00  0.00    +0.410 HD
ATOM     12  H   LIG    1       -1.713  -0.664   0.212  0.00  0.00    +0.440 HD
ENDBRANCH   1  10
BRANCH   9  13
ATOM     13  C   LIG    1       -4.816   1.237   0.782  0.00  0.00    +0.170 C 
ATOM     14  C   LIG    1       -5.524   1.713   2.051  0.00  0.00    +0.100 C 
ATOM     15  C   LIG    1       -4.770   0.381   2.049  0.00  0.00    +0.060 C 
ENDBRANCH   9  13
BRANCH   2  16
ATOM     16  C   LIG    1       -0.145   1.171  -0.687  0.00  0.00    +0.460 C 
ATOM     17  O   LIG    1       -0.110  -0.037  -0.574  0.00  0.00    -0.490 OA
BRANCH  16  18
ATOM     18  C   LIG    1        1.052   1.914  -1.221  0.00  0.00    +0.120 C 
BRANCH  18  19
ATOM     19  S   LIG    1        2.373   0.735  -1.600  0.00  0.00    +0.050 S 
BRANCH  19  20
ATOM     20  C   LIG    1        3.612   1.842  -2.188  0.00  0.00    +0.150 A 
ATOM     21  N   LIG    1        3.510   3.147  -2.286  0.00  0.00    -0.280 NA
ATOM     22  N   LIG    1        4.602   3.638  -2.753  0.00  0.00    -0.280 NA
ATOM     23  C   LIG    1        5.461   2.685  -2.980  0.00  0.00    +0.390 A 
ATOM     24  N   LIG    1        4.864   1.505  -2.623  0.00  0.00    -0.420 N 
BRANCH  24  25
ATOM     25  C   LIG    1        5.420   0.219  -2.691  0.00  0.00    +0.110 A 
ATOM     26  C   LIG    1        5.368  -0.620  -1.587  0.00  0.00    +0.030 A 
ATOM     27  C   LIG    1        5.912  -1.888  -1.659  0.00  0.00    +0.040 A 
ATOM     28  C   LIG    1        6.516  -2.317  -2.826  0.00  0.00    +0.020 A 
ATOM     29  C   LIG    1        6.574  -1.481  -3.926  0.00  0.00    +0.040 A 
ATOM     30  C   LIG    1        6.028  -0.214  -3.861  0.00  0.00    +0.020 A 
ENDBRANCH  24  25
ENDBRANCH  19  20
ENDBRANCH  18  19
ENDBRANCH  16  18
ENDBRANCH   2  16
TORSDOF 7
