REMARK  Name = ZINCpe00000FUpPK.0
REMARK                            x       y       z     vdW  Elec       q    Type
REMARK                         _______ _______ _______ _____ _____    ______ ____
ROOT
ATOM      1  C   LIG    1        5.137   2.548   4.266  0.00  0.00    +0.200 A 
ATOM      2  C   LIG    1        5.799   2.834   3.079  0.00  0.00    -0.020 A 
ATOM      3  C   LIG    1        5.150   3.528   2.078  0.00  0.00    +0.150 A 
ATOM      4  C   LIG    1        3.841   3.939   2.256  0.00  0.00    -0.700 A 
ATOM      5  C   LIG    1        3.181   3.661   3.438  0.00  0.00    +0.150 A 
ATOM      6  C   LIG    1        3.823   2.962   4.442  0.00  0.00    +0.010 A 
ENDROOT
BRANCH   1   9
ATOM      7  O   LIG    1        3.924   0.785   5.848  0.00  0.00    -0.500 OA
ATOM      8  C   LIG    1        5.098   1.005   6.075  0.00  0.00    +0.580 C 
ATOM      9  N   LIG    1        5.792   1.845   5.282  0.00  0.00    -0.660 N 
ATOM     10  H   LIG    1        6.745   1.962   5.416  0.00  0.00    +0.430 HD
BRANCH   8  11
ATOM     11  C   LIG    1        5.765   0.349   7.224  0.00  0.00    +0.020 A 
ATOM     12  C   LIG    1        5.048  -0.515   8.049  0.00  0.00    +0.310 A 
ATOM     13  N   LIG    1        5.649  -1.101   9.069  0.00  0.00    -0.440 NA
ATOM     14  C   LIG    1        6.925  -0.860   9.313  0.00  0.00    +0.260 A 
ATOM     15  C   LIG    1        7.640   0.004   8.497  0.00  0.00    +0.230 A 
ATOM     16  N   LIG    1        7.050   0.589   7.474  0.00  0.00    -0.410 NA
ENDBRANCH   8  11
ENDBRANCH   1   9
BRANCH   4  17
ATOM     17  S   LIG    1        3.016   4.825   0.976  0.00  0.00    +2.690 S 
ATOM     18  O   LIG    1        1.978   5.563   1.604  0.00  0.00    -0.950 OA
ATOM     19  O   LIG    1        4.032   5.430   0.187  0.00  0.00    -0.950 OA
BRANCH  17  20
ATOM     20  N   LIG    1        2.275   3.707   0.005  0.00  0.00    -0.990 NA
ATOM     21  C   LIG    1        2.978   3.134  -1.151  0.00  0.00    +0.300 C 
ATOM     22  C   LIG    1        2.933   1.607  -1.048  0.00  0.00    +0.020 C 
ATOM     23  C   LIG    1        1.478   1.152  -0.910  0.00  0.00    +0.000 C 
ATOM     24  C   LIG    1        0.877   1.740   0.369  0.00  0.00    +0.150 C 
ATOM     25  C   LIG    1        0.900   3.269   0.283  0.00  0.00    +0.320 C 
BRANCH  24  26
ATOM     26  O   LIG    1       -0.471   1.290   0.513  0.00  0.00    -0.560 OA
ATOM     27  H   LIG    1       -0.561   0.329   0.574  0.00  0.00    +0.380 HD
ENDBRANCH  24  26
ENDBRANCH  17  20
ENDBRANCH   4  17
TORSDOF 5
