REMARK  Name = ZINCqH00000074j9.0
REMARK                            x       y       z     vdW  Elec       q    Type
REMARK                         _______ _______ _______ _____ _____    ______ ____
ROOT
ATOM      1  C   LIG    1       -1.271   7.646   0.054  0.00  0.00    +0.240 A 
ATOM      2  N   LIG    1       -2.344   8.373   0.068  0.00  0.00    -0.490 NA
ATOM      3  C   LIG    1       -2.178   9.683   0.073  0.00  0.00    +0.100 A 
ATOM      4  C   LIG    1       -0.904  10.080   0.063  0.00  0.00    -0.140 A 
ATOM      5  S   LIG    1        0.117   8.645   0.053  0.00  0.00    +0.250 S 
ENDROOT
BRANCH   1   7
ATOM      6  C   LIG    1       -0.075   5.599   0.032  0.00  0.00    +0.570 C 
ATOM      7  N   LIG    1       -1.251   6.257   0.047  0.00  0.00    -0.620 N 
ATOM      8  H   LIG    1       -2.084   5.760   0.053  0.00  0.00    +0.420 HD
ATOM      9  O   LIG    1        0.970   6.222   0.025  0.00  0.00    -0.500 OA
BRANCH   6  13
ATOM     10  C   LIG    1       -0.016   1.353   0.009  0.00  0.00    +0.190 A 
ATOM     11  C   LIG    1       -1.230   2.030   0.019  0.00  0.00    -0.060 A 
ATOM     12  C   LIG    1       -1.253   3.407   0.032  0.00  0.00    +0.120 A 
ATOM     13  C   LIG    1       -0.054   4.124   0.025  0.00  0.00    -0.170 A 
ATOM     14  C   LIG    1        1.165   3.441   0.009  0.00  0.00    +0.180 A 
ATOM     15  C   LIG    1        1.180   2.063   0.002  0.00  0.00    -0.140 A 
ATOM     16 BR   LIG    1        2.828   1.136  -0.019  0.00  0.00    -0.020 Br
BRANCH  10  18
ATOM     17  C   LIG    1       -1.262  -0.670   0.011  0.00  0.00    +0.250 C 
ATOM     18  O   LIG    1        0.002  -0.004   0.002  0.00  0.00    -0.290 OA
ENDBRANCH  10  18
ENDBRANCH   6  13
ENDBRANCH   1   7
BRANCH   3  19
ATOM     19  C   LIG    1       -3.333  10.650   0.089  0.00  0.00    +0.280 C 
BRANCH  19  20
ATOM     20  N   LIG    1       -3.799  10.878  -1.285  0.00  0.00    -0.530 NA
ATOM     21  C   LIG    1       -2.778  11.577  -2.079  0.00  0.00    +0.150 C 
ATOM     22  C   LIG    1       -3.280  11.740  -3.516  0.00  0.00    +0.160 C 
ATOM     23  O   LIG    1       -4.527  12.440  -3.503  0.00  0.00    -0.380 OA
ATOM     24  C   LIG    1       -5.545  11.787  -2.740  0.00  0.00    +0.160 C 
ATOM     25  C   LIG    1       -6.822  12.631  -2.763  0.00  0.00    +0.060 C 
ATOM     26  C   LIG    1       -2.256  12.537  -4.327  0.00  0.00    +0.050 C 
ATOM     27  C   LIG    1       -5.066  11.624  -1.295  0.00  0.00    +0.170 C 
ENDBRANCH  19  20
ENDBRANCH   3  19
TORSDOF 5
