REMARK  Name = ZINCrH000004o0nR.1
REMARK                            x       y       z     vdW  Elec       q    Type
REMARK                         _______ _______ _______ _____ _____    ______ ____
ROOT
ATOM      1  C   LIG    1       -5.517  -2.272   4.564  0.00  0.00    +0.070 C 
ATOM      2  C   LIG    1       -4.152  -1.645   4.859  0.00  0.00    +0.130 C 
ENDROOT
BRANCH   2   3
ATOM      3  C   LIG    1       -3.309  -2.623   5.636  0.00  0.00    +0.520 C 
ATOM      4  N   LIG    1       -3.451  -2.722   6.973  0.00  0.00    -0.560 N 
ATOM      5  C   LIG    1       -4.328  -1.795   7.702  0.00  0.00    +0.270 C 
ATOM      6  C   LIG    1       -3.580  -1.334   8.960  0.00  0.00    +0.020 C 
ATOM      7  C   LIG    1       -3.329  -2.546   9.857  0.00  0.00    +0.080 C 
ATOM      8  C   LIG    1       -2.684  -3.658   9.073  0.00  0.00    -0.120 A 
ATOM      9  C   LIG    1       -1.996  -4.647   9.756  0.00  0.00    +0.020 A 
ATOM     10  C   LIG    1       -1.396  -5.683   9.066  0.00  0.00    -0.020 A 
ATOM     11  C   LIG    1       -1.479  -5.738   7.687  0.00  0.00    +0.020 A 
ATOM     12  C   LIG    1       -2.162  -4.755   6.998  0.00  0.00    +0.020 A 
ATOM     13  C   LIG    1       -2.769  -3.715   7.690  0.00  0.00    +0.150 A 
ATOM     14  O   LIG    1       -2.502  -3.320   5.059  0.00  0.00    -0.490 OA
ENDBRANCH   2   3
BRANCH   2  15
ATOM     15  N   LIG    1       -3.481  -1.315   3.595  0.00  0.00    -0.510 NA
ATOM     16  C   LIG    1       -4.363  -0.534   2.719  0.00  0.00    +0.160 C 
ATOM     17  C   LIG    1       -3.688  -0.334   1.360  0.00  0.00    +0.040 C 
ATOM     18  C   LIG    1       -2.357   0.398   1.560  0.00  0.00    -0.010 C 
ATOM     19  C   LIG    1       -1.476  -0.411   2.515  0.00  0.00    +0.040 C 
ATOM     20  C   LIG    1       -2.216  -0.611   3.840  0.00  0.00    +0.170 C 
BRANCH  18  21
ATOM     21  C   LIG    1       -1.649   0.547   0.212  0.00  0.00    +0.090 C 
BRANCH  21  22
ATOM     22  C   LIG    1       -0.399   1.371   0.390  0.00  0.00    -0.130 A 
ATOM     23  C   LIG    1       -0.443   2.750   0.260  0.00  0.00    +0.050 A 
ATOM     24  C   LIG    1        0.732   3.466   0.427  0.00  0.00    -0.040 A 
ATOM     25  C   LIG    1        1.899   2.787   0.720  0.00  0.00    +0.240 A 
ATOM     26  N   LIG    1        1.903   1.474   0.842  0.00  0.00    -0.480 NA
ATOM     27  C   LIG    1        0.804   0.760   0.691  0.00  0.00    +0.250 A 
ENDBRANCH  21  22
ENDBRANCH  18  21
ENDBRANCH   2  15
TORSDOF 4
