REMARK  Name = ZINCrH00000No4OC.0
REMARK                            x       y       z     vdW  Elec       q    Type
REMARK                         _______ _______ _______ _____ _____    ______ ____
ROOT
ATOM      1  N   LIG    1        3.079  -1.947   1.521  0.00  0.00    -0.640 N 
ATOM      2  H   LIG    1        3.025  -2.443   0.689  0.00  0.00    +0.420 HD
ATOM      3  C   LIG    1        2.945  -0.606   1.516  0.00  0.00    +0.720 C 
ATOM      4  N   LIG    1        2.735   0.046   0.356  0.00  0.00    -0.650 N 
ATOM      5  C   LIG    1        2.602  -0.370  -1.055  0.00  0.00    +0.270 C 
ATOM      6  C   LIG    1        3.053   1.054  -1.404  0.00  0.00    -0.080 C 
ATOM      7  C   LIG    1        4.564   1.195  -1.576  0.00  0.00    +0.030 C 
ATOM      8  C   LIG    1        4.959   0.657  -2.956  0.00  0.00    +0.210 C 
ATOM      9  O   LIG    1        4.200   1.332  -3.961  0.00  0.00    -0.380 OA
ATOM     10  C   LIG    1        2.790   1.117  -3.879  0.00  0.00    +0.200 C 
ATOM     11  C   LIG    1        2.267   1.682  -2.554  0.00  0.00    +0.030 C 
ATOM     12  C   LIG    1        2.548   1.464  -0.015  0.00  0.00    +0.360 C 
ATOM     13  O   LIG    1        3.012   0.015   2.559  0.00  0.00    -0.520 OA
ENDROOT
BRANCH   1  18
ATOM     14  C   LIG    1        3.913  -5.268   5.590  0.00  0.00    +0.160 C 
ATOM     15  C   LIG    1        3.681  -4.144   4.613  0.00  0.00    -0.240 A 
ATOM     16  C   LIG    1        3.589  -2.848   4.917  0.00  0.00    +0.240 A 
ATOM     17  N   LIG    1        3.382  -2.055   3.882  0.00  0.00    -0.470 NA
ATOM     18  C   LIG    1        3.295  -2.620   2.718  0.00  0.00    +0.290 A 
ATOM     19  S   LIG    1        3.476  -4.313   2.871  0.00  0.00    +0.120 S 
ENDBRANCH   1  18
BRANCH  12  20
ATOM     20  C   LIG    1        1.109   1.911   0.002  0.00  0.00    -0.240 A 
ATOM     21  C   LIG    1        0.674   3.192   0.013  0.00  0.00    +0.250 A 
ATOM     22  N   LIG    1       -0.675   3.169   0.025  0.00  0.00    -0.360 N 
ATOM     23  N   LIG    1       -1.083   1.829   0.017  0.00  0.00    -0.290 NA
ATOM     24  C   LIG    1       -0.013   1.076   0.008  0.00  0.00    +0.230 A 
BRANCH  22  25
ATOM     25  C   LIG    1       -1.558   4.338   0.040  0.00  0.00    +0.180 C 
ATOM     26  C   LIG    1       -1.041   5.354   1.061  0.00  0.00    +0.060 C 
ATOM     27  C   LIG    1       -2.973   3.904   0.425  0.00  0.00    +0.060 C 
ATOM     28  C   LIG    1       -1.580   4.977  -1.349  0.00  0.00    +0.050 C 
ENDBRANCH  22  25
ENDBRANCH  12  20
TORSDOF 3
