REMARK  Name = ZINCqH0000032wzz.0
REMARK                            x       y       z     vdW  Elec       q    Type
REMARK                         _______ _______ _______ _____ _____    ______ ____
ROOT
ATOM      1  C   LIG    1        5.646   6.272  -0.818  0.00  0.00    +0.610 C 
ATOM      2  N   LIG    1        4.501   5.574  -0.683  0.00  0.00    -0.600 N 
ATOM      3  C   LIG    1        3.201   6.259  -0.698  0.00  0.00    +0.290 C 
ATOM      4  C   LIG    1        2.440   5.894   0.583  0.00  0.00    +0.290 C 
ATOM      5  N   LIG    1        2.470   4.434   0.746  0.00  0.00    -0.610 N 
ATOM      6  C   LIG    1        3.770   3.749   0.766  0.00  0.00    +0.260 C 
ATOM      7  C   LIG    1        1.325   3.736   0.881  0.00  0.00    +0.560 C 
ATOM      8  O   LIG    1        0.253   4.293   0.741  0.00  0.00    -0.510 OA
ATOM      9  C   LIG    1        4.530   4.114  -0.520  0.00  0.00    +0.280 C 
ATOM     10  O   LIG    1        5.619   7.487  -0.836  0.00  0.00    -0.530 OA
ENDROOT
BRANCH   7  11
ATOM     11  C   LIG    1        1.371   2.293   1.199  0.00  0.00    -0.110 A 
ATOM     12  C   LIG    1        2.286   1.812   2.138  0.00  0.00    +0.070 A 
ATOM     13  C   LIG    1        2.325   0.464   2.430  0.00  0.00    +0.040 A 
ATOM     14  C   LIG    1        1.461  -0.411   1.796  0.00  0.00    +0.070 A 
ATOM     15  C   LIG    1        0.552   0.058   0.864  0.00  0.00    -0.040 A 
ATOM     16 CL   LIG    1       -0.528  -1.049   0.074  0.00  0.00    -0.040 Cl
ATOM     17  C   LIG    1        0.501   1.405   0.561  0.00  0.00    +0.010 A 
ATOM     18 CL   LIG    1       -0.635   1.992  -0.612  0.00  0.00    -0.020 Cl
ENDBRANCH   7  11
BRANCH   1  20
ATOM     19  C   LIG    1        8.169   6.128  -0.970  0.00  0.00    +0.070 A 
ATOM     20  C   LIG    1        6.932   5.562  -0.944  0.00  0.00    -0.080 A 
ATOM     21  N   LIG    1        7.105   4.217  -1.060  0.00  0.00    -0.470 NA
ATOM     22  C   LIG    1        8.378   3.972  -1.149  0.00  0.00    +0.440 A 
ATOM     23  O   LIG    1        9.055   5.127  -1.093  0.00  0.00    -0.190 OA
BRANCH  19  25
ATOM     24  C   LIG    1        9.366   7.854   0.348  0.00  0.00    +0.040 C 
ATOM     25  C   LIG    1        8.485   7.599  -0.877  0.00  0.00    +0.100 C 
ATOM     26  C   LIG    1        9.225   8.043  -2.139  0.00  0.00    +0.040 C 
ENDBRANCH  19  25
ENDBRANCH   1  20
TORSDOF 3
