REMARK  Name = ZINCrH000004m5QJ.0
REMARK                            x       y       z     vdW  Elec       q    Type
REMARK                         _______ _______ _______ _____ _____    ______ ____
ROOT
ATOM      1  C   LIG    1        4.381  -0.548  -3.684  0.00  0.00    +0.120 A 
ATOM      2  C   LIG    1        4.678   0.427  -2.746  0.00  0.00    -0.030 A 
ATOM      3  C   LIG    1        3.723   1.364  -2.396  0.00  0.00    -0.080 A 
ATOM      4  C   LIG    1        2.474   1.337  -2.989  0.00  0.00    +0.050 A 
ATOM      5  C   LIG    1        2.173   0.369  -3.930  0.00  0.00    -0.070 A 
ATOM      6 BR   LIG    1        0.464   0.336  -4.738  0.00  0.00    -0.020 Br
ATOM      7  C   LIG    1        3.124  -0.575  -4.281  0.00  0.00    +0.090 A 
ENDROOT
BRANCH   1   9
ATOM      8  C   LIG    1        6.586  -1.383  -3.372  0.00  0.00    +0.250 C 
ATOM      9  O   LIG    1        5.318  -1.473  -4.026  0.00  0.00    -0.300 OA
ENDBRANCH   1   9
BRANCH   3  10
ATOM     10  C   LIG    1        4.046   2.420  -1.370  0.00  0.00    +0.280 C 
BRANCH  10  11
ATOM     11  N   LIG    1        3.692   1.928  -0.032  0.00  0.00    -0.480 N 
ATOM     12  C   LIG    1        4.606   0.847   0.394  0.00  0.00    +0.220 C 
ATOM     13  C   LIG    1        3.840  -0.429  -0.022  0.00  0.00    +0.050 C 
ATOM     14  C   LIG    1        2.395   0.029  -0.017  0.00  0.00    -0.120 A 
ATOM     15  C   LIG    1        1.211  -0.677  -0.011  0.00  0.00    +0.030 A 
ATOM     16  C   LIG    1        0.002  -0.004   0.002  0.00  0.00    +0.000 A 
ATOM     17  C   LIG    1       -0.017   1.378   0.010  0.00  0.00    +0.020 A 
ATOM     18  C   LIG    1        1.165   2.090   0.002  0.00  0.00    -0.070 A 
ATOM     19  C   LIG    1        1.135   3.596   0.011  0.00  0.00    +0.090 C 
ATOM     20  C   LIG    1        2.387   1.419  -0.014  0.00  0.00    +0.080 A 
ENDBRANCH  10  11
ENDBRANCH   3  10
BRANCH   7  21
ATOM     21  O   LIG    1        2.830  -1.527  -5.207  0.00  0.00    -0.290 OA
BRANCH  21  22
ATOM     22  C   LIG    1        3.112  -1.214  -6.572  0.00  0.00    +0.220 C 
BRANCH  22  23
ATOM     23  C   LIG    1        2.724  -2.378  -7.446  0.00  0.00    +0.520 C 
ATOM     24  N   LIG    1        2.900  -2.308  -8.780  0.00  0.00    -0.620 N 
ATOM     25  C   LIG    1        3.470  -1.100  -9.381  0.00  0.00    +0.270 C 
ATOM     26  C   LIG    1        2.523  -3.441  -9.630  0.00  0.00    +0.300 C 
ATOM     27  O   LIG    1        2.252  -3.379  -6.949  0.00  0.00    -0.510 OA
ENDBRANCH  22  23
ENDBRANCH  21  22
ENDBRANCH   7  21
TORSDOF 6
