REMARK  Name = ZINC9H0000000CDd.0
REMARK                            x       y       z     vdW  Elec       q    Type
REMARK                         _______ _______ _______ _____ _____    ______ ____
ROOT
ATOM      1 CL   LIG    1       -0.074   5.577   0.034  0.00  0.00    -0.020 Cl
ATOM      2  C   LIG    1       -0.051   3.842   0.024  0.00  0.00    +0.010 A 
ATOM      3  C   LIG    1        1.157   3.166   0.009  0.00  0.00    -0.090 A 
ATOM      4  C   LIG    1        1.175   1.783   0.000  0.00  0.00    +0.090 A 
ATOM      5  C   LIG    1       -0.013   1.076   0.008  0.00  0.00    +0.050 A 
ATOM      6  C   LIG    1       -1.219   1.750   0.017  0.00  0.00    +0.090 A 
ATOM      7 BR   LIG    1        2.782   4.133  -0.001  0.00  0.00    -0.010 Br
ATOM      8  C   LIG    1       -1.239   3.133   0.031  0.00  0.00    -0.100 A 
ATOM      9  I   LIG    1       -3.068   4.154   0.054  0.00  0.00    -0.000 I 
ENDROOT
TORSDOF 0
