REMARK  Name = ZINCkj000005mivs.0
REMARK                            x       y       z     vdW  Elec       q    Type
REMARK                         _______ _______ _______ _____ _____    ______ ____
ROOT
ATOM      1  O   LIG    1       -4.206   5.586  -3.497  0.00  0.00    -0.450 OA
ATOM      2  C   LIG    1       -3.202   5.749  -4.163  0.00  0.00    +0.570 A 
ATOM      3  O   LIG    1       -3.056   6.573  -5.213  0.00  0.00    +0.020 OA
ATOM      4  N   LIG    1       -1.934   6.506  -5.661  0.00  0.00    -0.290 NA
ATOM      5  C   LIG    1       -1.203   5.665  -4.995  0.00  0.00    +0.260 A 
ATOM      6  N   LIG    1       -2.006   5.134  -3.995  0.00  0.00    -0.560 N 
ENDROOT
BRANCH   5   7
ATOM      7  C   LIG    1        0.217   5.332  -5.254  0.00  0.00    +0.020 A 
ATOM      8  C   LIG    1        0.975   6.078  -6.163  0.00  0.00    +0.040 A 
ATOM      9  C   LIG    1        2.297   5.737  -6.370  0.00  0.00    +0.310 A 
ATOM     10  N   LIG    1        2.841   4.718  -5.733  0.00  0.00    -0.460 NA
ATOM     11  C   LIG    1        2.160   3.987  -4.872  0.00  0.00    +0.290 A 
ATOM     12  C   LIG    1        0.835   4.261  -4.601  0.00  0.00    -0.060 A 
ENDBRANCH   5   7
BRANCH   6  13
ATOM     13  C   LIG    1       -1.642   4.140  -2.983  0.00  0.00    +0.360 C 
BRANCH  13  14
ATOM     14  C   LIG    1       -1.789   2.735  -3.572  0.00  0.00    +0.250 C 
BRANCH  14  15
ATOM     15  N   LIG    1       -1.275   1.746  -2.615  0.00  0.00    -0.380 N 
ATOM     16  C   LIG    1       -1.306   0.413  -3.228  0.00  0.00    +0.250 C 
ATOM     17  C   LIG    1       -0.697  -0.609  -2.266  0.00  0.00    +0.060 C 
ATOM     18  C   LIG    1       -1.505  -0.624  -0.965  0.00  0.00    +0.040 C 
ATOM     19  C   LIG    1       -1.529   0.789  -0.374  0.00  0.00    +0.070 C 
ATOM     20  C   LIG    1       -2.108   1.759  -1.407  0.00  0.00    +0.250 C 
ATOM     21  H   LIG    1       -0.325   1.981  -2.370  0.00  0.00    +0.420 HD
ENDBRANCH  14  15
ENDBRANCH  13  14
ENDBRANCH   6  13
TORSDOF 4
