REMARK  Name = ZINCpe000000WlRB.0
REMARK                            x       y       z     vdW  Elec       q    Type
REMARK                         _______ _______ _______ _____ _____    ______ ____
ROOT
ATOM      1  C   LIG    1        2.387   4.799   0.880  0.00  0.00    +0.240 A 
ATOM      2  C   LIG    1        2.164   5.846  -0.002  0.00  0.00    -0.090 A 
ATOM      3  C   LIG    1        1.245   6.832   0.318  0.00  0.00    +0.200 A 
ATOM      4  C   LIG    1        0.547   6.770   1.523  0.00  0.00    +0.020 A 
ATOM      5  O   LIG    1       -0.352   7.745   1.825  0.00  0.00    -0.290 OA
ATOM      6  C   LIG    1       -0.060   9.060   1.346  0.00  0.00    +0.310 C 
ATOM      7  C   LIG    1        0.357   8.991  -0.101  0.00  0.00    +0.490 C 
ATOM      8  O   LIG    1        0.111   9.912  -0.850  0.00  0.00    -0.490 OA
ATOM      9  C   LIG    1        0.769   5.720   2.397  0.00  0.00    +0.200 A 
ATOM     10  N   LIG    1        1.005   7.898  -0.560  0.00  0.00    -0.660 N 
ATOM     11  H   LIG    1        1.299   7.852  -1.483  0.00  0.00    +0.420 HD
ATOM     12  C   LIG    1        1.691   4.740   2.078  0.00  0.00    -0.710 A 
ENDROOT
BRANCH  12  13
ATOM     13  S   LIG    1        1.977   3.407   3.195  0.00  0.00    +2.700 S 
ATOM     14  O   LIG    1        3.387   3.297   3.335  0.00  0.00    -0.940 OA
ATOM     15  O   LIG    1        1.101   3.611   4.295  0.00  0.00    -0.960 OA
BRANCH  13  16
ATOM     16  N   LIG    1        1.471   2.021   2.444  0.00  0.00    -1.110 NA
ATOM     17  H   LIG    1        0.721   1.522   2.803  0.00  0.00    +0.420 HD
BRANCH  16  18
ATOM     18  C   LIG    1        2.157   1.548   1.239  0.00  0.00    +0.270 C 
ATOM     19  C   LIG    1        1.417   2.055  -0.000  0.00  0.00    +0.000 C 
ATOM     20  C   LIG    1       -0.019   1.526   0.010  0.00  0.00    +0.000 C 
ATOM     21  C   LIG    1        0.002  -0.004   0.002  0.00  0.00    +0.000 C 
ATOM     22  C   LIG    1        0.742  -0.511   1.242  0.00  0.00    +0.020 C 
ATOM     23  C   LIG    1        2.178   0.019   1.231  0.00  0.00    +0.000 C 
BRANCH  23  24
ATOM     24  C   LIG    1        2.917  -0.488   2.470  0.00  0.00    +0.180 C 
BRANCH  24  25
ATOM     25  O   LIG    1        3.039  -1.911   2.404  0.00  0.00    -0.570 OA
ATOM     26  H   LIG    1        3.499  -2.301   3.159  0.00  0.00    +0.380 HD
ENDBRANCH  24  25
ENDBRANCH  23  24
ENDBRANCH  16  18
ENDBRANCH  13  16
ENDBRANCH  12  13
BRANCH   1  28
ATOM     27  C   LIG    1        3.970   3.954  -0.681  0.00  0.00    +0.260 C 
ATOM     28  O   LIG    1        3.289   3.830   0.570  0.00  0.00    -0.300 OA
ENDBRANCH   1  28
TORSDOF 6
