REMARK  Name = ZINCrD000003XJsO.0
REMARK                            x       y       z     vdW  Elec       q    Type
REMARK                         _______ _______ _______ _____ _____    ______ ____
ROOT
ATOM      1  C   LIG    1       -2.055  -2.738  -0.869  0.00  0.00    +0.250 C 
ATOM      2  C   LIG    1       -1.138  -2.160   0.214  0.00  0.00    +0.300 C 
ATOM      3  N   LIG    1       -1.150  -0.694   0.111  0.00  0.00    -0.610 N 
ATOM      4  C   LIG    1       -2.442   0.005   0.135  0.00  0.00    +0.280 C 
ATOM      5  C   LIG    1       -3.344  -0.598  -0.953  0.00  0.00    +0.060 C 
ATOM      6  C   LIG    1        0.002  -0.004   0.002  0.00  0.00    +0.590 C 
ATOM      7  O   LIG    1        1.057  -0.597  -0.116  0.00  0.00    -0.520 OA
ATOM      8  C   LIG    1       -3.445  -2.111  -0.743  0.00  0.00    -0.010 C 
ENDROOT
BRANCH   6   9
ATOM      9  C   LIG    1       -0.016   1.469   0.026  0.00  0.00    -0.230 A 
ATOM     10  C   LIG    1       -0.818   2.272   0.784  0.00  0.00    +0.220 A 
ATOM     11  O   LIG    1       -0.519   3.546   0.511  0.00  0.00    -0.170 OA
ATOM     12  C   LIG    1        0.453   3.622  -0.412  0.00  0.00    +0.180 A 
ATOM     13  C   LIG    1        0.821   2.382  -0.767  0.00  0.00    -0.010 A 
ENDBRANCH   6   9
BRANCH   1  15
ATOM     14  C   LIG    1       -1.223  -4.998  -1.239  0.00  0.00    +0.600 C 
ATOM     15  N   LIG    1       -2.156  -4.190  -0.699  0.00  0.00    -0.720 N 
ATOM     16  H   LIG    1       -2.895  -4.569  -0.198  0.00  0.00    +0.410 HD
ATOM     17  O   LIG    1       -0.297  -4.523  -1.868  0.00  0.00    -0.510 OA
BRANCH  14  24
ATOM     18  C   LIG    1        0.054  -6.775   1.189  0.00  0.00    +0.120 C 
ATOM     19  C   LIG    1       -0.756  -7.269   0.018  0.00  0.00    -0.150 A 
ATOM     20  C   LIG    1       -1.105  -8.537  -0.246  0.00  0.00    +0.170 A 
ATOM     21  O   LIG    1       -1.824  -8.569  -1.378  0.00  0.00    -0.170 OA
ATOM     22  C   LIG    1       -1.974  -7.340  -1.883  0.00  0.00    +0.050 A 
ATOM     23  C   LIG    1       -2.726  -6.990  -3.141  0.00  0.00    +0.190 C 
ATOM     24  C   LIG    1       -1.326  -6.459  -1.069  0.00  0.00    -0.240 A 
ENDBRANCH  14  24
ENDBRANCH   1  15
BRANCH   8  25
ATOM     25  C   LIG    1       -4.372  -2.711  -1.801  0.00  0.00    +0.460 C 
ATOM     26  F   LIG    1       -3.857  -2.451  -3.075  0.00  0.00    -0.180 F 
ATOM     27  F   LIG    1       -5.643  -2.138  -1.687  0.00  0.00    -0.180 F 
ATOM     28  F   LIG    1       -4.466  -4.094  -1.609  0.00  0.00    -0.180 F 
ENDBRANCH   8  25
TORSDOF 4
