REMARK  Name = ZINCrg000000sQor.0
REMARK                            x       y       z     vdW  Elec       q    Type
REMARK                         _______ _______ _______ _____ _____    ______ ____
ROOT
ATOM      1  C   LIG    1        2.406   0.752  -0.017  0.00  0.00    -0.120 A 
ATOM      2  C   LIG    1        2.925   0.317  -1.223  0.00  0.00    +0.060 A 
ATOM      3  C   LIG    1        3.989  -0.569  -1.246  0.00  0.00    +0.000 A 
ATOM      4  C   LIG    1        4.539  -1.022  -0.065  0.00  0.00    +0.050 A 
ATOM      5  C   LIG    1        4.020  -0.586   1.155  0.00  0.00    -0.140 A 
ATOM      6  C   LIG    1        2.950   0.310   1.172  0.00  0.00    +0.100 A 
ENDROOT
BRANCH   5   7
ATOM      7  C   LIG    1        4.605  -1.068   2.425  0.00  0.00    +0.560 C 
ATOM      8  N   LIG    1        5.641  -1.930   2.405  0.00  0.00    -0.720 N 
ATOM      9  H   LIG    1        6.003  -2.234   1.558  0.00  0.00    +0.400 HD
ATOM     10  O   LIG    1        4.151  -0.687   3.486  0.00  0.00    -0.530 OA
BRANCH   8  11
ATOM     11  C   LIG    1        6.220  -2.407   3.663  0.00  0.00    +0.280 C 
BRANCH  11  12
ATOM     12  C   LIG    1        7.373  -3.367   3.362  0.00  0.00    +0.140 C 
ATOM     13  C   LIG    1        7.989  -3.875   4.680  0.00  0.00    +0.010 C 
ATOM     14  C   LIG    1        7.837  -5.414   4.602  0.00  0.00    +0.000 C 
ATOM     15  C   LIG    1        7.668  -5.646   3.079  0.00  0.00    +0.210 C 
ATOM     16  O   LIG    1        6.880  -4.514   2.651  0.00  0.00    -0.370 OA
ENDBRANCH  11  12
ENDBRANCH   8  11
ENDBRANCH   5   7
BRANCH   1  17
ATOM     17  C   LIG    1        1.248   1.716  -0.001  0.00  0.00    +0.340 C 
BRANCH  17  24
ATOM     18  C   LIG    1       -4.404   1.065  -1.379  0.00  0.00    +0.290 C 
ATOM     19  C   LIG    1       -3.634   1.640  -0.179  0.00  0.00    +0.320 C 
ATOM     20  N   LIG    1       -2.344   0.939  -0.084  0.00  0.00    -0.630 N 
ATOM     21  C   LIG    1       -2.354  -0.533  -0.094  0.00  0.00    +0.250 C 
ATOM     22  C   LIG    1       -3.186  -1.002  -1.292  0.00  0.00    +0.240 C 
ATOM     23  C   LIG    1       -1.187   1.624   0.017  0.00  0.00    +0.710 C 
ATOM     24  N   LIG    1       -0.011   0.966   0.008  0.00  0.00    -0.740 N 
ATOM     25  H   LIG    1        0.002  -0.004   0.003  0.00  0.00    +0.400 HD
ATOM     26  O   LIG    1       -1.205   2.836   0.115  0.00  0.00    -0.580 OA
ATOM     27  O   LIG    1       -4.463  -0.359  -1.260  0.00  0.00    -0.370 OA
BRANCH  18  29
ATOM     28  N   LIG    1       -6.823   2.037  -1.405  0.00  0.00    -0.390 NA
ATOM     29  C   LIG    1       -5.769   1.613  -1.393  0.00  0.00    +0.210 C 
ENDBRANCH  18  29
ENDBRANCH  17  24
ENDBRANCH   1  17
TORSDOF 6
