REMARK  Name = ZINCrH000004pSBa.0
REMARK                            x       y       z     vdW  Elec       q    Type
REMARK                         _______ _______ _______ _____ _____    ______ ____
ROOT
ATOM      1  C   LIG    1        0.125   8.383  -0.225  0.00  0.00    -0.690 A 
ATOM      2  C   LIG    1       -1.092   7.735  -0.122  0.00  0.00    +0.140 A 
ATOM      3  C   LIG    1       -1.137   6.357  -0.039  0.00  0.00    +0.010 A 
ATOM      4  C   LIG    1        0.041   5.622  -0.060  0.00  0.00    +0.200 A 
ATOM      5  C   LIG    1        1.262   6.277  -0.158  0.00  0.00    -0.030 A 
ATOM      6  C   LIG    1        1.300   7.655  -0.246  0.00  0.00    +0.140 A 
ENDROOT
BRANCH   4   7
ATOM      7  N   LIG    1       -0.001   4.227   0.024  0.00  0.00    -0.670 N 
ATOM      8  H   LIG    1        0.697   3.748   0.499  0.00  0.00    +0.410 HD
ATOM      9  C   LIG    1       -1.010   3.547  -0.555  0.00  0.00    +0.560 C 
ATOM     10  O   LIG    1       -1.928   4.150  -1.078  0.00  0.00    -0.490 OA
BRANCH   9  11
ATOM     11  C   LIG    1       -1.002   2.071  -0.556  0.00  0.00    -0.180 A 
ATOM     12  C   LIG    1        0.051   1.375   0.043  0.00  0.00    +0.080 A 
ATOM     13  C   LIG    1        0.052  -0.004   0.040  0.00  0.00    +0.000 A 
ATOM     14  C   LIG    1       -0.985  -0.700  -0.555  0.00  0.00    +0.080 A 
ATOM     15  C   LIG    1       -2.031  -0.021  -1.151  0.00  0.00    -0.010 A 
ATOM     16  C   LIG    1       -2.048   1.362  -1.156  0.00  0.00    +0.170 A 
ATOM     17  F   LIG    1       -3.070   2.026  -1.738  0.00  0.00    -0.110 F 
ENDBRANCH   9  11
ENDBRANCH   4   7
BRANCH   1  18
ATOM     18  S   LIG    1        0.178  10.141  -0.331  0.00  0.00    +2.690 S 
ATOM     19  O   LIG    1       -1.087  10.551  -0.834  0.00  0.00    -0.950 OA
ATOM     20  O   LIG    1        1.408  10.468  -0.963  0.00  0.00    -0.950 OA
BRANCH  18  26
ATOM     21  C   LIG    1       -0.929   8.776   3.067  0.00  0.00    +0.020 C 
ATOM     22  C   LIG    1       -0.882  10.284   3.318  0.00  0.00    -0.030 C 
ATOM     23  C   LIG    1        0.420  10.641   4.040  0.00  0.00    +0.030 C 
ATOM     24  C   LIG    1        1.614  10.200   3.189  0.00  0.00    -0.030 C 
ATOM     25  C   LIG    1        1.584  10.944   1.850  0.00  0.00    +0.290 C 
ATOM     26  N   LIG    1        0.277  10.723   1.216  0.00  0.00    -0.990 NA
ATOM     27  C   LIG    1        2.914  10.527   3.926  0.00  0.00    +0.030 C 
ATOM     28  C   LIG    1       -0.940  11.034   1.978  0.00  0.00    +0.290 C 
ENDBRANCH  18  26
ENDBRANCH   1  18
TORSDOF 4
