REMARK  Name = ZINCvU0000000Iil.0
REMARK                            x       y       z     vdW  Elec       q    Type
REMARK                         _______ _______ _______ _____ _____    ______ ____
ROOT
ATOM      1  C   LIG    1       -0.015   1.091   0.004  0.00  0.00    +0.210 C 
ENDROOT
BRANCH   1   2
ATOM      2  C   LIG    1       -0.744   1.601  -1.212  0.00  0.00    -0.090 A 
ATOM      3  C   LIG    1       -0.551   2.902  -1.639  0.00  0.00    +0.050 A 
ATOM      4  C   LIG    1       -1.218   3.368  -2.757  0.00  0.00    +0.000 A 
ATOM      5  C   LIG    1       -2.082   2.536  -3.443  0.00  0.00    +0.010 A 
ATOM      6  C   LIG    1       -2.279   1.237  -3.013  0.00  0.00    +0.000 A 
ATOM      7  C   LIG    1       -1.610   0.770  -1.897  0.00  0.00    +0.000 A 
ENDBRANCH   1   2
BRANCH   1   9
ATOM      8  O   LIG    1       -0.127   2.264   2.049  0.00  0.00    -0.510 OA
ATOM      9  C   LIG    1       -0.718   1.570   1.249  0.00  0.00    +0.520 C 
ATOM     10  N   LIG    1       -2.002   1.228   1.472  0.00  0.00    -0.670 N 
ATOM     11  H   LIG    1       -2.494   0.729   0.801  0.00  0.00    +0.410 HD
BRANCH  10  12
ATOM     12  C   LIG    1       -2.625   1.591   2.672  0.00  0.00    +0.130 A 
ATOM     13  C   LIG    1       -3.560   0.745   3.253  0.00  0.00    +0.030 A 
ATOM     14  C   LIG    1       -4.170   1.102   4.440  0.00  0.00    +0.010 A 
ATOM     15  C   LIG    1       -3.858   2.309   5.044  0.00  0.00    +0.090 A 
ATOM     16  C   LIG    1       -2.929   3.156   4.463  0.00  0.00    +0.010 A 
ATOM     17  F   LIG    1       -4.460   2.659   6.201  0.00  0.00    -0.140 F 
ATOM     18  C   LIG    1       -2.313   2.800   3.279  0.00  0.00    +0.060 A 
ENDBRANCH  10  12
ENDBRANCH   1   9
BRANCH   1  19
ATOM     19  N   LIG    1        1.364   1.597  -0.004  0.00  0.00    -0.660 NA
ATOM     20  H   LIG    1        1.720   1.693   0.935  0.00  0.00    +0.360 HD
BRANCH  19  21
ATOM     21  C   LIG    1        2.236   0.733  -0.811  0.00  0.00    +0.240 C 
BRANCH  21  22
ATOM     22  C   LIG    1        3.640   1.282  -0.797  0.00  0.00    -0.060 A 
ATOM     23  C   LIG    1        4.036   2.186  -1.764  0.00  0.00    +0.060 A 
ATOM     24  C   LIG    1        5.322   2.699  -1.753  0.00  0.00    -0.040 A 
ATOM     25  C   LIG    1        6.215   2.292  -0.775  0.00  0.00    +0.080 A 
ATOM     26  O   LIG    1        7.487   2.785  -0.755  0.00  0.00    -0.310 OA
ATOM     27  C   LIG    1        7.807   3.646   0.339  0.00  0.00    +0.230 C 
ATOM     28  C   LIG    1        8.221   2.837   1.559  0.00  0.00    -0.010 C 
ATOM     29  C   LIG    1        7.085   1.984   2.100  0.00  0.00    +0.230 C 
ATOM     30  O   LIG    1        6.705   0.985   1.151  0.00  0.00    -0.310 OA
ATOM     31  C   LIG    1        5.818   1.380   0.193  0.00  0.00    +0.080 A 
ATOM     32 CL   LIG    1        5.816   3.840  -2.964  0.00  0.00    -0.050 Cl
ATOM     33  C   LIG    1        4.529   0.874   0.182  0.00  0.00    +0.040 A 
ENDBRANCH  21  22
ENDBRANCH  19  21
ENDBRANCH   1  19
TORSDOF 6
