REMARK  Name = ZINCrH000004jo11.0
REMARK                            x       y       z     vdW  Elec       q    Type
REMARK                         _______ _______ _______ _____ _____    ______ ____
ROOT
ATOM      1  N   LIG    1        7.748  10.656  -0.012  0.00  0.00    -0.560 N 
ATOM      2  C   LIG    1        8.460   9.519  -0.024  0.00  0.00    +0.710 A 
ATOM      3  N   LIG    1        7.889   8.302  -0.025  0.00  0.00    -0.640 N 
ATOM      4  H   LIG    1        8.447   7.509  -0.033  0.00  0.00    +0.440 HD
ATOM      5  C   LIG    1        6.507   8.169  -0.014  0.00  0.00    +0.200 A 
ATOM      6  C   LIG    1        5.899   6.926  -0.015  0.00  0.00    +0.030 A 
ATOM      7  C   LIG    1        4.508   6.841  -0.003  0.00  0.00    +0.050 A 
ATOM      8  C   LIG    1        3.730   8.003   0.003  0.00  0.00    +0.050 A 
ATOM      9  C   LIG    1        4.325   9.234   0.009  0.00  0.00    +0.150 A 
ATOM     10  C   LIG    1        5.715   9.332  -0.002  0.00  0.00    -0.170 A 
ATOM     11  O   LIG    1        9.674   9.592  -0.034  0.00  0.00    -0.530 OA
ATOM     12  C   LIG    1        6.398  10.639  -0.001  0.00  0.00    +0.560 A 
ATOM     13  O   LIG    1        5.761  11.675   0.009  0.00  0.00    -0.480 OA
ENDROOT
BRANCH   7  14
ATOM     14  C   LIG    1        3.851   5.516  -0.004  0.00  0.00    +0.210 A 
ATOM     15  N   LIG    1        2.552   5.283   0.006  0.00  0.00    -0.430 NA
ATOM     16  C   LIG    1        2.427   3.939   0.000  0.00  0.00    +0.210 A 
ATOM     17  N   LIG    1        3.634   3.434  -0.008  0.00  0.00    -0.340 NA
ATOM     18  O   LIG    1        4.461   4.321  -0.015  0.00  0.00    +0.100 OA
BRANCH  16  19
ATOM     19  C   LIG    1        1.155   3.175   0.008  0.00  0.00    -0.010 A 
ATOM     20  C   LIG    1        1.175   1.781   0.000  0.00  0.00    -0.000 A 
ATOM     21  C   LIG    1       -0.013   1.076   0.008  0.00  0.00    +0.040 A 
ATOM     22  C   LIG    1       -1.220   1.750   0.017  0.00  0.00    +0.080 A 
ATOM     23  C   LIG    1       -1.247   3.132   0.030  0.00  0.00    +0.040 A 
ATOM     24 CL   LIG    1        2.690   0.934  -0.018  0.00  0.00    -0.020 Cl
ATOM     25  C   LIG    1       -0.066   3.849   0.022  0.00  0.00    +0.010 A 
ATOM     26 CL   LIG    1       -0.102   5.585   0.032  0.00  0.00    -0.020 Cl
ENDBRANCH  16  19
ENDBRANCH   7  14
BRANCH   1  28
ATOM     27  C   LIG    1        8.706  12.384   1.430  0.00  0.00    +0.030 C 
ATOM     28  C   LIG    1        8.450  11.942  -0.012  0.00  0.00    +0.300 C 
ENDBRANCH   1  28
TORSDOF 3
