REMARK  Name = ZINCrD000006BuYh.0
REMARK                            x       y       z     vdW  Elec       q    Type
REMARK                         _______ _______ _______ _____ _____    ______ ____
ROOT
ATOM      1  C   LIG    1        1.207  -4.634  -2.946  0.00  0.00    +0.230 C 
ATOM      2  C   LIG    1        1.959  -5.943  -3.195  0.00  0.00    +0.030 C 
ATOM      3  C   LIG    1        1.883  -6.300  -4.681  0.00  0.00    +0.020 C 
ATOM      4  C   LIG    1        0.418  -6.467  -5.091  0.00  0.00    +0.250 C 
ATOM      5  C   LIG    1       -0.334  -5.159  -4.842  0.00  0.00    +0.010 C 
ATOM      6  C   LIG    1       -0.258  -4.802  -3.356  0.00  0.00    +0.020 C 
ENDROOT
BRANCH   1   8
ATOM      7  C   LIG    1        1.157  -3.009  -1.131  0.00  0.00    +0.510 C 
ATOM      8  N   LIG    1        1.279  -4.293  -1.523  0.00  0.00    -0.730 N 
ATOM      9  H   LIG    1        1.415  -4.990  -0.863  0.00  0.00    +0.400 HD
ATOM     10  O   LIG    1        0.987  -2.136  -1.956  0.00  0.00    -0.530 OA
BRANCH   7  11
ATOM     11  C   LIG    1        1.232  -2.658   0.332  0.00  0.00    +0.100 C 
BRANCH  11  17
ATOM     12  C   LIG    1        3.236   1.919   0.620  0.00  0.00    +0.090 C 
ATOM     13  C   LIG    1        2.026   1.021   0.638  0.00  0.00    -0.080 A 
ATOM     14  C   LIG    1        0.766   1.562   0.810  0.00  0.00    +0.000 A 
ATOM     15  C   LIG    1       -0.343   0.738   0.827  0.00  0.00    +0.010 A 
ATOM     16  C   LIG    1       -0.193  -0.628   0.672  0.00  0.00    +0.010 A 
ATOM     17  C   LIG    1        1.068  -1.169   0.501  0.00  0.00    -0.070 A 
ATOM     18  C   LIG    1        2.177  -0.345   0.484  0.00  0.00    +0.010 A 
ENDBRANCH  11  17
ENDBRANCH   7  11
ENDBRANCH   1   8
BRANCH   4  19
ATOM     19  N   LIG    1        0.345  -6.809  -6.514  0.00  0.00    -0.690 N 
ATOM     20  H   LIG    1        1.065  -6.551  -7.112  0.00  0.00    +0.420 HD
BRANCH  19  21
ATOM     21  C   LIG    1       -0.754  -7.502  -7.007  0.00  0.00    +0.470 A 
ATOM     22  N   LIG    1       -1.778  -7.760  -6.209  0.00  0.00    -0.530 NA
ATOM     23  C   LIG    1       -2.843  -8.411  -6.638  0.00  0.00    +0.390 A 
ATOM     24  C   LIG    1       -2.921  -8.858  -7.942  0.00  0.00    -0.080 A 
ATOM     25  C   LIG    1       -1.865  -8.612  -8.810  0.00  0.00    +0.200 A 
ATOM     26  C   LIG    1       -0.765  -7.923  -8.333  0.00  0.00    -0.200 A 
BRANCH  26  27
ATOM     27  N   LIG    1        0.287  -7.662  -9.145  0.00  0.00    +0.090 N 
ATOM     28  O   LIG    1        1.423  -7.725  -8.710  0.00  0.00    -0.210 OA
ATOM     29  O   LIG    1        0.097  -7.365 -10.311  0.00  0.00    -0.170 OA
ENDBRANCH  26  27
ENDBRANCH  19  21
ENDBRANCH   4  19
TORSDOF 6
