REMARK  Name = ZINCrH000004nJLx.0
REMARK                            x       y       z     vdW  Elec       q    Type
REMARK                         _______ _______ _______ _____ _____    ______ ____
ROOT
ATOM      1  N   LIG    1       -0.379   2.017   3.507  0.00  0.00    -0.520 NA
ATOM      2  C   LIG    1        1.056   2.114   3.207  0.00  0.00    +0.180 C 
ATOM      3  C   LIG    1        1.428   3.583   2.979  0.00  0.00    +0.270 C 
ATOM      4  N   LIG    1        0.538   4.136   1.947  0.00  0.00    -0.610 N 
ATOM      5  C   LIG    1       -0.913   3.956   2.110  0.00  0.00    +0.300 C 
ATOM      6  C   LIG    1        1.038   4.791   0.881  0.00  0.00    +0.530 C 
ATOM      7  O   LIG    1        0.299   5.149  -0.012  0.00  0.00    -0.540 OA
ATOM      8  C   LIG    1       -1.193   2.472   2.372  0.00  0.00    +0.090 C 
ATOM      9  C   LIG    1       -2.675   2.281   2.698  0.00  0.00    +0.050 C 
ATOM     10  C   LIG    1       -0.835   1.658   1.127  0.00  0.00    +0.000 C 
ENDROOT
BRANCH   6  11
ATOM     11  C   LIG    1        2.515   5.078   0.797  0.00  0.00    -0.090 C 
ATOM     12  C   LIG    1        3.279   3.766   0.605  0.00  0.00    +0.050 C 
ATOM     13  C   LIG    1        2.977   5.752   2.091  0.00  0.00    +0.040 C 
ATOM     14  C   LIG    1        2.788   6.006  -0.388  0.00  0.00    +0.050 C 
ENDBRANCH   6  11
BRANCH   1  15
ATOM     15  C   LIG    1       -0.743   0.649   3.900  0.00  0.00    +0.250 C 
BRANCH  15  25
ATOM     16  C   LIG    1        1.534  -0.275   4.457  0.00  0.00    +0.360 A 
ATOM     17  N   LIG    1        2.438  -0.730   5.297  0.00  0.00    -0.540 NA
ATOM     18  C   LIG    1        2.178  -0.839   6.605  0.00  0.00    +0.170 A 
ATOM     19  C   LIG    1        3.146  -1.331   7.497  0.00  0.00    +0.020 A 
ATOM     20  C   LIG    1        2.854  -1.432   8.823  0.00  0.00    +0.040 A 
ATOM     21  C   LIG    1        1.607  -1.053   9.315  0.00  0.00    +0.000 A 
ATOM     22  C   LIG    1        0.644  -0.572   8.480  0.00  0.00    +0.050 A 
ATOM     23  C   LIG    1        0.910  -0.455   7.107  0.00  0.00    -0.130 A 
ATOM     24  C   LIG    1       -0.060   0.039   6.213  0.00  0.00    +0.140 A 
ATOM     25  C   LIG    1        0.265   0.126   4.892  0.00  0.00    -0.150 A 
BRANCH  16  27
ATOM     26  C   LIG    1        3.148  -0.609   2.748  0.00  0.00    +0.250 C 
ATOM     27  O   LIG    1        1.840  -0.187   3.139  0.00  0.00    -0.300 OA
ENDBRANCH  16  27
ENDBRANCH  15  25
ENDBRANCH   1  15
TORSDOF 4
