REMARK  Name = ZINCqH0000037FAB.0
REMARK                            x       y       z     vdW  Elec       q    Type
REMARK                         _______ _______ _______ _____ _____    ______ ____
ROOT
ATOM      1  N   LIG    1       -4.662   2.526  -0.856  0.00  0.00    -0.630 N 
ATOM      2  H   LIG    1       -4.958   1.788  -1.411  0.00  0.00    +0.420 HD
ATOM      3  C   LIG    1       -5.519   3.515  -0.535  0.00  0.00    +0.500 C 
ATOM      4  O   LIG    1       -5.149   4.437   0.160  0.00  0.00    -0.500 OA
ENDROOT
BRANCH   1   8
ATOM      5  C   LIG    1       -0.515   4.030   1.489  0.00  0.00    +0.160 C 
ATOM      6  C   LIG    1       -1.494   3.239   0.661  0.00  0.00    +0.100 A 
ATOM      7  C   LIG    1       -2.784   3.567   0.422  0.00  0.00    -0.070 A 
ATOM      8  C   LIG    1       -3.342   2.563  -0.387  0.00  0.00    +0.310 A 
ATOM      9  N   LIG    1       -2.415   1.667  -0.627  0.00  0.00    -0.310 NA
ATOM     10  N   LIG    1       -1.239   2.070   0.019  0.00  0.00    -0.320 N 
BRANCH  10  11
ATOM     11  C   LIG    1       -0.017   1.384   0.010  0.00  0.00    +0.170 A 
ATOM     12  C   LIG    1        0.002  -0.004   0.002  0.00  0.00    +0.030 A 
ATOM     13  C   LIG    1        1.208  -0.677  -0.013  0.00  0.00    +0.060 A 
ATOM     14  C   LIG    1        2.396   0.029  -0.021  0.00  0.00    +0.030 A 
ATOM     15  C   LIG    1        2.381   1.413  -0.013  0.00  0.00    -0.010 A 
ATOM     16 CL   LIG    1        3.876   2.297  -0.023  0.00  0.00    -0.050 Cl
ATOM     17  C   LIG    1        1.178   2.092   0.002  0.00  0.00    +0.010 A 
ENDBRANCH  10  11
ENDBRANCH   1   8
BRANCH   3  18
ATOM     18  C   LIG    1       -6.939   3.475  -1.040  0.00  0.00    +0.140 C 
ATOM     19  C   LIG    1       -7.793   2.627  -0.095  0.00  0.00    +0.100 C 
BRANCH  18  20
ATOM     20  O   LIG    1       -6.963   2.900  -2.348  0.00  0.00    -0.540 OA
ATOM     21  H   LIG    1       -6.442   3.386  -3.001  0.00  0.00    +0.380 HD
ENDBRANCH  18  20
BRANCH  18  22
ATOM     22  C   LIG    1       -7.500   4.897  -1.098  0.00  0.00    +0.090 C 
BRANCH  22  23
ATOM     23  C   LIG    1       -8.956   4.847  -1.484  0.00  0.00    -0.080 A 
ATOM     24  C   LIG    1       -9.319   4.903  -2.817  0.00  0.00    +0.020 A 
ATOM     25  C   LIG    1      -10.654   4.853  -3.172  0.00  0.00    +0.000 A 
ATOM     26  C   LIG    1      -11.627   4.757  -2.194  0.00  0.00    +0.000 A 
ATOM     27  C   LIG    1      -11.263   4.705  -0.861  0.00  0.00    +0.000 A 
ATOM     28  C   LIG    1       -9.928   4.751  -0.506  0.00  0.00    +0.010 A 
ENDBRANCH  22  23
ENDBRANCH  18  22
ENDBRANCH   3  18
TORSDOF 6
