REMARK  Name = ZINCvU0000000IZc.0
REMARK                            x       y       z     vdW  Elec       q    Type
REMARK                         _______ _______ _______ _____ _____    ______ ____
ROOT
ATOM      1  C   LIG    1        1.416  -6.306   0.199  0.00  0.00    +0.270 C 
ENDROOT
BRANCH   1   3
ATOM      2  O   LIG    1        2.308  -4.121   0.146  0.00  0.00    -0.430 OA
ATOM      3  C   LIG    1        1.307  -4.803   0.207  0.00  0.00    +0.510 C 
ATOM      4  N   LIG    1        0.096  -4.215   0.283  0.00  0.00    -0.650 N 
ATOM      5  H   LIG    1       -0.705  -4.760   0.332  0.00  0.00    +0.430 HD
BRANCH   4   6
ATOM      6  C   LIG    1       -0.005  -2.825   0.291  0.00  0.00    +0.410 A 
ATOM      7  N   LIG    1        1.091  -2.087   0.224  0.00  0.00    -0.460 NA
ATOM      8  C   LIG    1        1.040  -0.769   0.228  0.00  0.00    +0.390 A 
ATOM      9  C   LIG    1       -0.169  -0.107   0.304  0.00  0.00    -0.260 A 
ATOM     10  C   LIG    1       -1.343  -0.843   0.382  0.00  0.00    +0.180 A 
ATOM     11  C   LIG    1       -1.258  -2.225   0.368  0.00  0.00    -0.130 A 
ATOM     12 CL   LIG    1       -2.695  -3.196   0.456  0.00  0.00    -0.030 Cl
BRANCH   9  13
ATOM     13  C   LIG    1       -0.213   1.400   0.310  0.00  0.00    +0.520 C 
ATOM     14  F   LIG    1       -0.814   1.844   1.492  0.00  0.00    -0.170 F 
ATOM     15  F   LIG    1       -0.955   1.848  -0.788  0.00  0.00    -0.170 F 
ATOM     16  F   LIG    1        1.089   1.905   0.230  0.00  0.00    -0.170 F 
ENDBRANCH   9  13
ENDBRANCH   4   6
ENDBRANCH   1   3
BRANCH   1  17
ATOM     17  O   LIG    1        2.814  -6.689   0.112  0.00  0.00    -0.330 OA
BRANCH  17  18
ATOM     18  C   LIG    1        3.086  -8.008   0.093  0.00  0.00    +0.520 C 
ATOM     19  O   LIG    1        2.181  -8.816   0.149  0.00  0.00    -0.500 OA
BRANCH  18  20
ATOM     20  C   LIG    1        4.486  -8.472   0.006  0.00  0.00    -0.110 A 
ATOM     21  C   LIG    1        5.529  -7.545  -0.057  0.00  0.00    +0.090 A 
ATOM     22  C   LIG    1        6.835  -7.982  -0.138  0.00  0.00    +0.040 A 
ATOM     23  C   LIG    1        7.116  -9.335  -0.157  0.00  0.00    +0.060 A 
ATOM     24  C   LIG    1        6.086 -10.265  -0.093  0.00  0.00    +0.080 A 
ATOM     25  C   LIG    1        4.772  -9.838  -0.007  0.00  0.00    +0.080 A 
BRANCH  24  26
ATOM     26  O   LIG    1        6.369 -11.594  -0.112  0.00  0.00    -0.250 OA
BRANCH  26  27
ATOM     27  C   LIG    1        5.984 -12.313  -1.199  0.00  0.00    +0.120 A 
ATOM     28  C   LIG    1        5.433 -11.670  -2.298  0.00  0.00    -0.060 A 
ATOM     29  C   LIG    1        5.046 -12.403  -3.403  0.00  0.00    +0.050 A 
ATOM     30  C   LIG    1        5.199 -13.777  -3.411  0.00  0.00    -0.020 A 
ATOM     31  C   LIG    1        5.742 -14.421  -2.315  0.00  0.00    +0.050 A 
ATOM     32  C   LIG    1        6.135 -13.692  -1.209  0.00  0.00    -0.010 A 
ENDBRANCH  26  27
ENDBRANCH  24  26
ENDBRANCH  18  20
ENDBRANCH  17  18
ENDBRANCH   1  17
TORSDOF 8
