REMARK  Name = ZINCqH0000050vap.0
REMARK                            x       y       z     vdW  Elec       q    Type
REMARK                         _______ _______ _______ _____ _____    ______ ____
ROOT
ATOM      1  C   LIG    1        1.395   2.024  -0.000  0.00  0.00    +0.520 C 
ATOM      2  N   LIG    1        1.624   3.353   0.005  0.00  0.00    -0.620 N 
ATOM      3  C   LIG    1        0.507   4.310   0.014  0.00  0.00    +0.290 C 
ATOM      4  C   LIG    1        0.742   5.312   1.156  0.00  0.00    +0.190 C 
ATOM      5  N   LIG    1        2.074   5.913   1.007  0.00  0.00    -0.490 N 
ATOM      6  C   LIG    1        3.132   4.902   1.131  0.00  0.00    +0.190 C 
ATOM      7  C   LIG    1        2.996   3.883  -0.006  0.00  0.00    +0.300 C 
ATOM      8  O   LIG    1        2.328   1.249  -0.013  0.00  0.00    -0.520 OA
ENDROOT
BRANCH   5   9
ATOM      9  C   LIG    1        2.262   6.950   1.926  0.00  0.00    +0.100 A 
ATOM     10  C   LIG    1        3.341   6.918   2.800  0.00  0.00    +0.000 A 
ATOM     11  C   LIG    1        3.527   7.945   3.704  0.00  0.00    +0.020 A 
ATOM     12  C   LIG    1        2.633   9.001   3.747  0.00  0.00    +0.070 A 
ATOM     13  C   LIG    1        1.553   9.033   2.881  0.00  0.00    +0.010 A 
ATOM     14  F   LIG    1        2.814  10.003   4.636  0.00  0.00    -0.140 F 
ATOM     15  C   LIG    1        1.366   8.010   1.972  0.00  0.00    +0.030 A 
ENDBRANCH   5   9
BRANCH   1  16
ATOM     16  C   LIG    1       -0.018   1.503   0.010  0.00  0.00    +0.140 C 
BRANCH  16  22
ATOM     17  C   LIG    1        0.429  -4.233   3.809  0.00  0.00    +0.100 C 
ATOM     18  C   LIG    1        0.322  -3.058   2.872  0.00  0.00    -0.060 A 
ATOM     19  C   LIG    1        0.354  -1.768   3.382  0.00  0.00    +0.000 A 
ATOM     20  C   LIG    1        0.257  -0.684   2.538  0.00  0.00    +0.050 A 
ATOM     21  C   LIG    1        0.128  -0.890   1.165  0.00  0.00    -0.120 A 
ATOM     22  C   LIG    1        0.002  -0.004   0.002  0.00  0.00    -0.170 A 
ATOM     23  C   LIG    1       -0.096  -0.804  -1.068  0.00  0.00    +0.230 A 
ATOM     24  O   LIG    1       -0.036  -2.093  -0.690  0.00  0.00    -0.190 OA
ATOM     25  C   LIG    1        0.096  -2.196   0.648  0.00  0.00    +0.060 A 
ATOM     26  C   LIG    1        0.194  -3.275   1.517  0.00  0.00    +0.020 A 
ENDBRANCH  16  22
ENDBRANCH   1  16
TORSDOF 3
