REMARK  Name = ZINCpe000000Wl4C.0
REMARK                            x       y       z     vdW  Elec       q    Type
REMARK                         _______ _______ _______ _____ _____    ______ ____
ROOT
ATOM      1  N   LIG    1       -7.359   1.431   0.044  0.00  0.00    -0.720 N 
ATOM      2  H   LIG    1       -7.527   0.476   0.040  0.00  0.00    +0.410 HD
ATOM      3  C   LIG    1       -6.093   1.893   0.041  0.00  0.00    +0.520 C 
ATOM      4  O   LIG    1       -5.883   3.087   0.047  0.00  0.00    -0.530 OA
ENDROOT
BRANCH   1   5
ATOM      5  C   LIG    1       -8.482   2.372   0.055  0.00  0.00    +0.390 C 
BRANCH   5  10
ATOM      6  C   LIG    1      -11.481   0.611  -1.134  0.00  0.00    +0.390 A 
ATOM      7  C   LIG    1      -12.089   0.242   0.060  0.00  0.00    -0.100 A 
ATOM      8  C   LIG    1      -11.470   0.598   1.253  0.00  0.00    +0.390 A 
ATOM      9  N   LIG    1      -10.325   1.274   1.209  0.00  0.00    -0.580 NA
ATOM     10  C   LIG    1       -9.780   1.606   0.057  0.00  0.00    +0.380 A 
ATOM     11  N   LIG    1      -10.339   1.291  -1.094  0.00  0.00    -0.580 NA
BRANCH   6  13
ATOM     12  C   LIG    1      -11.358   0.703  -3.503  0.00  0.00    +0.270 C 
ATOM     13  O   LIG    1      -12.047   0.287  -2.322  0.00  0.00    -0.290 OA
ENDBRANCH   6  13
BRANCH   8  14
ATOM     14  O   LIG    1      -12.024   0.261   2.443  0.00  0.00    -0.290 OA
ATOM     15  C   LIG    1      -11.324   0.663   3.622  0.00  0.00    +0.270 C 
ENDBRANCH   8  14
ENDBRANCH   5  10
ENDBRANCH   1   5
BRANCH   3  16
ATOM     16  C   LIG    1       -4.938   0.925   0.030  0.00  0.00    +0.300 C 
BRANCH  16  17
ATOM     17  N   LIG    1       -3.677   1.669   0.029  0.00  0.00    -0.720 N 
ATOM     18  H   LIG    1       -3.686   2.639   0.034  0.00  0.00    +0.410 HD
ATOM     19  C   LIG    1       -2.503   1.007   0.019  0.00  0.00    +0.560 C 
ATOM     20  O   LIG    1       -2.491  -0.208   0.013  0.00  0.00    -0.540 OA
BRANCH  19  21
ATOM     21  C   LIG    1       -1.230   1.759   0.017  0.00  0.00    -0.150 A 
ATOM     22  C   LIG    1       -0.013   1.076   0.008  0.00  0.00    +0.090 A 
ATOM     23  C   LIG    1        1.172   1.783   0.000  0.00  0.00    +0.000 A 
ATOM     24  C   LIG    1        1.155   3.167   0.008  0.00  0.00    -0.060 A 
ATOM     25  C   LIG    1       -0.048   3.850   0.023  0.00  0.00    +0.000 A 
ATOM     26  C   LIG    1        2.452   3.933   0.000  0.00  0.00    +0.100 C 
ATOM     27  C   LIG    1       -1.240   3.154   0.030  0.00  0.00    +0.050 A 
ENDBRANCH  19  21
ENDBRANCH  16  17
ENDBRANCH   3  16
TORSDOF 7
