REMARK  Name = ZINCpk00000e9GzR.0
REMARK                            x       y       z     vdW  Elec       q    Type
REMARK                         _______ _______ _______ _____ _____    ______ ____
ROOT
ATOM      1  C   LIG    1       -6.889   4.446   0.087  0.00  0.00    +0.450 C 
ATOM      2  O   LIG    1       -6.837   5.653   0.092  0.00  0.00    -0.500 OA
ENDROOT
BRANCH   1   3
ATOM      3  O   LIG    1       -5.756   3.726   0.074  0.00  0.00    -0.330 OA
BRANCH   3   4
ATOM      4  C   LIG    1       -4.506   4.464   0.066  0.00  0.00    +0.280 C 
BRANCH   4   7
ATOM      5  C   LIG    1       -1.831   5.401   0.045  0.00  0.00    +0.330 C 
ATOM      6  N   LIG    1       -2.084   3.958   0.041  0.00  0.00    -0.530 N 
ATOM      7  C   LIG    1       -3.351   3.496   0.051  0.00  0.00    +0.510 C 
ATOM      8  O   LIG    1       -3.561   2.302   0.047  0.00  0.00    -0.440 OA
BRANCH   6   9
ATOM      9  C   LIG    1       -1.019   3.065   0.027  0.00  0.00    +0.270 A 
ATOM     10  N   LIG    1       -1.133   1.774   0.017  0.00  0.00    -0.480 NA
ATOM     11  C   LIG    1       -0.013   1.076   0.008  0.00  0.00    +0.250 A 
ATOM     12  C   LIG    1        1.100   1.812   0.001  0.00  0.00    -0.090 A 
ATOM     13  S   LIG    1        0.631   3.510   0.014  0.00  0.00    +0.130 S 
ENDBRANCH   6   9
ENDBRANCH   4   7
ENDBRANCH   3   4
ENDBRANCH   1   3
BRANCH   1  14
ATOM     14  C   LIG    1       -8.225   3.748   0.097  0.00  0.00    +0.390 C 
BRANCH  14  15
ATOM     15  N   LIG    1       -9.296   4.747   0.111  0.00  0.00    -0.590 N 
ATOM     16  C   LIG    1       -9.808   5.218  -1.170  0.00  0.00    +0.300 C 
ATOM     17  C   LIG    1      -11.184   5.861  -0.993  0.00  0.00    -0.020 C 
ATOM     18  C   LIG    1      -11.102   6.893   0.138  0.00  0.00    +0.060 C 
ATOM     19  C   LIG    1      -10.868   6.149   1.456  0.00  0.00    +0.100 C 
ATOM     20  C   LIG    1       -9.747   5.163   1.295  0.00  0.00    +0.520 C 
ATOM     21  O   LIG    1       -9.219   4.726   2.296  0.00  0.00    -0.540 OA
BRANCH  17  22
ATOM     22  C   LIG    1      -11.598   6.555  -2.292  0.00  0.00    +0.460 C 
ATOM     23  F   LIG    1      -10.661   7.543  -2.611  0.00  0.00    -0.180 F 
ATOM     24  F   LIG    1      -12.857   7.142  -2.127  0.00  0.00    -0.180 F 
ATOM     25  F   LIG    1      -11.654   5.614  -3.326  0.00  0.00    -0.180 F 
ENDBRANCH  17  22
ENDBRANCH  14  15
ENDBRANCH   1  14
TORSDOF 7
