REMARK  Name = ZINCvU00000007Ai.0
REMARK                            x       y       z     vdW  Elec       q    Type
REMARK                         _______ _______ _______ _____ _____    ______ ____
ROOT
ATOM      1  C   LIG    1       -1.511   4.809  -1.529  0.00  0.00    +0.140 A 
ATOM      2  N   LIG    1       -1.864   5.347  -2.675  0.00  0.00    -0.290 NA
ATOM      3  N   LIG    1       -2.938   4.790  -3.111  0.00  0.00    -0.270 NA
ATOM      4  C   LIG    1       -3.332   3.860  -2.273  0.00  0.00    +0.230 A 
ATOM      5  N   LIG    1       -2.429   3.841  -1.236  0.00  0.00    -0.440 N 
ENDROOT
BRANCH   4   6
ATOM      6  C   LIG    1       -4.523   2.995  -2.417  0.00  0.00    -0.030 A 
ATOM      7  C   LIG    1       -4.509   1.694  -1.914  0.00  0.00    +0.020 A 
ATOM      8  C   LIG    1       -5.625   0.894  -2.047  0.00  0.00    +0.010 A 
ATOM      9  C   LIG    1       -6.753   1.376  -2.688  0.00  0.00    -0.050 A 
ATOM     10  C   LIG    1       -6.771   2.663  -3.194  0.00  0.00    +0.020 A 
ATOM     11  C   LIG    1       -5.663   3.475  -3.063  0.00  0.00    +0.060 A 
BRANCH   9  12
ATOM     12  C   LIG    1       -7.966   0.495  -2.834  0.00  0.00    -0.030 C 
ATOM     13  C   LIG    1       -9.160   1.151  -2.137  0.00  0.00    +0.040 C 
ATOM     14  C   LIG    1       -7.688  -0.867  -2.195  0.00  0.00    +0.030 C 
ATOM     15  C   LIG    1       -8.283   0.305  -4.319  0.00  0.00    +0.040 C 
ENDBRANCH   9  12
ENDBRANCH   4   6
BRANCH   5  16
ATOM     16  C   LIG    1       -2.450   2.969  -0.059  0.00  0.00    +0.230 C 
ATOM     17  C   LIG    1       -1.173   2.105  -0.004  0.00  0.00    +0.020 C 
ATOM     18  C   LIG    1       -0.776   2.002   1.479  0.00  0.00    +0.030 C 
ATOM     19  C   LIG    1       -1.824   2.808   2.274  0.00  0.00    +0.030 C 
ATOM     20  C   LIG    1       -2.396   3.810   1.240  0.00  0.00    +0.030 C 
ENDBRANCH   5  16
BRANCH   1  21
ATOM     21  S   LIG    1       -0.112   5.253  -0.553  0.00  0.00    +0.100 S 
BRANCH  21  22
ATOM     22  C   LIG    1        0.582   6.571  -1.581  0.00  0.00    +0.110 C 
BRANCH  22  25
ATOM     23  N   LIG    1        2.514   8.114  -1.515  0.00  0.00    -0.620 N 
ATOM     24  H   LIG    1        2.212   8.479  -2.361  0.00  0.00    +0.420 HD
ATOM     25  C   LIG    1        1.824   7.118  -0.926  0.00  0.00    +0.550 C 
ATOM     26  O   LIG    1        2.202   6.661   0.132  0.00  0.00    -0.500 OA
BRANCH  23  30
ATOM     27  C   LIG    1        6.306   8.970   1.607  0.00  0.00    +0.190 C 
ATOM     28  C   LIG    1        5.323   8.989   0.465  0.00  0.00    -0.020 A 
ATOM     29  C   LIG    1        4.235   8.198   0.322  0.00  0.00    -0.040 A 
ATOM     30  C   LIG    1        3.664   8.620  -0.908  0.00  0.00    +0.240 A 
ATOM     31  N   LIG    1        4.435   9.574  -1.360  0.00  0.00    -0.380 NA
ATOM     32  O   LIG    1        5.356   9.793  -0.608  0.00  0.00    +0.100 OA
ENDBRANCH  23  30
ENDBRANCH  22  25
ENDBRANCH  21  22
ENDBRANCH   1  21
TORSDOF 7
