REMARK  Name = ZINCpe000027pH2w.0
REMARK                            x       y       z     vdW  Elec       q    Type
REMARK                         _______ _______ _______ _____ _____    ______ ____
ROOT
ATOM      1  C   LIG    1       10.346   3.828   0.672  0.00  0.00    +0.040 C 
ATOM      2  C   LIG    1        8.853   3.979   0.969  0.00  0.00    +0.150 C 
ATOM      3  C   LIG    1        8.093   2.783   0.391  0.00  0.00    +0.190 C 
ATOM      4  N   LIG    1        6.665   2.912   0.712  0.00  0.00    -0.520 NA
ATOM      5  C   LIG    1        6.457   2.963   2.166  0.00  0.00    +0.180 C 
ATOM      6  C   LIG    1        7.217   4.159   2.744  0.00  0.00    +0.190 C 
ATOM      7  N   LIG    1        8.645   4.031   2.423  0.00  0.00    -0.530 NA
ENDROOT
BRANCH   4   8
ATOM      8  C   LIG    1        5.889   1.820   0.108  0.00  0.00    +0.220 C 
BRANCH   8   9
ATOM      9  C   LIG    1        5.925   1.949  -1.393  0.00  0.00    +0.510 C 
ATOM     10  N   LIG    1        5.386   0.984  -2.165  0.00  0.00    -0.720 N 
ATOM     11  H   LIG    1        4.976   0.207  -1.755  0.00  0.00    +0.410 HD
ATOM     12  O   LIG    1        6.438   2.920  -1.906  0.00  0.00    -0.500 OA
BRANCH  10  13
ATOM     13  C   LIG    1        5.421   1.109  -3.624  0.00  0.00    +0.270 C 
ATOM     14  C   LIG    1        6.877   1.026  -4.148  0.00  0.00    +0.050 C 
ATOM     15  C   LIG    1        6.727   0.562  -5.611  0.00  0.00    +0.020 C 
ATOM     16  C   LIG    1        5.372  -0.162  -5.706  0.00  0.00    +0.020 C 
ATOM     17  C   LIG    1        4.746  -0.112  -4.296  0.00  0.00    +0.060 C 
BRANCH  13  18
ATOM     18  C   LIG    1        4.779   2.362  -4.054  0.00  0.00    +0.210 C 
ATOM     19  N   LIG    1        4.284   3.329  -4.386  0.00  0.00    -0.410 NA
ENDBRANCH  13  18
ENDBRANCH  10  13
ENDBRANCH   8   9
ENDBRANCH   4   8
BRANCH   7  20
ATOM     20  C   LIG    1        9.421   5.122   3.027  0.00  0.00    +0.300 C 
BRANCH  20  21
ATOM     21  C   LIG    1        9.001   5.303   4.463  0.00  0.00    +0.210 A 
ATOM     22  N   LIG    1        8.051   6.093   4.884  0.00  0.00    -0.490 NA
ATOM     23  C   LIG    1        7.954   5.996   6.218  0.00  0.00    +0.140 A 
ATOM     24  C   LIG    1        8.884   5.118   6.641  0.00  0.00    +0.110 A 
ATOM     25  N   LIG    1        9.548   4.678   5.528  0.00  0.00    -0.450 N 
ATOM     26  C   LIG    1       10.647   3.710   5.497  0.00  0.00    +0.330 C 
ENDBRANCH  20  21
ENDBRANCH   7  20
TORSDOF 6
