REMARK  Name = ZINCnE000001TBw6.2
REMARK                            x       y       z     vdW  Elec       q    Type
REMARK                         _______ _______ _______ _____ _____    ______ ____
ROOT
ATOM      1  N   LIG    1       -0.039   1.064  -2.367  0.00  0.00    -0.480 NA
ATOM      2  C   LIG    1       -0.403   0.698  -3.760  0.00  0.00    +0.140 C 
ATOM      3  C   LIG    1        0.943   0.231  -4.367  0.00  0.00    +0.010 C 
ATOM      4  C   LIG    1        1.965   1.202  -3.731  0.00  0.00    +0.000 C 
ATOM      5  C   LIG    1        1.280   1.728  -2.456  0.00  0.00    +0.130 C 
ENDROOT
BRANCH   1   6
ATOM      6  C   LIG    1       -1.042   1.962  -1.779  0.00  0.00    +0.110 C 
BRANCH   6   7
ATOM      7  C   LIG    1       -2.417   1.377  -1.976  0.00  0.00    -0.070 A 
ATOM      8  C   LIG    1       -2.667   0.073  -1.849  0.00  0.00    +0.000 A 
ATOM      9  S   LIG    1       -4.373  -0.232  -2.147  0.00  0.00    +0.040 S 
ATOM     10  C   LIG    1       -4.658   1.478  -2.444  0.00  0.00    -0.060 A 
ATOM     11  C   LIG    1       -3.515   2.152  -2.307  0.00  0.00    +0.030 A 
ENDBRANCH   6   7
BRANCH   6  13
ATOM     12  O   LIG    1       -1.084   3.155   0.263  0.00  0.00    -0.700 OA
ATOM     13  C   LIG    1       -0.770   2.123  -0.305  0.00  0.00    +0.510 C 
ATOM     14  O   LIG    1       -0.236   1.222   0.318  0.00  0.00    -0.660 OA
ENDBRANCH   6  13
ENDBRANCH   1   6
BRANCH   5  15
ATOM     15  C   LIG    1        2.123   1.377  -1.228  0.00  0.00    +0.040 C 
BRANCH  15  16
ATOM     16  C   LIG    1        3.471   2.097  -1.313  0.00  0.00    +0.240 C 
BRANCH  16  17
ATOM     17  C   LIG    1        4.350   1.654  -0.172  0.00  0.00    -0.100 A 
ATOM     18  C   LIG    1        4.180   2.204   1.085  0.00  0.00    +0.020 A 
ATOM     19  C   LIG    1        4.984   1.795   2.132  0.00  0.00    +0.000 A 
ATOM     20  C   LIG    1        5.963   0.842   1.921  0.00  0.00    -0.010 A 
ATOM     21  C   LIG    1        6.136   0.296   0.663  0.00  0.00    +0.000 A 
ATOM     22  C   LIG    1        5.329   0.702  -0.384  0.00  0.00    +0.010 A 
ENDBRANCH  16  17
BRANCH  16  23
ATOM     23  O   LIG    1        3.262   3.509  -1.234  0.00  0.00    -0.560 OA
ATOM     24  H   LIG    1        2.764   3.789  -0.454  0.00  0.00    +0.380 HD
ENDBRANCH  16  23
ENDBRANCH  15  16
ENDBRANCH   5  15
TORSDOF 7
