REMARK  Name = ZINCrH000004lUMh.0
REMARK                            x       y       z     vdW  Elec       q    Type
REMARK                         _______ _______ _______ _____ _____    ______ ____
ROOT
ATOM      1  C   LIG    1       -1.142   3.517   2.100  0.00  0.00    +0.600 C 
ATOM      2  N   LIG    1       -1.726   2.543   1.375  0.00  0.00    -0.610 N 
ATOM      3  C   LIG    1       -2.829   1.765   1.946  0.00  0.00    +0.310 C 
ATOM      4  O   LIG    1       -0.222   4.160   1.627  0.00  0.00    -0.520 OA
ENDROOT
BRANCH   1   6
ATOM      5  C   LIG    1       -1.219   4.873   4.170  0.00  0.00    +0.210 A 
ATOM      6  C   LIG    1       -1.599   3.794   3.412  0.00  0.00    -0.340 A 
ATOM      7  S   LIG    1       -2.732   2.804   4.320  0.00  0.00    +0.220 S 
ATOM      8  C   LIG    1       -2.651   3.900   5.692  0.00  0.00    -0.110 A 
ATOM      9  C   LIG    1       -1.801   4.928   5.413  0.00  0.00    -0.070 A 
BRANCH   8  10
ATOM     10  C   LIG    1       -3.393   3.731   6.959  0.00  0.00    -0.030 A 
ATOM     11  C   LIG    1       -3.247   4.665   7.987  0.00  0.00    +0.040 A 
ATOM     12  C   LIG    1       -3.946   4.505   9.165  0.00  0.00    +0.010 A 
ATOM     13  C   LIG    1       -4.783   3.416   9.333  0.00  0.00    +0.020 A 
ATOM     14  C   LIG    1       -4.928   2.483   8.321  0.00  0.00    +0.020 A 
ATOM     15  C   LIG    1       -4.238   2.635   7.136  0.00  0.00    +0.020 A 
ENDBRANCH   8  10
BRANCH   5  17
ATOM     16  C   LIG    1       -0.033   6.883   4.619  0.00  0.00    +0.250 C 
ATOM     17  O   LIG    1       -0.342   5.811   3.727  0.00  0.00    -0.270 OA
ENDBRANCH   5  17
ENDBRANCH   1   6
BRANCH   2  18
ATOM     18  C   LIG    1       -1.258   2.261   0.015  0.00  0.00    +0.440 C 
BRANCH  18  19
ATOM     19  C   LIG    1       -0.167   1.223   0.064  0.00  0.00    +0.110 A 
ATOM     20  N   LIG    1       -0.329  -0.074  -0.001  0.00  0.00    -0.240 NA
ATOM     21  N   LIG    1        0.809  -0.670   0.064  0.00  0.00    -0.290 NA
ATOM     22  C   LIG    1        1.773   0.230   0.177  0.00  0.00    +0.200 A 
ATOM     23  C   LIG    1        3.174   0.141   0.283  0.00  0.00    +0.070 A 
ATOM     24  C   LIG    1        3.906   1.282   0.386  0.00  0.00    +0.070 A 
ATOM     25  C   LIG    1        3.258   2.529   0.386  0.00  0.00    +0.020 A 
ATOM     26  C   LIG    1        1.914   2.599   0.283  0.00  0.00    +0.260 A 
ATOM     27  N   LIG    1        1.167   1.463   0.179  0.00  0.00    -0.380 N 
ENDBRANCH  18  19
ENDBRANCH   2  18
TORSDOF 5
