REMARK  Name = ZINCrH00000aneer.0
REMARK                            x       y       z     vdW  Elec       q    Type
REMARK                         _______ _______ _______ _____ _____    ______ ____
ROOT
ATOM      1  N   LIG    1        1.992   4.056  -0.975  0.00  0.00    -0.660 NA
ATOM      2  H   LIG    1        2.100   3.424  -1.754  0.00  0.00    +0.350 HD
ENDROOT
BRANCH   1   4
ATOM      3  C   LIG    1        0.573   5.248  -2.575  0.00  0.00    +0.010 C 
ATOM      4  C   LIG    1        1.580   5.390  -1.431  0.00  0.00    +0.220 C 
BRANCH   4   5
ATOM      5  C   LIG    1        2.787   6.150  -1.916  0.00  0.00    -0.050 A 
ATOM      6  C   LIG    1        3.765   5.497  -2.646  0.00  0.00    +0.050 A 
ATOM      7  C   LIG    1        4.873   6.187  -3.099  0.00  0.00    +0.030 A 
ATOM      8  C   LIG    1        5.011   7.537  -2.813  0.00  0.00    +0.090 A 
ATOM      9  N   LIG    1        5.986   8.484  -3.116  0.00  0.00    -0.640 N 
ATOM     10  H   LIG    1        6.796   8.322  -3.623  0.00  0.00    +0.440 HD
ATOM     11  C   LIG    1        5.612   9.662  -2.583  0.00  0.00    +0.680 A 
ATOM     12  N   LIG    1        4.434   9.520  -1.948  0.00  0.00    -0.640 N 
ATOM     13  H   LIG    1        3.952  10.221  -1.482  0.00  0.00    +0.440 HD
ATOM     14  O   LIG    1        6.244  10.700  -2.664  0.00  0.00    -0.560 OA
ATOM     15  C   LIG    1        4.026   8.194  -2.072  0.00  0.00    +0.090 A 
ATOM     16  C   LIG    1        2.915   7.495  -1.626  0.00  0.00    +0.030 A 
ENDBRANCH   4   5
ENDBRANCH   1   4
BRANCH   1  17
ATOM     17  C   LIG    1        1.044   3.520   0.011  0.00  0.00    +0.230 C 
ATOM     18  C   LIG    1        1.409   4.038   1.404  0.00  0.00    +0.060 C 
BRANCH  17  19
ATOM     19  C   LIG    1        1.107   2.015   0.002  0.00  0.00    +0.320 A 
ATOM     20  N   LIG    1        2.285   1.423  -0.012  0.00  0.00    -0.500 NA
ATOM     21  C   LIG    1        2.387   0.103  -0.020  0.00  0.00    +0.320 A 
ATOM     22  C   LIG    1        1.235  -0.663  -0.013  0.00  0.00    -0.070 A 
ATOM     23  C   LIG    1        0.002  -0.004   0.002  0.00  0.00    +0.220 A 
ATOM     24  N   LIG    1       -0.016   1.327   0.009  0.00  0.00    -0.510 NA
BRANCH  23  25
ATOM     25  C   LIG    1       -1.265  -0.775   0.009  0.00  0.00    -0.070 A 
ATOM     26  C   LIG    1       -2.488  -0.112  -0.075  0.00  0.00    +0.070 A 
ATOM     27  C   LIG    1       -3.663  -0.836  -0.073  0.00  0.00    +0.000 A 
ATOM     28  C   LIG    1       -3.629  -2.215   0.023  0.00  0.00    +0.030 A 
ATOM     29  C   LIG    1       -2.419  -2.878   0.113  0.00  0.00    +0.010 A 
ATOM     30  C   LIG    1       -1.237  -2.165   0.107  0.00  0.00    +0.040 A 
ENDBRANCH  23  25
ENDBRANCH  17  19
ENDBRANCH   1  17
TORSDOF 5
