REMARK  Name = ZINCrD0000075rp7.0
REMARK                            x       y       z     vdW  Elec       q    Type
REMARK                         _______ _______ _______ _____ _____    ______ ____
ROOT
ATOM      1  C   LIG    1       -1.318   5.612   2.235  0.00  0.00    +0.250 C 
ENDROOT
BRANCH   1   3
ATOM      2  O   LIG    1       -2.473   5.422   4.284  0.00  0.00    -0.510 OA
ATOM      3  C   LIG    1       -2.010   6.171   3.451  0.00  0.00    +0.510 C 
ATOM      4  N   LIG    1       -2.115   7.505   3.612  0.00  0.00    -0.730 N 
ATOM      5  H   LIG    1       -1.745   8.105   2.945  0.00  0.00    +0.400 HD
BRANCH   4   6
ATOM      6  C   LIG    1       -2.788   8.050   4.794  0.00  0.00    +0.270 C 
BRANCH   6   7
ATOM      7  C   LIG    1       -2.770   9.579   4.732  0.00  0.00    +0.070 C 
BRANCH   7   8
ATOM      8  C   LIG    1       -3.462  10.139   5.948  0.00  0.00    -0.080 A 
ATOM      9  C   LIG    1       -4.821  10.390   5.915  0.00  0.00    +0.030 A 
ATOM     10  C   LIG    1       -5.458  10.899   7.031  0.00  0.00    +0.030 A 
ATOM     11  C   LIG    1       -4.733  11.167   8.178  0.00  0.00    -0.030 A 
ATOM     12  C   LIG    1       -3.372  10.921   8.209  0.00  0.00    +0.030 A 
ATOM     13 CL   LIG    1       -5.530  11.814   9.578  0.00  0.00    -0.070 Cl
ATOM     14  C   LIG    1       -2.737  10.406   7.094  0.00  0.00    +0.030 A 
ENDBRANCH   7   8
ENDBRANCH   6   7
ENDBRANCH   4   6
ENDBRANCH   1   3
BRANCH   1  15
ATOM     15  O   LIG    1       -1.336   4.161   2.293  0.00  0.00    -0.330 OA
BRANCH  15  16
ATOM     16  C   LIG    1       -0.755   3.503   1.277  0.00  0.00    +0.470 C 
ATOM     17  O   LIG    1       -0.249   4.119   0.370  0.00  0.00    -0.510 OA
BRANCH  16  18
ATOM     18  C   LIG    1       -0.735   1.996   1.269  0.00  0.00    +0.130 C 
BRANCH  18  19
ATOM     19  C   LIG    1       -0.018   1.503   0.010  0.00  0.00    +0.060 C 
BRANCH  19  20
ATOM     20  C   LIG    1        0.002  -0.004   0.002  0.00  0.00    +0.400 C 
ATOM     21  O   LIG    1       -0.506  -0.622   0.913  0.00  0.00    -0.450 OA
BRANCH  20  22
ATOM     22  C   LIG    1        0.638  -0.725  -1.111  0.00  0.00    -0.190 A 
ATOM     23  C   LIG    1        1.220  -0.014  -2.166  0.00  0.00    +0.110 A 
ATOM     24  C   LIG    1        1.818  -0.695  -3.204  0.00  0.00    -0.030 A 
ATOM     25  C   LIG    1        1.835  -2.082  -3.208  0.00  0.00    +0.130 A 
ATOM     26  C   LIG    1        1.256  -2.792  -2.167  0.00  0.00    -0.030 A 
ATOM     27  F   LIG    1        2.419  -2.744  -4.231  0.00  0.00    -0.130 F 
ATOM     28  C   LIG    1        0.659  -2.124  -1.121  0.00  0.00    +0.120 A 
ENDBRANCH  20  22
ENDBRANCH  19  20
ENDBRANCH  18  19
ENDBRANCH  16  18
ENDBRANCH  15  16
ENDBRANCH   1  15
TORSDOF 10
