REMARK  Name = ZINCAx0000000abZ.0
REMARK                            x       y       z     vdW  Elec       q    Type
REMARK                         _______ _______ _______ _____ _____    ______ ____
ROOT
ATOM      1  C   LIG    1       -1.386   0.689   2.021  0.00  0.00    -0.280 C 
ATOM      2  C   LIG    1       -0.577   1.541   1.355  0.00  0.00    +0.270 C 
ATOM      3  N   LIG    1       -0.535   2.868   1.674  0.00  0.00    -0.640 N 
ATOM      4  H   LIG    1        0.059   3.442   1.166  0.00  0.00    +0.440 HD
ATOM      5  C   LIG    1       -1.266   3.420   2.650  0.00  0.00    +0.710 C 
ATOM      6  N   LIG    1       -2.116   2.698   3.407  0.00  0.00    -0.710 N 
ATOM      7  H   LIG    1       -2.637   3.119   4.109  0.00  0.00    +0.440 HD
ATOM      8  O   LIG    1       -1.160   4.613   2.861  0.00  0.00    -0.550 OA
ATOM      9  C   LIG    1       -2.235   1.254   3.142  0.00  0.00    +0.410 C 
ENDROOT
BRANCH   9  10
ATOM     10  C   LIG    1       -3.678   0.958   2.820  0.00  0.00    -0.060 A 
ATOM     11  C   LIG    1       -4.369  -0.121   3.227  0.00  0.00    -0.010 A 
ATOM     12  C   LIG    1       -5.676   0.007   2.702  0.00  0.00    -0.070 A 
ATOM     13  C   LIG    1       -5.701   1.153   1.998  0.00  0.00    -0.010 A 
ATOM     14  C   LIG    1       -6.890   1.703   1.252  0.00  0.00    +0.170 C 
ATOM     15  O   LIG    1       -4.489   1.725   2.073  0.00  0.00    -0.170 OA
ENDBRANCH   9  10
BRANCH   1  16
ATOM     16  C   LIG    1       -1.436  -0.685   1.687  0.00  0.00    +0.540 C 
ATOM     17  O   LIG    1       -0.796  -1.104   0.741  0.00  0.00    -0.520 OA
BRANCH  16  18
ATOM     18  O   LIG    1       -2.192  -1.530   2.418  0.00  0.00    -0.340 OA
BRANCH  18  20
ATOM     19  C   LIG    1       -3.103  -3.701   2.963  0.00  0.00    +0.070 C 
ATOM     20  C   LIG    1       -2.195  -2.904   2.025  0.00  0.00    +0.200 C 
ENDBRANCH  18  20
ENDBRANCH  16  18
ENDBRANCH   1  16
BRANCH   2  21
ATOM     21  C   LIG    1        0.288   1.020   0.236  0.00  0.00    +0.350 C 
BRANCH  21  22
ATOM     22  O   LIG    1        1.163   2.079  -0.232  0.00  0.00    -0.370 OA
BRANCH  22  23
ATOM     23  C   LIG    1        2.004   1.776  -1.234  0.00  0.00    +0.450 C 
ATOM     24  O   LIG    1        2.008   0.663  -1.704  0.00  0.00    -0.470 OA
BRANCH  23  25
ATOM     25  C   LIG    1        2.943   2.825  -1.773  0.00  0.00    +0.400 C 
BRANCH  25  26
ATOM     26  N   LIG    1        3.749   2.250  -2.852  0.00  0.00    -0.460 N 
ATOM     27  C   LIG    1        4.989   1.729  -2.697  0.00  0.00    +0.340 A 
ATOM     28  C   LIG    1        5.455   1.279  -3.898  0.00  0.00    -0.210 A 
ATOM     29  C   LIG    1        4.398   1.560  -4.887  0.00  0.00    -0.060 A 
ATOM     30  C   LIG    1        4.274   1.346  -6.257  0.00  0.00    +0.060 A 
ATOM     31  C   LIG    1        3.123   1.735  -6.907  0.00  0.00    +0.000 A 
ATOM     32  C   LIG    1        2.091   2.337  -6.202  0.00  0.00    +0.040 A 
ATOM     33  C   LIG    1        2.200   2.555  -4.846  0.00  0.00    +0.000 A 
ATOM     34  C   LIG    1        3.354   2.169  -4.172  0.00  0.00    +0.090 A 
BRANCH  28  35
ATOM     35  C   LIG    1        6.753   0.646  -4.155  0.00  0.00    +0.540 C 
ATOM     36  O   LIG    1        7.045   0.294  -5.282  0.00  0.00    -0.510 OA
BRANCH  35  37
ATOM     37  O   LIG    1        7.622   0.454  -3.143  0.00  0.00    -0.360 OA
ATOM     38  C   LIG    1        8.888  -0.178  -3.470  0.00  0.00    +0.260 C 
ENDBRANCH  35  37
ENDBRANCH  28  35
ENDBRANCH  25  26
ENDBRANCH  23  25
ENDBRANCH  22  23
ENDBRANCH  21  22
ENDBRANCH   2  21
TORSDOF 11
