REMARK  Name = ZINCpe00000MJI9f.0
REMARK                            x       y       z     vdW  Elec       q    Type
REMARK                         _______ _______ _______ _____ _____    ______ ____
ROOT
ATOM      1  C   LIG    1        0.002  -0.004   0.002  0.00  0.00    +0.450 A 
ATOM      2  C   LIG    1        1.250  -0.656  -0.013  0.00  0.00    -0.290 A 
ATOM      3  C   LIG    1        1.665  -2.006  -0.024  0.00  0.00    +0.320 A 
ATOM      4  N   LIG    1        2.967  -2.038  -0.036  0.00  0.00    -0.240 NA
ATOM      5  N   LIG    1        3.472  -0.731  -0.035  0.00  0.00    -0.330 N 
ATOM      6  C   LIG    1        2.416   0.134  -0.020  0.00  0.00    +0.360 A 
ATOM      7  N   LIG    1        2.293   1.460  -0.011  0.00  0.00    -0.550 NA
ATOM      8  C   LIG    1        1.105   2.024   0.002  0.00  0.00    +0.580 A 
ATOM      9  N   LIG    1       -0.016   1.325   0.009  0.00  0.00    -0.590 NA
ENDROOT
BRANCH   5  10
ATOM     10  C   LIG    1        4.827  -0.374  -0.046  0.00  0.00    +0.150 A 
ATOM     11  C   LIG    1        5.243   0.755  -0.738  0.00  0.00    +0.020 A 
ATOM     12  C   LIG    1        6.578   1.108  -0.742  0.00  0.00    +0.030 A 
ATOM     13  C   LIG    1        7.502   0.331  -0.068  0.00  0.00    +0.010 A 
ATOM     14  C   LIG    1        7.092  -0.797   0.618  0.00  0.00    +0.030 A 
ATOM     15  C   LIG    1        5.757  -1.152   0.631  0.00  0.00    +0.020 A 
ENDBRANCH   5  10
BRANCH   1  19
ATOM     16  C   LIG    1       -2.574  -1.235  -1.911  0.00  0.00    +0.150 C 
ATOM     17  C   LIG    1       -3.429  -0.575  -0.797  0.00  0.00    +0.080 C 
ATOM     18  C   LIG    1       -2.349   0.171   0.026  0.00  0.00    +0.180 C 
ATOM     19  N   LIG    1       -1.174  -0.728   0.010  0.00  0.00    -0.440 N 
ATOM     20  C   LIG    1       -1.266  -1.599  -1.176  0.00  0.00    +0.220 C 
BRANCH  18  21
ATOM     21  C   LIG    1       -2.823   0.388   1.440  0.00  0.00    +0.530 C 
ATOM     22  O   LIG    1       -2.247  -0.149   2.362  0.00  0.00    -0.520 OA
ATOM     23  N   LIG    1       -3.888   1.179   1.679  0.00  0.00    -0.850 N 
ATOM     24  H   LIG    1       -4.193   1.318   2.589  0.00  0.00    +0.410 HD
ATOM     25  H   LIG    1       -4.349   1.608   0.942  0.00  0.00    +0.400 HD
ENDBRANCH  18  21
BRANCH  16  27
ATOM     26  C   LIG    1       -2.926  -2.689  -3.783  0.00  0.00    +0.210 C 
ATOM     27  O   LIG    1       -3.216  -2.409  -2.412  0.00  0.00    -0.370 OA
ENDBRANCH  16  27
ENDBRANCH   1  19
TORSDOF 4
