REMARK  Name = ZINCkj000005juEQ.0
REMARK                            x       y       z     vdW  Elec       q    Type
REMARK                         _______ _______ _______ _____ _____    ______ ____
ROOT
ATOM      1  N   LIG    1       -0.681   1.855   3.717  0.00  0.00    -0.370 N 
ATOM      2  C   LIG    1       -0.700   3.323   3.723  0.00  0.00    +0.250 C 
ATOM      3  C   LIG    1       -1.485   3.821   4.939  0.00  0.00    +0.070 C 
ATOM      4  C   LIG    1       -0.814   3.312   6.217  0.00  0.00    +0.060 C 
ATOM      5  C   LIG    1       -0.732   1.783   6.165  0.00  0.00    -0.020 C 
ATOM      6  C   LIG    1        0.025   1.361   4.905  0.00  0.00    +0.280 C 
ATOM      7  H   LIG    1       -1.628   1.507   3.722  0.00  0.00    +0.420 HD
ENDROOT
BRANCH   1   8
ATOM      8  C   LIG    1        0.007   1.381   2.508  0.00  0.00    +0.270 C 
BRANCH   8  10
ATOM      9  C   LIG    1       -2.257   1.195   1.468  0.00  0.00    +0.130 C 
ATOM     10  C   LIG    1       -0.834   1.723   1.276  0.00  0.00    +0.080 C 
BRANCH  10  11
ATOM     11  C   LIG    1       -0.212   1.073   0.038  0.00  0.00    +0.440 C 
ATOM     12  F   LIG    1       -0.980   1.385  -1.088  0.00  0.00    -0.150 F 
ATOM     13  F   LIG    1        1.090   1.555  -0.137  0.00  0.00    -0.170 F 
ATOM     14  F   LIG    1       -0.176  -0.315   0.208  0.00  0.00    -0.170 F 
ENDBRANCH  10  11
BRANCH  10  15
ATOM     15  O   LIG    1       -0.871   3.141   1.102  0.00  0.00    -0.510 OA
ATOM     16  H   LIG    1       -0.001   3.544   0.975  0.00  0.00    +0.400 HD
ENDBRANCH  10  15
ENDBRANCH   8  10
ENDBRANCH   1   8
BRANCH   5  17
ATOM     17  C   LIG    1        0.007   1.269   7.402  0.00  0.00    +0.360 C 
BRANCH  17  18
ATOM     18  N   LIG    1       -0.777   1.575   8.602  0.00  0.00    -0.300 N 
ATOM     19  C   LIG    1       -1.187   0.679   9.530  0.00  0.00    +0.160 A 
ATOM     20  C   LIG    1       -1.873   1.387  10.458  0.00  0.00    +0.160 A 
ATOM     21  N   LIG    1       -1.855   2.662  10.054  0.00  0.00    -0.260 NA
ATOM     22  N   LIG    1       -1.198   2.740   8.951  0.00  0.00    -0.090 NA
ENDBRANCH  17  18
ENDBRANCH   5  17
TORSDOF 6
