REMARK  Name = ZINCkj000005juEQ.1
REMARK                            x       y       z     vdW  Elec       q    Type
REMARK                         _______ _______ _______ _____ _____    ______ ____
ROOT
ATOM      1  N   LIG    1       -0.340   0.870   0.478  0.00  0.00    -0.400 N 
ATOM      2  C   LIG    1       -1.502   1.370  -0.265  0.00  0.00    +0.260 C 
ATOM      3  C   LIG    1       -1.754   2.834   0.101  0.00  0.00    +0.050 C 
ATOM      4  C   LIG    1       -2.026   2.938   1.604  0.00  0.00    +0.070 C 
ATOM      5  C   LIG    1       -0.840   2.344   2.370  0.00  0.00    +0.010 C 
ATOM      6  C   LIG    1       -0.621   0.899   1.918  0.00  0.00    +0.290 C 
ATOM      7  H   LIG    1        0.461   1.452   0.281  0.00  0.00    +0.410 HD
ENDROOT
BRANCH   1   8
ATOM      8  C   LIG    1       -0.053  -0.511   0.065  0.00  0.00    +0.290 C 
BRANCH   8  10
ATOM      9  C   LIG    1        0.898  -1.932  -1.757  0.00  0.00    +0.150 C 
ATOM     10  C   LIG    1        0.718  -0.497  -1.257  0.00  0.00    +0.080 C 
BRANCH  10  11
ATOM     11  C   LIG    1        2.091   0.143  -1.040  0.00  0.00    +0.410 C 
ATOM     12  F   LIG    1        1.930   1.498  -0.734  0.00  0.00    -0.190 F 
ATOM     13  F   LIG    1        2.854   0.015  -2.205  0.00  0.00    -0.140 F 
ATOM     14  F   LIG    1        2.743  -0.500   0.018  0.00  0.00    -0.160 F 
ENDBRANCH  10  11
BRANCH  10  15
ATOM     15  O   LIG    1       -0.011   0.257  -2.227  0.00  0.00    -0.510 OA
ATOM     16  H   LIG    1        0.051   1.215  -2.108  0.00  0.00    +0.390 HD
ENDBRANCH  10  15
ENDBRANCH   8  10
ENDBRANCH   1   8
BRANCH   5  17
ATOM     17  C   LIG    1        0.417   3.166   2.081  0.00  0.00    +0.310 C 
BRANCH  17  18
ATOM     18  N   LIG    1        0.252   4.518   2.620  0.00  0.00    -0.300 N 
ATOM     19  C   LIG    1        1.088   5.133   3.489  0.00  0.00    +0.160 A 
ATOM     20  C   LIG    1        0.560   6.359   3.717  0.00  0.00    +0.160 A 
ATOM     21  N   LIG    1       -0.562   6.429   2.992  0.00  0.00    -0.250 NA
ATOM     22  N   LIG    1       -0.716   5.323   2.354  0.00  0.00    -0.090 NA
ENDBRANCH  17  18
ENDBRANCH   5  17
TORSDOF 6
