REMARK  Name = ZINCvU00000003J4.0
REMARK                            x       y       z     vdW  Elec       q    Type
REMARK                         _______ _______ _______ _____ _____    ______ ____
ROOT
ATOM      1  N   LIG    1       -6.145   2.194  -0.382  0.00  0.00    -0.620 N 
ATOM      2  H   LIG    1       -6.193   3.163  -0.348  0.00  0.00    +0.430 HD
ATOM      3  C   LIG    1       -7.275   1.466  -0.481  0.00  0.00    +0.520 C 
ATOM      4  O   LIG    1       -7.214   0.256  -0.524  0.00  0.00    -0.470 OA
ENDROOT
BRANCH   1   8
ATOM      5  C   LIG    1       -2.686   1.384  -0.193  0.00  0.00    +0.130 A 
ATOM      6  C   LIG    1       -2.920   0.061  -0.263  0.00  0.00    -0.100 A 
ATOM      7  S   LIG    1       -4.661  -0.184  -0.378  0.00  0.00    +0.210 S 
ATOM      8  C   LIG    1       -4.911   1.558  -0.328  0.00  0.00    +0.270 A 
ATOM      9  N   LIG    1       -3.764   2.155  -0.232  0.00  0.00    -0.490 NA
BRANCH   5  14
ATOM     10  C   LIG    1        2.631   3.559   0.217  0.00  0.00    +0.090 C 
ATOM     11  C   LIG    1        1.240   2.988   0.112  0.00  0.00    -0.070 A 
ATOM     12  C   LIG    1        0.242   3.443   0.955  0.00  0.00    +0.000 A 
ATOM     13  C   LIG    1       -1.033   2.924   0.863  0.00  0.00    -0.060 A 
ATOM     14  C   LIG    1       -1.316   1.942  -0.085  0.00  0.00    -0.030 A 
ATOM     15  C   LIG    1       -0.305   1.482  -0.928  0.00  0.00    +0.030 A 
ATOM     16  C   LIG    1       -2.119   3.421   1.782  0.00  0.00    +0.100 C 
ATOM     17  C   LIG    1        0.966   2.009  -0.827  0.00  0.00    -0.090 A 
ATOM     18  C   LIG    1        2.059   1.518  -1.741  0.00  0.00    +0.090 C 
ENDBRANCH   5  14
ENDBRANCH   1   8
BRANCH   3  19
ATOM     19  C   LIG    1       -8.613   2.156  -0.540  0.00  0.00    +0.270 C 
BRANCH  19  20
ATOM     20  O   LIG    1       -9.649   1.178  -0.643  0.00  0.00    -0.280 OA
BRANCH  20  21
ATOM     21  C   LIG    1      -10.926   1.636  -0.707  0.00  0.00    +0.190 A 
ATOM     22  C   LIG    1      -11.170   3.007  -0.671  0.00  0.00    -0.090 A 
ATOM     23  C   LIG    1      -12.447   3.484  -0.734  0.00  0.00    +0.140 A 
ATOM     24  C   LIG    1      -13.519   2.589  -0.837  0.00  0.00    -0.190 A 
ATOM     25  C   LIG    1      -14.900   3.072  -0.907  0.00  0.00    +0.040 A 
ATOM     26  C   LIG    1      -15.896   2.154  -1.007  0.00  0.00    -0.100 A 
ATOM     27  C   LIG    1      -15.583   0.779  -1.039  0.00  0.00    +0.510 A 
ATOM     28  O   LIG    1      -14.315   0.344  -0.974  0.00  0.00    -0.270 OA
ATOM     29  O   LIG    1      -16.486  -0.033  -1.129  0.00  0.00    -0.460 OA
ATOM     30  C   LIG    1      -15.207   4.547  -0.870  0.00  0.00    +0.130 C 
ATOM     31  C   LIG    1      -13.278   1.203  -0.874  0.00  0.00    +0.190 A 
ATOM     32  C   LIG    1      -11.974   0.737  -0.814  0.00  0.00    -0.010 A 
ENDBRANCH  20  21
ENDBRANCH  19  20
ENDBRANCH   3  19
TORSDOF 5
