REMARK  Name = ZINCrD00000hQ4Dn.0
REMARK                            x       y       z     vdW  Elec       q    Type
REMARK                         _______ _______ _______ _____ _____    ______ ____
ROOT
ATOM      1  N   LIG    1        0.012  -2.627  -2.471  0.00  0.00    -0.700 N 
ATOM      2  H   LIG    1       -0.796  -2.157  -2.731  0.00  0.00    +0.420 HD
ENDROOT
BRANCH   1   3
ATOM      3  C   LIG    1        1.113  -1.915  -2.023  0.00  0.00    +0.440 A 
ATOM      4  C   LIG    1        2.244  -2.582  -1.549  0.00  0.00    -0.160 A 
ATOM      5  C   LIG    1        3.316  -1.827  -1.113  0.00  0.00    +0.350 A 
ATOM      6  N   LIG    1        3.237  -0.505  -1.160  0.00  0.00    -0.550 NA
ATOM      7  C   LIG    1        2.155   0.095  -1.614  0.00  0.00    +0.370 A 
ATOM      8  N   LIG    1        1.108  -0.585  -2.034  0.00  0.00    -0.560 NA
BRANCH   7   9
ATOM      9  C   LIG    1        2.112   1.601  -1.647  0.00  0.00    +0.190 C 
BRANCH   9  10
ATOM     10  C   LIG    1        2.641   2.089  -2.971  0.00  0.00    -0.080 A 
ATOM     11  C   LIG    1        3.988   2.360  -3.120  0.00  0.00    +0.030 A 
ATOM     12  C   LIG    1        4.474   2.804  -4.336  0.00  0.00    +0.000 A 
ATOM     13  C   LIG    1        3.611   2.985  -5.400  0.00  0.00    +0.000 A 
ATOM     14  C   LIG    1        2.263   2.720  -5.250  0.00  0.00    +0.000 A 
ATOM     15  C   LIG    1        1.778   2.272  -4.035  0.00  0.00    +0.020 A 
ENDBRANCH   9  10
ENDBRANCH   7   9
ENDBRANCH   1   3
BRANCH   1  16
ATOM     16  C   LIG    1        0.069  -4.088  -2.554  0.00  0.00    +0.390 C 
BRANCH  16  21
ATOM     17  C   LIG    1        2.992  -6.319  -5.954  0.00  0.00    +0.200 C 
ATOM     18  C   LIG    1        1.978  -5.427  -5.283  0.00  0.00    +0.170 A 
ATOM     19  N   LIG    1        1.240  -4.530  -5.865  0.00  0.00    -0.380 NA
ATOM     20  O   LIG    1        0.522  -3.986  -5.052  0.00  0.00    +0.090 OA
ATOM     21  C   LIG    1        0.749  -4.493  -3.836  0.00  0.00    +0.160 A 
ATOM     22  N   LIG    1        1.672  -5.414  -3.974  0.00  0.00    -0.470 NA
ENDBRANCH  16  21
BRANCH  16  23
ATOM     23  C   LIG    1       -1.351  -4.656  -2.529  0.00  0.00    -0.010 C 
ATOM     24  C   LIG    1       -2.062  -4.201  -1.250  0.00  0.00    +0.010 C 
ATOM     25  C   LIG    1       -3.454  -4.838  -1.195  0.00  0.00    +0.210 C 
ATOM     26  O   LIG    1       -3.328  -6.260  -1.250  0.00  0.00    -0.380 OA
ATOM     27  C   LIG    1       -2.713  -6.746  -2.445  0.00  0.00    +0.210 C 
ATOM     28  C   LIG    1       -1.292  -6.186  -2.550  0.00  0.00    +0.000 C 
ENDBRANCH  16  23
ENDBRANCH   1  16
TORSDOF 6
