REMARK  Name = ZINCvU0000000Acw.0
REMARK                            x       y       z     vdW  Elec       q    Type
REMARK                         _______ _______ _______ _____ _____    ______ ____
ROOT
ATOM      1  N   LIG    1       -0.011   0.966   0.007  0.00  0.00    -0.650 N 
ATOM      2  H   LIG    1       -0.123   0.087  -0.388  0.00  0.00    +0.420 HD
ATOM      3  C   LIG    1       -1.050   1.566   0.622  0.00  0.00    +0.520 C 
ATOM      4  O   LIG    1       -0.933   2.697   1.044  0.00  0.00    -0.490 OA
ENDROOT
BRANCH   1  17
ATOM      5  C   LIG    1        2.406   0.865  -0.002  0.00  0.00    +0.100 A 
ATOM      6  C   LIG    1        3.631   1.500  -0.073  0.00  0.00    +0.000 A 
ATOM      7  C   LIG    1        3.686   2.885  -0.207  0.00  0.00    -0.090 A 
ATOM      8  C   LIG    1        2.506   3.638  -0.271  0.00  0.00    +0.070 A 
ATOM      9  O   LIG    1        2.836   4.943  -0.399  0.00  0.00    -0.190 OA
ATOM     10  C   LIG    1        4.176   5.115  -0.426  0.00  0.00    +0.090 A 
ATOM     11  C   LIG    1        4.971   6.249  -0.541  0.00  0.00    +0.020 A 
ATOM     12  C   LIG    1        6.346   6.133  -0.540  0.00  0.00    +0.060 A 
ATOM     13  C   LIG    1        6.948   4.890  -0.425  0.00  0.00    -0.010 A 
ATOM     14  C   LIG    1        6.176   3.754  -0.310  0.00  0.00    +0.070 A 
ATOM     15  C   LIG    1        1.280   2.989  -0.203  0.00  0.00    +0.080 A 
ATOM     16  C   LIG    1        4.789   3.860  -0.310  0.00  0.00    -0.130 A 
ATOM     17  C   LIG    1        1.229   1.613  -0.065  0.00  0.00    +0.150 A 
BRANCH   5  19
ATOM     18  C   LIG    1        3.591  -1.189   0.187  0.00  0.00    +0.260 C 
ATOM     19  O   LIG    1        2.347  -0.487   0.129  0.00  0.00    -0.310 OA
ENDBRANCH   5  19
ENDBRANCH   1  17
BRANCH   3  20
ATOM     20  C   LIG    1       -2.356   0.832   0.783  0.00  0.00    +0.200 C 
ATOM     21  C   LIG    1       -2.968   0.571  -0.595  0.00  0.00    +0.080 C 
BRANCH  20  22
ATOM     22  O   LIG    1       -3.269   1.638   1.573  0.00  0.00    -0.320 OA
BRANCH  22  23
ATOM     23  C   LIG    1       -4.173   0.979   2.326  0.00  0.00    +0.510 C 
ATOM     24  O   LIG    1       -4.196  -0.236   2.322  0.00  0.00    -0.490 OA
BRANCH  23  25
ATOM     25  C   LIG    1       -5.132   1.732   3.154  0.00  0.00    -0.180 A 
ATOM     26  C   LIG    1       -5.104   3.129   3.165  0.00  0.00    +0.160 A 
ATOM     27  C   LIG    1       -6.007   3.828   3.936  0.00  0.00    -0.020 A 
ATOM     28  C   LIG    1       -6.936   3.148   4.711  0.00  0.00    +0.170 A 
ATOM     29  C   LIG    1       -6.967   1.763   4.710  0.00  0.00    -0.050 A 
ATOM     30  F   LIG    1       -7.815   3.841   5.468  0.00  0.00    -0.120 F 
ATOM     31  C   LIG    1       -6.071   1.051   3.937  0.00  0.00    +0.200 A 
ATOM     32  F   LIG    1       -6.101  -0.300   3.937  0.00  0.00    -0.100 F 
ENDBRANCH  23  25
ENDBRANCH  22  23
ENDBRANCH  20  22
ENDBRANCH   3  20
TORSDOF 6
