REMARK  Name = ZINCvU00000006fl.0
REMARK                            x       y       z     vdW  Elec       q    Type
REMARK                         _______ _______ _______ _____ _____    ______ ____
ROOT
ATOM      1  N   LIG    1        2.360   3.889   0.000  0.00  0.00    -0.430 N 
ATOM      2  C   LIG    1        2.780   4.709  -1.029  0.00  0.00    +0.290 A 
ATOM      3  N   LIG    1        2.261   5.045  -2.190  0.00  0.00    -0.430 NA
ATOM      4  C   LIG    1        2.920   5.886  -2.998  0.00  0.00    +0.100 A 
ATOM      5  C   LIG    1        2.371   6.252  -4.240  0.00  0.00    +0.060 A 
ATOM      6  C   LIG    1        3.049   7.106  -5.055  0.00  0.00    +0.040 A 
ATOM      7  C   LIG    1        4.285   7.628  -4.677  0.00  0.00    +0.040 A 
ATOM      8  C   LIG    1        4.847   7.297  -3.483  0.00  0.00    +0.060 A 
ATOM      9  C   LIG    1        4.177   6.417  -2.614  0.00  0.00    +0.090 A 
ATOM     10  N   LIG    1        4.721   6.086  -1.436  0.00  0.00    -0.420 NA
ATOM     11  C   LIG    1        4.079   5.260  -0.633  0.00  0.00    +0.180 A 
ATOM     12  C   LIG    1        4.358   4.689   0.694  0.00  0.00    -0.210 A 
ATOM     13  C   LIG    1        3.275   3.878   1.012  0.00  0.00    +0.510 A 
ENDROOT
BRANCH   1  17
ATOM     14  C   LIG    1       -1.223   1.753   0.017  0.00  0.00    +0.150 A 
ATOM     15  C   LIG    1       -0.013   1.076   0.008  0.00  0.00    +0.000 A 
ATOM     16  C   LIG    1        1.174   1.782   0.000  0.00  0.00    +0.070 A 
ATOM     17  C   LIG    1        1.155   3.171   0.008  0.00  0.00    +0.060 A 
ATOM     18  C   LIG    1       -0.057   3.848   0.022  0.00  0.00    +0.080 A 
ATOM     19  C   LIG    1       -1.243   3.140   0.030  0.00  0.00    -0.060 A 
BRANCH  14  20
ATOM     20  O   LIG    1       -2.391   1.057   0.019  0.00  0.00    -0.310 OA
BRANCH  20  21
ATOM     21  C   LIG    1       -3.600   1.818   0.029  0.00  0.00    +0.200 C 
BRANCH  21  22
ATOM     22  C   LIG    1       -4.801   0.870   0.030  0.00  0.00    +0.040 C 
BRANCH  22  23
ATOM     23  C   LIG    1       -6.095   1.685   0.041  0.00  0.00    +0.020 C 
BRANCH  23  24
ATOM     24  C   LIG    1       -7.295   0.736   0.042  0.00  0.00    +0.000 C 
BRANCH  24  25
ATOM     25  C   LIG    1       -8.590   1.551   0.052  0.00  0.00    +0.000 C 
BRANCH  25  26
ATOM     26  C   LIG    1       -9.790   0.603   0.054  0.00  0.00    +0.000 C 
BRANCH  26  28
ATOM     27  C   LIG    1      -12.285   0.469   0.065  0.00  0.00    +0.000 C 
ATOM     28  C   LIG    1      -11.085   1.418   0.064  0.00  0.00    -0.010 C 
ENDBRANCH  26  28
ENDBRANCH  25  26
ENDBRANCH  24  25
ENDBRANCH  23  24
ENDBRANCH  22  23
ENDBRANCH  21  22
ENDBRANCH  20  21
ENDBRANCH  14  20
ENDBRANCH   1  17
BRANCH  13  29
ATOM     29  N   LIG    1        3.147   3.164   2.177  0.00  0.00    -0.820 N 
ATOM     30  H   LIG    1        3.843   3.208   2.851  0.00  0.00    +0.430 HD
ATOM     31  H   LIG    1        2.360   2.616   2.326  0.00  0.00    +0.410 HD
ENDBRANCH  13  29
BRANCH  12  32
ATOM     32  C   LIG    1        5.516   4.927   1.502  0.00  0.00    +0.300 C 
ATOM     33  N   LIG    1        6.434   5.116   2.144  0.00  0.00    -0.430 NA
ENDBRANCH  12  32
TORSDOF 11
