REMARK  Name = ZINCfA000000bfYc.0
REMARK                            x       y       z     vdW  Elec       q    Type
REMARK                         _______ _______ _______ _____ _____    ______ ____
ROOT
ATOM      1  C   LIG    1        0.609  -1.986  -1.126  0.00  0.00    +0.170 C 
ENDROOT
BRANCH   1   2
ATOM      2  N   LIG    1        0.736  -0.523  -1.135  0.00  0.00    -0.510 N 
ATOM      3  H   LIG    1        0.203  -0.134  -0.372  0.00  0.00    +0.430 HD
ATOM      4  H   LIG    1        1.707  -0.269  -1.031  0.00  0.00    +0.420 HD
BRANCH   2   6
ATOM      5  C   LIG    1        0.314   1.532  -2.398  0.00  0.00    +0.080 C 
ATOM      6  C   LIG    1        0.226   0.005  -2.408  0.00  0.00    +0.240 C 
ENDBRANCH   2   6
ENDBRANCH   1   2
BRANCH   1   7
ATOM      7  C   LIG    1       -0.856  -2.373  -1.342  0.00  0.00    -0.010 C 
ATOM      8  C   LIG    1       -1.727  -1.676  -0.294  0.00  0.00    +0.050 C 
ATOM      9  C   LIG    1       -1.009  -3.889  -1.206  0.00  0.00    +0.070 C 
ENDBRANCH   1   7
BRANCH   1  10
ATOM     10  C   LIG    1        1.463  -2.579  -2.249  0.00  0.00    +0.120 C 
BRANCH  10  11
ATOM     11  C   LIG    1        2.918  -2.304  -1.971  0.00  0.00    -0.140 A 
ATOM     12  C   LIG    1        3.507  -1.150  -2.454  0.00  0.00    +0.020 A 
ATOM     13  C   LIG    1        4.840  -0.894  -2.196  0.00  0.00    +0.010 A 
ATOM     14  C   LIG    1        5.589  -1.799  -1.463  0.00  0.00    +0.120 A 
ATOM     15  C   LIG    1        5.000  -2.957  -0.985  0.00  0.00    +0.010 A 
ATOM     16  F   LIG    1        6.894  -1.552  -1.215  0.00  0.00    -0.130 F 
ATOM     17  C   LIG    1        3.665  -3.208  -1.239  0.00  0.00    +0.070 A 
ENDBRANCH  10  11
ENDBRANCH   1  10
TORSDOF 5
