REMARK  Name = ZINCrD00000hQ7a4.0
REMARK                            x       y       z     vdW  Elec       q    Type
REMARK                         _______ _______ _______ _____ _____    ______ ____
ROOT
ATOM      1  C   LIG    1       -1.085   0.622   2.108  0.00  0.00    +0.520 C 
ATOM      2  N   LIG    1       -0.685   1.522   1.187  0.00  0.00    -0.610 N 
ATOM      3  C   LIG    1        0.034   1.090  -0.019  0.00  0.00    +0.290 C 
ATOM      4  C   LIG    1       -0.710   1.600  -1.257  0.00  0.00    +0.040 C 
ATOM      5  C   LIG    1       -0.856   3.122  -1.171  0.00  0.00    +0.000 C 
ATOM      6  C   LIG    1       -1.628   3.484   0.096  0.00  0.00    -0.090 C 
ATOM      7  C   LIG    1       -3.127   3.168   0.013  0.00  0.00    +0.010 C 
ATOM      8  C   LIG    1       -3.364   4.499   0.748  0.00  0.00    +0.010 C 
ATOM      9  C   LIG    1       -2.014   4.966   0.179  0.00  0.00    +0.020 C 
ATOM     10  C   LIG    1       -0.963   2.955   1.367  0.00  0.00    +0.310 C 
ATOM     11  O   LIG    1       -1.678   0.992   3.099  0.00  0.00    -0.530 OA
ENDROOT
BRANCH   5  12
ATOM     12  C   LIG    1       -1.617   3.632  -2.396  0.00  0.00    +0.460 C 
ATOM     13  F   LIG    1       -0.880   3.354  -3.552  0.00  0.00    -0.180 F 
ATOM     14  F   LIG    1       -1.808   5.014  -2.285  0.00  0.00    -0.170 F 
ATOM     15  F   LIG    1       -2.861   2.995  -2.471  0.00  0.00    -0.170 F 
ENDBRANCH   5  12
BRANCH   1  16
ATOM     16  C   LIG    1       -0.794  -0.843   1.906  0.00  0.00    +0.050 C 
BRANCH  16  17
ATOM     17  C   LIG    1       -1.350  -1.640   3.088  0.00  0.00    +0.290 C 
BRANCH  17  20
ATOM     18  O   LIG    1       -2.062  -3.592   4.808  0.00  0.00    -0.540 OA
ATOM     19  C   LIG    1       -1.467  -3.963   3.813  0.00  0.00    +0.550 C 
ATOM     20  N   LIG    1       -1.067  -3.064   2.892  0.00  0.00    -0.730 N 
ATOM     21  H   LIG    1       -0.593  -3.360   2.099  0.00  0.00    +0.400 HD
BRANCH  19  22
ATOM     22  C   LIG    1       -1.194  -5.339   3.623  0.00  0.00    -0.090 C 
ATOM     23  C   LIG    1       -1.596  -6.244   4.550  0.00  0.00    +0.180 C 
BRANCH  23  24
ATOM     24  C   LIG    1       -1.323  -7.621   4.361  0.00  0.00    -0.020 A 
ATOM     25  C   LIG    1       -1.667  -8.643   5.220  0.00  0.00    +0.000 A 
ATOM     26  C   LIG    1       -1.204  -9.831   4.633  0.00  0.00    -0.060 A 
ATOM     27  C   LIG    1       -0.602  -9.494   3.471  0.00  0.00    +0.200 A 
ATOM     28  O   LIG    1       -0.675  -8.166   3.310  0.00  0.00    -0.170 OA
ENDBRANCH  23  24
ENDBRANCH  19  22
ENDBRANCH  17  20
ENDBRANCH  16  17
ENDBRANCH   1  16
TORSDOF 6
