REMARK  Name = ZINCnE000001TvSF.1
REMARK                            x       y       z     vdW  Elec       q    Type
REMARK                         _______ _______ _______ _____ _____    ______ ____
ROOT
ATOM      1  C   LIG    1       -2.385   1.155   0.034  0.00  0.00    +0.350 A 
ATOM      2  N   LIG    1       -3.566   1.688   0.061  0.00  0.00    -0.550 NA
ATOM      3  C   LIG    1       -4.595   0.861   0.053  0.00  0.00    +0.110 A 
ATOM      4  C   LIG    1       -4.267  -0.432   0.029  0.00  0.00    -0.240 A 
ATOM      5  S   LIG    1       -2.509  -0.550   0.009  0.00  0.00    +0.020 S 
ENDROOT
BRANCH   1   8
ATOM      6  O   LIG    1        0.002  -0.004  -0.011  0.00  0.00    -0.610 OA
ATOM      7  C   LIG    1       -0.014   1.209   0.009  0.00  0.00    +0.480 C 
ATOM      8  N   LIG    1       -1.190   1.867   0.032  0.00  0.00    -0.650 NA
BRANCH   7   9
ATOM      9  C   LIG    1        1.280   1.980   0.001  0.00  0.00    -0.010 C 
ATOM     10  C   LIG    1        2.515   1.294   0.590  0.00  0.00    +0.030 C 
ATOM     11  C   LIG    1        1.839   2.435   1.347  0.00  0.00    -0.110 C 
ATOM     12  C   LIG    1        1.041   2.085   2.608  0.00  0.00    +0.020 C 
ATOM     13  C   LIG    1        0.138   3.273   2.957  0.00  0.00    +0.220 C 
ATOM     14  O   LIG    1        0.931   4.457   3.056  0.00  0.00    -0.390 OA
ATOM     15  C   LIG    1        1.553   4.858   1.834  0.00  0.00    +0.210 C 
ATOM     16  C   LIG    1        2.561   3.786   1.403  0.00  0.00    +0.030 C 
ENDBRANCH   7   9
ENDBRANCH   1   8
BRANCH   3  17
ATOM     17  C   LIG    1       -6.024   1.339   0.075  0.00  0.00    +0.160 C 
BRANCH  17  18
ATOM     18  C   LIG    1       -6.230   2.252   1.256  0.00  0.00    -0.060 A 
ATOM     19  C   LIG    1       -6.634   1.731   2.471  0.00  0.00    +0.000 A 
ATOM     20  C   LIG    1       -6.818   2.569   3.555  0.00  0.00    -0.020 A 
ATOM     21  C   LIG    1       -6.609   3.929   3.421  0.00  0.00    -0.020 A 
ATOM     22  C   LIG    1       -6.210   4.450   2.205  0.00  0.00    +0.000 A 
ATOM     23  C   LIG    1       -6.021   3.612   1.122  0.00  0.00    +0.030 A 
ENDBRANCH  17  18
ENDBRANCH   3  17
TORSDOF 4
