REMARK  Name = ZINCrH000004mSUZ.0
REMARK                            x       y       z     vdW  Elec       q    Type
REMARK                         _______ _______ _______ _____ _____    ______ ____
ROOT
ATOM      1  C   LIG    1       -3.682   1.477   0.033  0.00  0.00    +0.080 A 
ATOM      2  C   LIG    1       -2.448   0.873   0.018  0.00  0.00    -0.240 A 
ATOM      3  C   LIG    1       -2.505  -0.523   0.012  0.00  0.00    +0.070 A 
ATOM      4  C   LIG    1       -3.754  -1.012   0.015  0.00  0.00    -0.230 A 
ATOM      5  S   LIG    1       -4.919   0.303   0.028  0.00  0.00    +0.340 S 
ENDROOT
BRANCH   4   6
ATOM      6  C   LIG    1       -4.100  -2.449   0.010  0.00  0.00    -0.000 A 
ATOM      7  C   LIG    1       -3.090  -3.413  -0.005  0.00  0.00    +0.010 A 
ATOM      8  C   LIG    1       -3.420  -4.752  -0.004  0.00  0.00    +0.020 A 
ATOM      9  C   LIG    1       -4.748  -5.141   0.001  0.00  0.00    +0.000 A 
ATOM     10  C   LIG    1       -5.753  -4.191   0.010  0.00  0.00    +0.020 A 
ATOM     11  C   LIG    1       -5.437  -2.848   0.015  0.00  0.00    +0.000 A 
ENDBRANCH   4   6
BRANCH   2  12
ATOM     12  C   LIG    1       -1.187   1.624   0.017  0.00  0.00    +0.590 C 
ATOM     13  O   LIG    1       -1.204   2.841   0.023  0.00  0.00    -0.560 OA
ATOM     14  N   LIG    1       -0.011   0.966   0.007  0.00  0.00    -0.850 N 
ATOM     15  H   LIG    1        0.822   1.462   0.002  0.00  0.00    +0.410 HD
ATOM     16  H   LIG    1        0.002  -0.004   0.002  0.00  0.00    +0.400 HD
ENDBRANCH   2  12
BRANCH   1  18
ATOM     17  C   LIG    1       -5.147   3.334   0.061  0.00  0.00    +0.550 C 
ATOM     18  N   LIG    1       -3.891   2.845   0.048  0.00  0.00    -0.620 N 
ATOM     19  H   LIG    1       -3.134   3.452   0.048  0.00  0.00    +0.430 HD
ATOM     20  O   LIG    1       -6.096   2.574   0.061  0.00  0.00    -0.480 OA
BRANCH  17  25
ATOM     21  C   LIG    1       -4.500   7.034   0.093  0.00  0.00    +0.090 A 
ATOM     22  C   LIG    1       -5.795   7.536   0.107  0.00  0.00    +0.010 A 
ATOM     23  C   LIG    1       -6.876   6.676   0.106  0.00  0.00    -0.040 A 
ATOM     24  C   LIG    1       -6.675   5.304   0.091  0.00  0.00    +0.160 A 
ATOM     25  C   LIG    1       -5.370   4.792   0.077  0.00  0.00    -0.140 A 
ATOM     26  C   LIG    1       -4.283   5.669   0.084  0.00  0.00    +0.070 A 
BRANCH  21  28
ATOM     27  C   LIG    1       -3.738   9.287   0.110  0.00  0.00    +0.250 C 
ATOM     28  O   LIG    1       -3.442   7.889   0.094  0.00  0.00    -0.310 OA
ENDBRANCH  21  28
BRANCH  24  29
ATOM     29  O   LIG    1       -7.738   4.460   0.091  0.00  0.00    -0.280 OA
ATOM     30  C   LIG    1       -9.037   5.054   0.106  0.00  0.00    +0.250 C 
ENDBRANCH  24  29
ENDBRANCH  17  25
ENDBRANCH   1  18
TORSDOF 6
