REMARK  Name = ZINCqH0000033LkR.0
REMARK                            x       y       z     vdW  Elec       q    Type
REMARK                         _______ _______ _______ _____ _____    ______ ____
ROOT
ATOM      1  N   LIG    1       -4.834   3.161   0.042  0.00  0.00    -0.630 N 
ATOM      2  H   LIG    1       -5.516   2.471   0.042  0.00  0.00    +0.420 HD
ATOM      3  C   LIG    1       -5.191   4.460   0.051  0.00  0.00    +0.510 C 
ATOM      4  O   LIG    1       -4.339   5.323   0.052  0.00  0.00    -0.440 OA
ENDROOT
BRANCH   3   5
ATOM      5  C   LIG    1       -6.649   4.841   0.060  0.00  0.00    +0.070 C 
ATOM      6  C   LIG    1       -7.318   4.266   1.309  0.00  0.00    +0.100 C 
ATOM      7  C   LIG    1       -6.853   5.013   2.530  0.00  0.00    +0.520 C 
ATOM      8  N   LIG    1       -6.598   6.333   2.474  0.00  0.00    -0.660 N 
ATOM      9  H   LIG    1       -6.310   6.802   3.272  0.00  0.00    +0.410 HD
ATOM     10  C   LIG    1       -6.745   7.033   1.272  0.00  0.00    +0.180 A 
ATOM     11  C   LIG    1       -6.862   8.416   1.280  0.00  0.00    -0.020 A 
ATOM     12  C   LIG    1       -7.008   9.101   0.089  0.00  0.00    +0.050 A 
ATOM     13  C   LIG    1       -7.039   8.411  -1.108  0.00  0.00    -0.010 A 
ATOM     14  C   LIG    1       -6.923   7.033  -1.119  0.00  0.00    +0.060 A 
ATOM     15  O   LIG    1       -6.707   4.418   3.576  0.00  0.00    -0.520 OA
ATOM     16  C   LIG    1       -6.776   6.343   0.067  0.00  0.00    -0.110 A 
ENDBRANCH   3   5
BRANCH   1  22
ATOM     17  C   LIG    1        1.175   1.781   0.000  0.00  0.00    +0.150 A 
ATOM     18  C   LIG    1        1.155   3.172   0.008  0.00  0.00    -0.040 A 
ATOM     19  C   LIG    1       -0.036   3.852   0.024  0.00  0.00    +0.120 A 
ATOM     20  C   LIG    1       -1.261   3.152   0.032  0.00  0.00    +0.070 A 
ATOM     21  N   LIG    1       -2.515   3.647   0.048  0.00  0.00    -0.460 NA
ATOM     22  C   LIG    1       -3.493   2.810   0.034  0.00  0.00    +0.330 A 
ATOM     23  S   LIG    1       -2.888   1.160   0.022  0.00  0.00    +0.070 S 
ATOM     24  C   LIG    1       -1.229   1.754   0.017  0.00  0.00    -0.140 A 
ATOM     25  C   LIG    1       -0.013   1.076   0.008  0.00  0.00    +0.030 A 
BRANCH  17  26
ATOM     26  O   LIG    1        2.362   1.117  -0.015  0.00  0.00    -0.310 OA
BRANCH  26  28
ATOM     27  C   LIG    1        4.775   0.996  -0.039  0.00  0.00    +0.070 C 
ATOM     28  C   LIG    1        3.550   1.911  -0.022  0.00  0.00    +0.190 C 
ENDBRANCH  26  28
ENDBRANCH  17  26
ENDBRANCH   1  22
TORSDOF 4
