REMARK  Name = ZINCnE000001TxI1.0
REMARK                            x       y       z     vdW  Elec       q    Type
REMARK                         _______ _______ _______ _____ _____    ______ ____
ROOT
ATOM      1  C   LIG    1       -2.055   0.759   1.498  0.00  0.00    +0.560 C 
ATOM      2  N   LIG    1       -2.946   1.154   2.429  0.00  0.00    -0.730 N 
ATOM      3  H   LIG    1       -2.870   2.034   2.830  0.00  0.00    +0.420 HD
ATOM      4  O   LIG    1       -2.150  -0.341   0.996  0.00  0.00    -0.550 OA
ENDROOT
BRANCH   1   5
ATOM      5  C   LIG    1       -0.942   1.685   1.079  0.00  0.00    -0.180 C 
ATOM      6  C   LIG    1       -0.013   1.086   0.008  0.00  0.00    +0.080 C 
ATOM      7  C   LIG    1       -0.956   1.692  -1.031  0.00  0.00    -0.110 C 
ATOM      8  C   LIG    1       -1.999   0.835  -1.749  0.00  0.00    +0.040 C 
ATOM      9  C   LIG    1       -1.854   1.805  -2.935  0.00  0.00    -0.010 C 
ATOM     10  C   LIG    1       -0.445   2.127  -2.405  0.00  0.00    +0.010 C 
ATOM     11  C   LIG    1       -1.368   2.723   0.021  0.00  0.00    +0.080 C 
BRANCH   5  13
ATOM     12  O   LIG    1       -0.691   3.222   2.860  0.00  0.00    -0.690 OA
ATOM     13  C   LIG    1       -0.206   2.284   2.250  0.00  0.00    +0.510 C 
ATOM     14  O   LIG    1        0.874   1.830   2.587  0.00  0.00    -0.680 OA
ENDBRANCH   5  13
ENDBRANCH   1   5
BRANCH   2  15
ATOM     15  C   LIG    1       -4.028   0.254   2.836  0.00  0.00    +0.360 C 
BRANCH  15  16
ATOM     16  C   LIG    1       -4.877   0.930   3.881  0.00  0.00    -0.190 A 
ATOM     17  C   LIG    1       -5.947   1.687   3.632  0.00  0.00    +0.060 A 
ATOM     18  C   LIG    1       -6.570   2.204   4.754  0.00  0.00    -0.200 A 
ATOM     19  C   LIG    1       -6.006   1.868   5.915  0.00  0.00    +0.020 A 
ATOM     20  S   LIG    1       -4.613   0.837   5.618  0.00  0.00    +0.200 S 
BRANCH  18  21
ATOM     21  C   LIG    1       -7.793   3.081   4.671  0.00  0.00    +0.530 C 
ATOM     22  F   LIG    1       -7.767   3.804   3.474  0.00  0.00    -0.170 F 
ATOM     23  F   LIG    1       -7.805   3.969   5.752  0.00  0.00    -0.180 F 
ATOM     24  F   LIG    1       -8.942   2.284   4.709  0.00  0.00    -0.180 F 
ENDBRANCH  18  21
ENDBRANCH  15  16
ENDBRANCH   2  15
TORSDOF 5
