REMARK  Name = ZINCrD00000hQ5cC.0
REMARK                            x       y       z     vdW  Elec       q    Type
REMARK                         _______ _______ _______ _____ _____    ______ ____
ROOT
ATOM      1  C   LIG    1       -1.240   3.141   0.061  0.00  0.00    -0.090 A 
ATOM      2  C   LIG    1       -1.086   2.001   0.851  0.00  0.00    +0.000 A 
ATOM      3  C   LIG    1        0.120   1.329   0.866  0.00  0.00    +0.050 A 
ATOM      4  C   LIG    1        1.174   1.776   0.091  0.00  0.00    -0.060 A 
ATOM      5  C   LIG    1        1.028   2.906  -0.703  0.00  0.00    +0.130 A 
ATOM      6  C   LIG    1       -0.175   3.590  -0.721  0.00  0.00    +0.040 A 
ENDROOT
BRANCH   1   8
ATOM      7  O   LIG    1       -2.544   5.079   0.120  0.00  0.00    -0.520 OA
ATOM      8  C   LIG    1       -2.529   3.866   0.047  0.00  0.00    +0.570 C 
ATOM      9  N   LIG    1       -3.686   3.181  -0.047  0.00  0.00    -0.610 N 
ATOM     10  C   LIG    1       -4.980   3.876  -0.143  0.00  0.00    +0.290 C 
ATOM     11  C   LIG    1       -5.589   3.548  -1.506  0.00  0.00    +0.070 C 
ATOM     12  C   LIG    1       -5.520   2.070  -1.782  0.00  0.00    -0.070 A 
ATOM     13  C   LIG    1       -6.382   1.553  -2.742  0.00  0.00    +0.000 A 
ATOM     14  C   LIG    1       -6.364   0.208  -3.050  0.00  0.00    +0.000 A 
ATOM     15  C   LIG    1       -5.481  -0.634  -2.401  0.00  0.00    +0.000 A 
ATOM     16  C   LIG    1       -4.627  -0.124  -1.445  0.00  0.00    +0.010 A 
ATOM     17  C   LIG    1       -4.648   1.227  -1.130  0.00  0.00    -0.100 A 
ATOM     18  C   LIG    1       -3.706   1.715  -0.063  0.00  0.00    +0.330 C 
ENDBRANCH   1   8
BRANCH   5  19
ATOM     19  O   LIG    1        2.068   3.341  -1.463  0.00  0.00    -0.310 OA
BRANCH  19  20
ATOM     20  C   LIG    1        3.280   2.588  -1.395  0.00  0.00    +0.220 C 
BRANCH  20  21
ATOM     21  C   LIG    1        4.328   3.224  -2.311  0.00  0.00    +0.090 C 
ATOM     22  C   LIG    1        3.939   4.505  -3.052  0.00  0.00    +0.180 C 
ATOM     23  N   LIG    1        4.063   3.221  -3.756  0.00  0.00    -0.440 NA
BRANCH  23  24
ATOM     24  C   LIG    1        2.741   2.650  -4.047  0.00  0.00    +0.190 C 
BRANCH  24  25
ATOM     25  C   LIG    1        2.600   2.432  -5.555  0.00  0.00    -0.030 C 
ATOM     26  C   LIG    1        1.524   3.236  -6.287  0.00  0.00    +0.000 C 
ATOM     27  C   LIG    1        1.333   1.735  -6.053  0.00  0.00    +0.010 C 
ENDBRANCH  24  25
ENDBRANCH  23  24
ENDBRANCH  20  21
ENDBRANCH  19  20
ENDBRANCH   5  19
TORSDOF 6
