REMARK  Name = ZINCvU0000000ENE.0
REMARK                            x       y       z     vdW  Elec       q    Type
REMARK                         _______ _______ _______ _____ _____    ______ ____
ROOT
ATOM      1  N   LIG    1        1.802  -2.872   1.089  0.00  0.00    -0.690 N 
ATOM      2  H   LIG    1        2.646  -2.421   1.249  0.00  0.00    +0.410 HD
ENDROOT
BRANCH   1   3
ATOM      3  C   LIG    1        1.729  -4.251   1.162  0.00  0.00    +0.500 A 
ATOM      4  C   LIG    1        2.869  -5.014   1.514  0.00  0.00    -0.220 A 
ATOM      5  C   LIG    1        4.224  -4.589   1.843  0.00  0.00    -0.020 A 
ATOM      6  C   LIG    1        5.059  -5.586   2.131  0.00  0.00    -0.020 A 
ATOM      7  S   LIG    1        4.256  -7.141   2.024  0.00  0.00    +0.180 S 
ATOM      8  C   LIG    1        2.727  -6.402   1.571  0.00  0.00    +0.120 A 
ATOM      9  N   LIG    1        1.535  -6.945   1.293  0.00  0.00    -0.530 NA
ATOM     10  C   LIG    1        0.507  -6.195   0.971  0.00  0.00    +0.560 A 
ATOM     11  N   LIG    1        0.589  -4.878   0.910  0.00  0.00    -0.580 NA
BRANCH   5  12
ATOM     12  C   LIG    1        4.638  -3.166   1.857  0.00  0.00    -0.030 A 
ATOM     13  C   LIG    1        4.569  -2.406   0.690  0.00  0.00    +0.050 A 
ATOM     14  C   LIG    1        4.951  -1.081   0.709  0.00  0.00    +0.050 A 
ATOM     15  C   LIG    1        5.413  -0.508   1.881  0.00  0.00    -0.090 A 
ATOM     16  C   LIG    1        5.488  -1.259   3.042  0.00  0.00    +0.050 A 
ATOM     17 BR   LIG    1        5.942   1.308   1.898  0.00  0.00    -0.040 Br
ATOM     18  C   LIG    1        5.104  -2.584   3.035  0.00  0.00    +0.050 A 
ENDBRANCH   5  12
ENDBRANCH   1   3
BRANCH   1  19
ATOM     19  C   LIG    1        0.605  -2.090   0.767  0.00  0.00    +0.290 C 
BRANCH  19  20
ATOM     20  C   LIG    1        0.525  -0.896   1.682  0.00  0.00    -0.100 A 
ATOM     21  C   LIG    1       -0.694  -0.508   2.208  0.00  0.00    +0.030 A 
ATOM     22  C   LIG    1       -0.768   0.587   3.048  0.00  0.00    +0.010 A 
ATOM     23  C   LIG    1        0.377   1.295   3.363  0.00  0.00    +0.010 A 
ATOM     24  C   LIG    1        1.595   0.908   2.836  0.00  0.00    +0.010 A 
ATOM     25  C   LIG    1        1.669  -0.187   1.997  0.00  0.00    +0.000 A 
ENDBRANCH  19  20
BRANCH  19  26
ATOM     26  C   LIG    1        0.681  -1.616  -0.685  0.00  0.00    +0.300 C 
BRANCH  26  32
ATOM     27  O   LIG    1        2.935  -2.955  -1.861  0.00  0.00    -0.530 OA
ATOM     28  C   LIG    1        1.805  -3.339  -2.079  0.00  0.00    +0.520 C 
ATOM     29  C   LIG    1        1.445  -4.523  -2.949  0.00  0.00    +0.040 C 
ATOM     30  C   LIG    1       -0.021  -4.839  -2.574  0.00  0.00    +0.040 C 
ATOM     31  C   LIG    1       -0.513  -3.473  -2.047  0.00  0.00    +0.260 C 
ATOM     32  N   LIG    1        0.691  -2.777  -1.579  0.00  0.00    -0.610 N 
ENDBRANCH  26  32
ENDBRANCH  19  26
ENDBRANCH   1  19
TORSDOF 6
