REMARK  Name = ZINCpk00000xHZW3.0
REMARK                            x       y       z     vdW  Elec       q    Type
REMARK                         _______ _______ _______ _____ _____    ______ ____
ROOT
ATOM      1  N   LIG    1       -0.633   2.038   5.960  0.00  0.00    -0.730 N 
ATOM      2  H   LIG    1       -1.600   1.982   5.907  0.00  0.00    +0.400 HD
ATOM      3  C   LIG    1        0.002   1.687   7.096  0.00  0.00    +0.520 C 
ATOM      4  O   LIG    1        1.210   1.757   7.161  0.00  0.00    -0.520 OA
ENDROOT
BRANCH   1   5
ATOM      5  C   LIG    1        0.137   2.505   4.805  0.00  0.00    +0.290 C 
ATOM      6  C   LIG    1        0.407   4.005   4.944  0.00  0.00    +0.040 C 
BRANCH   5  11
ATOM      7  C   LIG    1       -2.866   1.540  -0.037  0.00  0.00    +0.090 C 
ATOM      8  C   LIG    1       -2.083   1.789   1.226  0.00  0.00    -0.080 A 
ATOM      9  C   LIG    1       -2.731   2.231   2.365  0.00  0.00    +0.010 A 
ATOM     10  C   LIG    1       -2.012   2.464   3.522  0.00  0.00    +0.000 A 
ATOM     11  C   LIG    1       -0.646   2.251   3.543  0.00  0.00    -0.100 A 
ATOM     12  C   LIG    1        0.001   1.806   2.405  0.00  0.00    +0.020 A 
ATOM     13  C   LIG    1       -0.718   1.572   1.248  0.00  0.00    -0.080 A 
ATOM     14  C   LIG    1       -0.013   1.086   0.008  0.00  0.00    +0.090 C 
ENDBRANCH   5  11
ENDBRANCH   1   5
BRANCH   3  15
ATOM     15  C   LIG    1       -0.791   1.206   8.284  0.00  0.00    +0.220 C 
BRANCH  15  16
ATOM     16  N   LIG    1        0.126   0.888   9.387  0.00  0.00    -0.520 NA
ATOM     17  C   LIG    1        0.982  -0.255   9.047  0.00  0.00    +0.180 C 
ATOM     18  C   LIG    1        2.018  -0.465  10.154  0.00  0.00    +0.020 C 
ATOM     19  C   LIG    1        1.296  -0.722  11.479  0.00  0.00    +0.230 C 
ATOM     20  C   LIG    1        0.374   0.461  11.787  0.00  0.00    +0.040 C 
ATOM     21  C   LIG    1       -0.614   0.645  10.632  0.00  0.00    +0.180 C 
BRANCH  19  22
ATOM     22  N   LIG    1        2.280  -0.868  12.555  0.00  0.00    -1.110 NA
ATOM     23  H   LIG    1        2.630  -0.081  13.001  0.00  0.00    +0.420 HD
BRANCH  22  24
ATOM     24  S   LIG    1        2.795  -2.375  13.007  0.00  0.00    +2.610 S 
ATOM     25  O   LIG    1        1.595  -3.104  13.225  0.00  0.00    -0.960 OA
ATOM     26  O   LIG    1        3.706  -2.130  14.070  0.00  0.00    -0.960 OA
ATOM     27  C   LIG    1        3.671  -3.010  11.552  0.00  0.00    -0.290 C 
ENDBRANCH  22  24
ENDBRANCH  19  22
ENDBRANCH  15  16
ENDBRANCH   3  15
TORSDOF 6
