REMARK  Name = ZINCpk00000K9lzl.0
REMARK                            x       y       z     vdW  Elec       q    Type
REMARK                         _______ _______ _______ _____ _____    ______ ____
ROOT
ATOM      1  O   LIG    1       -1.462   8.286  -2.283  0.00  0.00    -0.510 OA
ATOM      2  C   LIG    1       -1.923   8.914  -1.354  0.00  0.00    +0.510 C 
ATOM      3  N   LIG    1       -2.715   9.979  -1.587  0.00  0.00    -0.600 N 
ATOM      4  C   LIG    1       -3.286  10.746  -0.472  0.00  0.00    +0.280 C 
ATOM      5  C   LIG    1       -2.926  12.227  -0.662  0.00  0.00    +0.040 C 
ATOM      6  C   LIG    1       -3.394  12.686  -2.045  0.00  0.00    +0.030 C 
ATOM      7  C   LIG    1       -2.675  11.873  -3.125  0.00  0.00    +0.230 C 
ATOM      8  C   LIG    1       -3.028  10.392  -2.962  0.00  0.00    +0.290 C 
ENDROOT
BRANCH   7   9
ATOM      9  N   LIG    1       -3.100  12.335  -4.449  0.00  0.00    -0.460 N 
ATOM     10  C   LIG    1       -2.294  12.858  -5.424  0.00  0.00    +0.120 A 
ATOM     11  C   LIG    1       -3.088  13.145  -6.473  0.00  0.00    +0.140 A 
ATOM     12  N   LIG    1       -4.346  12.815  -6.144  0.00  0.00    -0.490 NA
ATOM     13  C   LIG    1       -4.361  12.329  -4.933  0.00  0.00    +0.380 A 
ENDBRANCH   7   9
BRANCH   2  14
ATOM     14  C   LIG    1       -1.611   8.503   0.062  0.00  0.00    +0.410 C 
BRANCH  14  15
ATOM     15  N   LIG    1       -0.738   7.326   0.048  0.00  0.00    -0.130 N 
ATOM     16  N   LIG    1        0.549   7.354   0.037  0.00  0.00    -0.040 NA
ATOM     17  N   LIG    1        0.994   6.144   0.026  0.00  0.00    -0.270 NA
ATOM     18  C   LIG    1       -0.070   5.328   0.031  0.00  0.00    +0.220 A 
ATOM     19  N   LIG    1       -1.138   6.101   0.040  0.00  0.00    -0.290 NA
BRANCH  18  20
ATOM     20  C   LIG    1       -0.050   3.844   0.023  0.00  0.00    -0.020 A 
ATOM     21  C   LIG    1        1.164   3.161   0.008  0.00  0.00    +0.060 A 
ATOM     22  C   LIG    1        1.177   1.781   0.000  0.00  0.00    +0.010 A 
ATOM     23  C   LIG    1       -0.013   1.076   0.008  0.00  0.00    +0.030 A 
ATOM     24  C   LIG    1       -1.221   1.748   0.017  0.00  0.00    +0.010 A 
ATOM     25  C   LIG    1       -1.245   3.129   0.030  0.00  0.00    +0.050 A 
ENDBRANCH  18  20
ENDBRANCH  14  15
ENDBRANCH   2  14
TORSDOF 4
