REMARK  Name = ZINCpe00000VVGUa.0
REMARK                            x       y       z     vdW  Elec       q    Type
REMARK                         _______ _______ _______ _____ _____    ______ ____
ROOT
ATOM      1  N   LIG    1        0.331   6.903   1.821  0.00  0.00    -0.560 N 
ATOM      2  C   LIG    1        1.644   6.647   1.806  0.00  0.00    +0.710 C 
ATOM      3  N   LIG    1        2.002   5.861   0.775  0.00  0.00    -0.720 N 
ATOM      4  H   LIG    1        2.897   5.548   0.568  0.00  0.00    +0.440 HD
ATOM      5  C   LIG    1        0.771   5.565   0.023  0.00  0.00    +0.180 C 
ATOM      6  C   LIG    1        0.873   6.096  -1.408  0.00  0.00    +0.110 C 
ATOM      7  O   LIG    1        2.426   7.078   2.631  0.00  0.00    -0.520 OA
ATOM      8  C   LIG    1       -0.306   6.304   0.791  0.00  0.00    +0.540 C 
ATOM      9  O   LIG    1       -1.490   6.348   0.534  0.00  0.00    -0.460 OA
ENDROOT
BRANCH   5  10
ATOM     10  C   LIG    1        0.496   4.083   0.018  0.00  0.00    -0.090 A 
ATOM     11  C   LIG    1       -0.808   3.624   0.028  0.00  0.00    +0.050 A 
ATOM     12  C   LIG    1       -1.065   2.265   0.019  0.00  0.00    +0.050 A 
ATOM     13  C   LIG    1       -0.016   1.361   0.009  0.00  0.00    +0.040 A 
ATOM     14  O   LIG    1        0.002  -0.004   0.002  0.00  0.00    -0.310 OA
ATOM     15  C   LIG    1        1.336  -0.373   0.399  0.00  0.00    +0.440 C 
ATOM     16  O   LIG    1        2.139   0.749  -0.014  0.00  0.00    -0.310 OA
ATOM     17  C   LIG    1        1.297   1.824  -0.001  0.00  0.00    +0.030 A 
ATOM     18  C   LIG    1        1.548   3.186   0.004  0.00  0.00    +0.060 A 
ENDBRANCH   5  10
BRANCH   1  20
ATOM     19  C   LIG    1        0.257   9.143   2.800  0.00  0.00    +0.080 C 
ATOM     20  C   LIG    1       -0.334   7.732   2.829  0.00  0.00    +0.260 C 
BRANCH  20  21
ATOM     21  C   LIG    1       -0.125   7.128   4.194  0.00  0.00    +0.510 C 
ATOM     22  N   LIG    1       -0.650   7.724   5.283  0.00  0.00    -0.700 N 
ATOM     23  H   LIG    1       -1.164   8.542   5.188  0.00  0.00    +0.400 HD
ATOM     24  O   LIG    1        0.517   6.106   4.313  0.00  0.00    -0.510 OA
BRANCH  22  25
ATOM     25  C   LIG    1       -0.447   7.138   6.609  0.00  0.00    +0.220 C 
ATOM     26  C   LIG    1       -1.653   7.078   7.548  0.00  0.00    +0.010 C 
ATOM     27  C   LIG    1       -0.524   8.075   7.816  0.00  0.00    +0.020 C 
ENDBRANCH  22  25
ENDBRANCH  20  21
ENDBRANCH   1  20
TORSDOF 4
