REMARK  Name = ZINCrD000000CTVQ.0
REMARK                            x       y       z     vdW  Elec       q    Type
REMARK                         _______ _______ _______ _____ _____    ______ ____
ROOT
ATOM      1  N   LIG    1       -0.615   4.056   3.642  0.00  0.00    -0.740 N 
ATOM      2  H   LIG    1       -1.222   3.515   4.172  0.00  0.00    +0.400 HD
ENDROOT
BRANCH   1   7
ATOM      3  C   LIG    1       -2.067   7.404   4.107  0.00  0.00    +0.230 A 
ATOM      4  C   LIG    1       -1.195   8.173   3.347  0.00  0.00    -0.100 A 
ATOM      5  C   LIG    1       -0.137   7.574   2.689  0.00  0.00    +0.080 A 
ATOM      6  C   LIG    1        0.060   6.211   2.790  0.00  0.00    -0.100 A 
ATOM      7  C   LIG    1       -0.812   5.435   3.545  0.00  0.00    +0.240 A 
ATOM      8  C   LIG    1       -1.875   6.034   4.206  0.00  0.00    -0.080 A 
BRANCH   3  15
ATOM      9  O   LIG    1       -3.882   6.218   5.903  0.00  0.00    -0.570 OA
ATOM     10  C   LIG    1       -3.973   7.397   5.620  0.00  0.00    +0.700 C 
ATOM     11  N   LIG    1       -4.918   8.200   6.128  0.00  0.00    -0.740 N 
ATOM     12  H   LIG    1       -5.607   7.930   6.755  0.00  0.00    +0.430 HD
ATOM     13  C   LIG    1       -4.745   9.555   5.583  0.00  0.00    +0.270 C 
ATOM     14  C   LIG    1       -3.519   9.427   4.659  0.00  0.00    +0.270 C 
ATOM     15  N   LIG    1       -3.137   8.012   4.773  0.00  0.00    -0.570 N 
ENDBRANCH   3  15
ENDBRANCH   1   7
BRANCH   1  16
ATOM     16  C   LIG    1        0.507   3.425   2.943  0.00  0.00    +0.320 C 
BRANCH  16  17
ATOM     17  C   LIG    1        0.494   1.941   3.209  0.00  0.00    -0.110 A 
ATOM     18  C   LIG    1        1.044   1.442   4.375  0.00  0.00    +0.000 A 
ATOM     19  C   LIG    1        1.032   0.080   4.619  0.00  0.00    +0.010 A 
ATOM     20  C   LIG    1        0.472  -0.785   3.697  0.00  0.00    +0.070 A 
ATOM     21  C   LIG    1       -0.083  -0.292   2.533  0.00  0.00    -0.040 A 
ATOM     22 CL   LIG    1        1.749   2.525   5.534  0.00  0.00    -0.050 Cl
ATOM     23  C   LIG    1       -0.069   1.074   2.282  0.00  0.00    +0.140 A 
BRANCH  23  24
ATOM     24  N   LIG    1       -0.626   1.575   1.103  0.00  0.00    -0.490 N 
ATOM     25  C   LIG    1       -1.829   2.370   1.385  0.00  0.00    +0.170 C 
ATOM     26  C   LIG    1       -2.372   2.948   0.075  0.00  0.00    +0.220 C 
ATOM     27  O   LIG    1       -2.632   1.879  -0.840  0.00  0.00    -0.380 OA
ATOM     28  C   LIG    1       -1.481   1.085  -1.138  0.00  0.00    +0.220 C 
ATOM     29  C   LIG    1       -0.929   0.488   0.160  0.00  0.00    +0.160 C 
ENDBRANCH  23  24
ENDBRANCH  16  17
ENDBRANCH   1  16
TORSDOF 5
