REMARK  Name = ZINCqH00000o7KjJ.0
REMARK                            x       y       z     vdW  Elec       q    Type
REMARK                         _______ _______ _______ _____ _____    ______ ____
ROOT
ATOM      1  N   LIG    1        1.016   1.934   1.120  0.00  0.00    -0.670 N 
ATOM      2  H   LIG    1        1.877   1.488   1.090  0.00  0.00    +0.410 HD
ATOM      3  C   LIG    1       -0.098   1.273   0.747  0.00  0.00    +0.690 C 
ATOM      4  N   LIG    1       -0.031  -0.035   0.428  0.00  0.00    -0.620 N 
ATOM      5  C   LIG    1        1.265  -0.725   0.367  0.00  0.00    +0.270 C 
ATOM      6  C   LIG    1        1.402  -1.408  -0.992  0.00  0.00    +0.010 C 
ATOM      7  C   LIG    1        0.193  -2.317  -1.228  0.00  0.00    +0.020 C 
ATOM      8  C   LIG    1       -1.086  -1.477  -1.234  0.00  0.00    +0.040 C 
ATOM      9  C   LIG    1       -1.252  -0.796   0.128  0.00  0.00    +0.340 C 
ATOM     10  O   LIG    1       -1.163   1.858   0.693  0.00  0.00    -0.490 OA
ENDROOT
BRANCH   9  11
ATOM     11  C   LIG    1       -2.433   0.139   0.088  0.00  0.00    +0.070 A 
ATOM     12  N   LIG    1       -2.620   1.055  -0.801  0.00  0.00    -0.430 NA
ATOM     13  C   LIG    1       -3.712   1.785  -0.690  0.00  0.00    +0.080 A 
ATOM     14  C   LIG    1       -4.483   1.474   0.355  0.00  0.00    -0.230 A 
ATOM     15  C   LIG    1       -5.781   2.142   0.730  0.00  0.00    +0.140 C 
ATOM     16  C   LIG    1       -4.058   2.885  -1.661  0.00  0.00    +0.140 C 
ATOM     17  S   LIG    1       -3.715   0.144   1.219  0.00  0.00    +0.100 S 
ENDBRANCH   9  11
BRANCH   1  21
ATOM     18  C   LIG    1        0.738   5.838   2.378  0.00  0.00    -0.220 A 
ATOM     19  C   LIG    1        1.981   5.192   2.454  0.00  0.00    +0.170 A 
ATOM     20  C   LIG    1        2.068   3.891   2.034  0.00  0.00    -0.070 A 
ATOM     21  C   LIG    1        0.930   3.253   1.547  0.00  0.00    +0.420 A 
ATOM     22  N   LIG    1       -0.232   3.887   1.482  0.00  0.00    -0.480 NA
ATOM     23  C   LIG    1       -0.361   5.135   1.879  0.00  0.00    +0.370 A 
BRANCH  18  24
ATOM     24  C   LIG    1        0.594   7.238   2.818  0.00  0.00    +0.520 C 
ATOM     25  O   LIG    1        1.556   7.841   3.250  0.00  0.00    -0.510 OA
BRANCH  24  27
ATOM     26  C   LIG    1       -0.672   9.227   3.192  0.00  0.00    +0.260 C 
ATOM     27  O   LIG    1       -0.605   7.848   2.741  0.00  0.00    -0.360 OA
ENDBRANCH  24  27
ENDBRANCH  18  24
ENDBRANCH   1  21
TORSDOF 4
