REMARK  Name = ZINCpe000000WgVb.0
REMARK                            x       y       z     vdW  Elec       q    Type
REMARK                         _______ _______ _______ _____ _____    ______ ____
ROOT
ATOM      1  C   LIG    1       -0.014   1.200   0.032  0.00  0.00    +0.570 C 
ATOM      2  N   LIG    1       -1.188   1.861   0.028  0.00  0.00    -0.520 N 
ATOM      3  H   LIG    1       -1.200   2.831   0.022  0.00  0.00    +0.430 HD
ATOM      4  O   LIG    1       -0.000  -0.016   0.040  0.00  0.00    -0.520 OA
ENDROOT
BRANCH   1   7
ATOM      5  C   LIG    1        3.662   1.976   0.009  0.00  0.00    +0.150 A 
ATOM      6  C   LIG    1        2.474   1.269   0.019  0.00  0.00    -0.020 A 
ATOM      7  C   LIG    1        1.256   1.952   0.021  0.00  0.00    -0.060 A 
ATOM      8  C   LIG    1        1.242   3.349   0.006  0.00  0.00    -0.060 A 
ATOM      9  C   LIG    1        2.432   4.052   0.002  0.00  0.00    +0.150 A 
ATOM     10  C   LIG    1        3.645   3.368  -0.000  0.00  0.00    +0.060 A 
BRANCH   5  12
ATOM     11  C   LIG    1        4.792  -0.117   0.015  0.00  0.00    +0.250 C 
ATOM     12  O   LIG    1        4.849   1.311   0.006  0.00  0.00    -0.300 OA
ENDBRANCH   5  12
BRANCH   9  13
ATOM     13  O   LIG    1        2.419   5.412  -0.007  0.00  0.00    -0.300 OA
ATOM     14  C   LIG    1        1.139   6.048  -0.005  0.00  0.00    +0.250 C 
ENDBRANCH   9  13
BRANCH  10  15
ATOM     15  O   LIG    1        4.814   4.061  -0.011  0.00  0.00    -0.310 OA
ATOM     16  C   LIG    1        5.366   4.383  -1.289  0.00  0.00    +0.240 C 
ENDBRANCH  10  15
ENDBRANCH   1   7
BRANCH   2  17
ATOM     17  N   LIG    1       -2.394   1.147   0.033  0.00  0.00    -0.510 N 
ATOM     18  H   LIG    1       -2.383   0.177   0.039  0.00  0.00    +0.440 HD
ATOM     19  C   LIG    1       -3.569   1.807   0.029  0.00  0.00    +0.610 C 
ATOM     20  O   LIG    1       -3.584   3.021   0.116  0.00  0.00    -0.520 OA
BRANCH  19  21
ATOM     21  C   LIG    1       -4.829   1.063  -0.080  0.00  0.00    -0.090 A 
ATOM     22  C   LIG    1       -5.667   0.717   0.942  0.00  0.00    +0.080 A 
ATOM     23  N   LIG    1       -6.697   0.053   0.417  0.00  0.00    -0.490 NA
ATOM     24  C   LIG    1       -6.545  -0.043  -0.879  0.00  0.00    +0.440 A 
ATOM     25  C   LIG    1       -5.465   1.032   2.402  0.00  0.00    +0.150 C 
ATOM     26  N   LIG    1       -5.401   0.567  -1.236  0.00  0.00    -0.440 N 
ATOM     27  C   LIG    1       -4.863   0.685  -2.593  0.00  0.00    +0.350 C 
ENDBRANCH  19  21
ENDBRANCH   2  17
TORSDOF 6
