REMARK  Name = ZINCb80000002rsh.1
REMARK                            x       y       z     vdW  Elec       q    Type
REMARK                         _______ _______ _______ _____ _____    ______ ____
ROOT
ATOM      1  C   LIG    1       -0.875   3.029  -1.024  0.00  0.00    +0.200 A 
ATOM      2  N   LIG    1        0.111   3.840  -0.752  0.00  0.00    -0.280 NA
ATOM      3  N   LIG    1       -0.314   5.053  -0.754  0.00  0.00    -0.280 NA
ATOM      4  C   LIG    1       -1.594   5.070  -1.018  0.00  0.00    +0.160 A 
ATOM      5  C   LIG    1       -2.776   5.999  -1.188  0.00  0.00    +0.160 C 
ATOM      6  C   LIG    1       -4.008   5.072  -1.080  0.00  0.00    +0.070 C 
ATOM      7  C   LIG    1       -3.417   3.710  -1.507  0.00  0.00    +0.300 C 
ATOM      8  N   LIG    1       -1.984   3.788  -1.198  0.00  0.00    -0.490 N 
ENDROOT
BRANCH   1  10
ATOM      9  C   LIG    1       -0.120   1.135  -2.436  0.00  0.00    +0.020 C 
ATOM     10  C   LIG    1       -0.795   1.527  -1.120  0.00  0.00    +0.270 C 
BRANCH  10  11
ATOM     11  N   LIG    1       -0.012   1.005   0.008  0.00  0.00    -0.840 NA
ATOM     12  H   LIG    1        0.925   1.379   0.001  0.00  0.00    +0.360 HD
ATOM     13  H   LIG    1        0.002  -0.004   0.002  0.00  0.00    +0.350 HD
ENDBRANCH  10  11
ENDBRANCH   1  10
TORSDOF 2
