REMARK  Name = ZINCqH0000050E8P.2
REMARK                            x       y       z     vdW  Elec       q    Type
REMARK                         _______ _______ _______ _____ _____    ______ ____
ROOT
ATOM      1  C   LIG    1        3.454  -1.761  -0.040  0.00  0.00    +0.230 C 
ENDROOT
BRANCH   1   2
ATOM      2  C   LIG    1        1.959  -1.572  -0.025  0.00  0.00    +0.550 C 
ATOM      3  N   LIG    1        1.437  -0.330  -0.013  0.00  0.00    -0.470 N 
ATOM      4  C   LIG    1        0.002  -0.004   0.002  0.00  0.00    +0.260 C 
ATOM      5  C   LIG    1       -0.019   1.537   0.011  0.00  0.00    +0.090 C 
ATOM      6  C   LIG    1        1.444   1.921  -0.001  0.00  0.00    +0.140 C 
ATOM      7  N   LIG    1        2.168   0.857  -0.014  0.00  0.00    -0.240 NA
ATOM      8  O   LIG    1        1.226  -2.538  -0.023  0.00  0.00    -0.500 OA
BRANCH   6   9
ATOM      9  C   LIG    1        1.961   3.303   0.000  0.00  0.00    -0.040 A 
ATOM     10  C   LIG    1        1.075   4.383   0.008  0.00  0.00    +0.040 A 
ATOM     11  C   LIG    1        1.566   5.672   0.014  0.00  0.00    +0.010 A 
ATOM     12  C   LIG    1        2.932   5.896   0.002  0.00  0.00    +0.030 A 
ATOM     13  C   LIG    1        3.814   4.831  -0.010  0.00  0.00    +0.010 A 
ATOM     14  C   LIG    1        3.338   3.536  -0.011  0.00  0.00    +0.050 A 
ENDBRANCH   6   9
ENDBRANCH   1   2
BRANCH   1  19
ATOM     15  C   LIG    1        5.206  -3.428   0.191  0.00  0.00    +0.180 C 
ATOM     16  C   LIG    1        5.552  -4.683  -0.649  0.00  0.00    +0.040 C 
ATOM     17  C   LIG    1        4.677  -4.465  -1.912  0.00  0.00    +0.010 C 
ATOM     18  C   LIG    1        3.403  -3.807  -1.343  0.00  0.00    +0.190 C 
ATOM     19  N   LIG    1        3.766  -3.197  -0.051  0.00  0.00    -0.510 NA
BRANCH  15  26
ATOM     20  C   LIG    1        7.802  -2.875   1.333  0.00  0.00    +0.090 C 
ATOM     21  C   LIG    1        6.699  -3.425   2.200  0.00  0.00    -0.080 A 
ATOM     22  C   LIG    1        6.929  -3.665   3.541  0.00  0.00    +0.000 A 
ATOM     23  C   LIG    1        5.918  -4.170   4.337  0.00  0.00    +0.000 A 
ATOM     24  C   LIG    1        4.676  -4.434   3.791  0.00  0.00    -0.010 A 
ATOM     25  C   LIG    1        4.444  -4.189   2.450  0.00  0.00    +0.050 A 
ATOM     26  C   LIG    1        5.457  -3.690   1.653  0.00  0.00    -0.080 A 
ENDBRANCH  15  26
ENDBRANCH   1  19
TORSDOF 4
