REMARK  Name = ZINCpk00000xIkIg.0
REMARK                            x       y       z     vdW  Elec       q    Type
REMARK                         _______ _______ _______ _____ _____    ______ ____
ROOT
ATOM      1  C   LIG    1       -0.136   7.997  -3.013  0.00  0.00    +0.270 C 
ENDROOT
BRANCH   1   3
ATOM      2  O   LIG    1       -0.156  10.157  -2.063  0.00  0.00    -0.440 OA
ATOM      3  C   LIG    1       -0.157   9.502  -3.083  0.00  0.00    +0.520 C 
ATOM      4  N   LIG    1       -0.176  10.121  -4.281  0.00  0.00    -0.690 N 
ATOM      5  H   LIG    1       -0.177   9.597  -5.097  0.00  0.00    +0.410 HD
ATOM      6  C   LIG    1       -0.195  11.467  -4.344  0.00  0.00    +0.700 C 
ATOM      7  N   LIG    1       -0.215  12.085  -5.541  0.00  0.00    -0.730 N 
ATOM      8  H   LIG    1       -0.216  11.561  -6.357  0.00  0.00    +0.400 HD
ATOM      9  O   LIG    1       -0.195  12.123  -3.321  0.00  0.00    -0.520 OA
BRANCH   7  10
ATOM     10  C   LIG    1       -0.236  13.548  -5.610  0.00  0.00    +0.250 C 
ATOM     11  C   LIG    1       -1.690  14.060  -5.547  0.00  0.00    +0.000 C 
ATOM     12  C   LIG    1       -1.707  15.271  -6.514  0.00  0.00    +0.010 C 
ATOM     13  C   LIG    1       -0.784  14.803  -7.666  0.00  0.00    +0.010 C 
ATOM     14  C   LIG    1        0.340  14.021  -6.956  0.00  0.00    +0.020 C 
ENDBRANCH   7  10
ENDBRANCH   1   3
BRANCH   1  15
ATOM     15  O   LIG    1       -0.117   7.578  -1.623  0.00  0.00    -0.330 OA
BRANCH  15  16
ATOM     16  C   LIG    1       -0.096   6.257  -1.385  0.00  0.00    +0.470 C 
ATOM     17  O   LIG    1       -0.095   5.477  -2.307  0.00  0.00    -0.490 OA
BRANCH  16  18
ATOM     18  C   LIG    1       -0.076   5.747   0.033  0.00  0.00    +0.180 C 
BRANCH  18  19
ATOM     19  C   LIG    1       -0.056   4.240   0.025  0.00  0.00    -0.030 A 
ATOM     20  C   LIG    1        1.151   3.566   0.010  0.00  0.00    +0.050 A 
ATOM     21  C   LIG    1        1.170   2.183   0.003  0.00  0.00    +0.110 A 
ATOM     22  C   LIG    1       -0.018   1.476   0.010  0.00  0.00    -0.040 A 
ATOM     23  C   LIG    1       -1.224   2.151   0.019  0.00  0.00    +0.110 A 
ATOM     24  C   LIG    1       -1.243   3.533   0.032  0.00  0.00    +0.050 A 
BRANCH  22  25
ATOM     25  N   LIG    1        0.002  -0.004   0.002  0.00  0.00    +0.030 N 
ATOM     26  O   LIG    1       -1.044  -0.627   0.009  0.00  0.00    -0.160 OA
ATOM     27  O   LIG    1        1.065  -0.599  -0.011  0.00  0.00    -0.160 OA
ENDBRANCH  22  25
ENDBRANCH  18  19
ENDBRANCH  16  18
ENDBRANCH  15  16
ENDBRANCH   1  15
TORSDOF 7
