REMARK  Name = ZINCvU0000000Jml.0
REMARK                            x       y       z     vdW  Elec       q    Type
REMARK                         _______ _______ _______ _____ _____    ______ ____
ROOT
ATOM      1  C   LIG    1       -4.184   3.038  -0.336  0.00  0.00    +0.210 A 
ATOM      2  N   LIG    1       -3.118   3.794  -0.511  0.00  0.00    -0.460 NA
ATOM      3  C   LIG    1       -1.886   3.284  -0.585  0.00  0.00    +0.140 A 
ATOM      4  C   LIG    1       -0.769   4.113  -0.791  0.00  0.00    +0.050 A 
ATOM      5  C   LIG    1        0.475   3.565  -0.862  0.00  0.00    +0.040 A 
ATOM      6  C   LIG    1        0.664   2.192  -0.733  0.00  0.00    +0.020 A 
ATOM      7  C   LIG    1       -0.397   1.357  -0.531  0.00  0.00    +0.040 A 
ATOM      8  C   LIG    1       -1.688   1.887  -0.460  0.00  0.00    -0.080 A 
ATOM      9  C   LIG    1       -2.857   1.029  -0.251  0.00  0.00    +0.050 A 
ATOM     10  C   LIG    1       -4.102   1.649  -0.194  0.00  0.00    +0.000 A 
ENDROOT
BRANCH   1  15
ATOM     11  C   LIG    1       -9.361   5.550  -0.095  0.00  0.00    +0.090 C 
ATOM     12  C   LIG    1       -8.006   4.892  -0.158  0.00  0.00    -0.070 A 
ATOM     13  C   LIG    1       -6.875   5.663  -0.353  0.00  0.00    +0.000 A 
ATOM     14  C   LIG    1       -5.631   5.067  -0.412  0.00  0.00    +0.070 A 
ATOM     15  C   LIG    1       -5.518   3.684  -0.274  0.00  0.00    -0.070 A 
ATOM     16  C   LIG    1       -6.662   2.912  -0.083  0.00  0.00    +0.030 A 
ATOM     17  C   LIG    1       -7.899   3.520  -0.020  0.00  0.00    +0.010 A 
ENDBRANCH   1  15
BRANCH   9  18
ATOM     18  C   LIG    1       -2.721  -0.431  -0.107  0.00  0.00    +0.220 A 
ATOM     19  N   LIG    1       -2.014  -1.230  -0.876  0.00  0.00    -0.250 NA
ATOM     20  N   LIG    1       -2.119  -2.442  -0.463  0.00  0.00    -0.290 NA
ATOM     21  C   LIG    1       -2.900  -2.493   0.595  0.00  0.00    +0.160 A 
ATOM     22  N   LIG    1       -3.304  -1.217   0.862  0.00  0.00    -0.450 N 
ATOM     23  C   LIG    1       -4.180  -0.775   1.950  0.00  0.00    +0.360 C 
BRANCH  21  24
ATOM     24  S   LIG    1       -3.336  -3.938   1.504  0.00  0.00    +0.020 S 
BRANCH  24  25
ATOM     25  C   LIG    1       -2.426  -5.187   0.563  0.00  0.00    +0.160 C 
BRANCH  25  26
ATOM     26  C   LIG    1       -2.656  -6.545   1.176  0.00  0.00    -0.140 A 
ATOM     27  C   LIG    1       -1.810  -7.021   2.165  0.00  0.00    +0.090 A 
ATOM     28  C   LIG    1       -2.063  -8.273   2.705  0.00  0.00    -0.030 A 
ATOM     29  C   LIG    1       -3.136  -9.004   2.233  0.00  0.00    +0.270 A 
ATOM     30  N   LIG    1       -3.917  -8.522   1.286  0.00  0.00    -0.480 NA
ATOM     31  C   LIG    1       -3.710  -7.333   0.755  0.00  0.00    +0.280 A 
ENDBRANCH  25  26
ENDBRANCH  24  25
ENDBRANCH  21  24
ENDBRANCH   9  18
TORSDOF 5
