REMARK  Name = ZINCpe00000bA4Zi.0
REMARK                            x       y       z     vdW  Elec       q    Type
REMARK                         _______ _______ _______ _____ _____    ______ ____
ROOT
ATOM      1  C   LIG    1        1.632   7.157  -0.425  0.00  0.00    +0.250 C 
ATOM      2  C   LIG    1        1.057   8.487   0.096  0.00  0.00    +0.300 C 
ATOM      3  N   LIG    1        1.422   9.044  -1.221  0.00  0.00    -0.630 N 
ATOM      4  C   LIG    1        1.705  10.280  -1.679  0.00  0.00    +0.630 C 
ATOM      5  O   LIG    1        1.981  10.446  -2.850  0.00  0.00    -0.510 OA
ATOM      6  C   LIG    1        1.354   7.704  -1.837  0.00  0.00    +0.280 C 
ENDROOT
BRANCH   4   7
ATOM      7  C   LIG    1        1.680  11.437  -0.751  0.00  0.00    -0.010 A 
ATOM      8  N   LIG    1        1.396  11.420   0.533  0.00  0.00    -0.330 NA
ATOM      9  O   LIG    1        1.465  12.531   1.019  0.00  0.00    +0.130 OA
ATOM     10  C   LIG    1        1.797  13.444   0.108  0.00  0.00    -0.030 A 
ATOM     11  C   LIG    1        1.991  14.930   0.265  0.00  0.00    +0.160 C 
ATOM     12  C   LIG    1        2.764  15.446  -0.956  0.00  0.00    +0.030 C 
ATOM     13  C   LIG    1        2.100  14.941  -2.240  0.00  0.00    +0.030 C 
ATOM     14  C   LIG    1        2.320  13.427  -2.369  0.00  0.00    +0.120 C 
ATOM     15  C   LIG    1        1.948  12.785  -1.065  0.00  0.00    -0.150 A 
ENDBRANCH   4   7
BRANCH   1  17
ATOM     16  C   LIG    1        1.420   4.820   0.232  0.00  0.00    +0.610 C 
ATOM     17  N   LIG    1        0.821   5.987  -0.076  0.00  0.00    -0.600 N 
ATOM     18  C   LIG    1       -0.640   6.087  -0.061  0.00  0.00    +0.300 C 
ATOM     19  O   LIG    1        2.633   4.753   0.280  0.00  0.00    -0.540 OA
BRANCH  16  24
ATOM     20  C   LIG    1        0.013   0.131   1.194  0.00  0.00    +0.330 C 
ATOM     21  N   LIG    1       -0.008   1.572   0.930  0.00  0.00    -0.460 N 
ATOM     22  C   LIG    1       -1.114   2.357   0.858  0.00  0.00    +0.400 A 
ATOM     23  N   LIG    1       -0.749   3.582   0.613  0.00  0.00    -0.460 NA
ATOM     24  C   LIG    1        0.605   3.624   0.510  0.00  0.00    -0.070 A 
ATOM     25  C   LIG    1        1.072   2.358   0.710  0.00  0.00    +0.230 A 
ENDBRANCH  16  24
ENDBRANCH   1  17
TORSDOF 3
