REMARK  Name = ZINCpk00000y6u1O.0
REMARK                            x       y       z     vdW  Elec       q    Type
REMARK                         _______ _______ _______ _____ _____    ______ ____
ROOT
ATOM      1  N   LIG    1       -2.466   3.676   0.044  0.00  0.00    -0.570 N 
ATOM      2  C   LIG    1       -2.533   5.139   0.163  0.00  0.00    +0.290 C 
ATOM      3  C   LIG    1       -3.452   5.497   1.335  0.00  0.00    +0.020 C 
ATOM      4  C   LIG    1       -4.810   4.819   1.139  0.00  0.00    +0.010 C 
ATOM      5  C   LIG    1       -4.625   3.300   1.117  0.00  0.00    +0.230 C 
ATOM      6  C   LIG    1       -3.720   2.918  -0.064  0.00  0.00    +0.300 C 
ENDROOT
BRANCH   1  12
ATOM      7  C   LIG    1        2.454   3.832  -0.110  0.00  0.00    +0.320 C 
ATOM      8  N   LIG    1        1.179   3.111  -0.047  0.00  0.00    -0.480 N 
ATOM      9  C   LIG    1        1.157   1.749   0.000  0.00  0.00    +0.160 A 
ATOM     10  C   LIG    1       -0.011   1.077   0.059  0.00  0.00    +0.190 A 
ATOM     11  N   LIG    1       -1.185   1.709   0.068  0.00  0.00    -0.510 NA
ATOM     12  C   LIG    1       -1.240   3.023   0.029  0.00  0.00    +0.350 A 
ATOM     13  C   LIG    1        0.010   3.789  -0.035  0.00  0.00    +0.480 A 
ATOM     14  O   LIG    1       -0.006   5.008  -0.076  0.00  0.00    -0.520 OA
ENDBRANCH   1  12
BRANCH   5  15
ATOM     15  N   LIG    1       -5.930   2.651   0.960  0.00  0.00    -0.720 N 
ATOM     16  H   LIG    1       -6.241   2.394   0.078  0.00  0.00    +0.400 HD
ATOM     17  C   LIG    1       -6.697   2.412   2.042  0.00  0.00    +0.560 C 
ATOM     18  O   LIG    1       -6.307   2.734   3.147  0.00  0.00    -0.510 OA
BRANCH  17  19
ATOM     19  C   LIG    1       -8.012   1.758   1.884  0.00  0.00    -0.150 A 
ATOM     20  C   LIG    1       -8.463   1.386   0.616  0.00  0.00    +0.070 A 
ATOM     21  C   LIG    1       -9.691   0.776   0.474  0.00  0.00    +0.040 A 
ATOM     22  C   LIG    1      -10.480   0.530   1.585  0.00  0.00    +0.050 A 
ATOM     23  C   LIG    1      -10.043   0.895   2.846  0.00  0.00    +0.060 A 
ATOM     24  F   LIG    1      -10.818   0.651   3.926  0.00  0.00    -0.120 F 
ATOM     25  C   LIG    1       -8.808   1.503   3.005  0.00  0.00    +0.130 A 
ATOM     26  F   LIG    1       -8.378   1.853   4.236  0.00  0.00    -0.100 F 
ENDBRANCH  17  19
ENDBRANCH   5  15
TORSDOF 3
