REMARK  Name = ZINCrH000004lC6E.0
REMARK                            x       y       z     vdW  Elec       q    Type
REMARK                         _______ _______ _______ _____ _____    ______ ____
ROOT
ATOM      1  N   LIG    1       -3.461  -0.154  -3.280  0.00  0.00    -0.630 N 
ATOM      2  H   LIG    1       -2.870   0.363  -3.849  0.00  0.00    +0.420 HD
ATOM      3  C   LIG    1       -3.062  -0.510  -2.042  0.00  0.00    +0.710 C 
ATOM      4  N   LIG    1       -1.843  -0.149  -1.597  0.00  0.00    -0.720 N 
ATOM      5  H   LIG    1       -1.252   0.368  -2.167  0.00  0.00    +0.410 HD
ATOM      6  O   LIG    1       -3.803  -1.157  -1.328  0.00  0.00    -0.550 OA
ENDROOT
BRANCH   1  10
ATOM      7  C   LIG    1       -7.163  -0.486  -6.391  0.00  0.00    -0.050 A 
ATOM      8  C   LIG    1       -6.428  -0.669  -5.201  0.00  0.00    +0.110 A 
ATOM      9  N   LIG    1       -5.188  -0.236  -4.899  0.00  0.00    -0.520 NA
ATOM     10  C   LIG    1       -4.714  -0.525  -3.737  0.00  0.00    +0.340 A 
ATOM     11  S   LIG    1       -5.881  -1.464  -2.817  0.00  0.00    +0.190 S 
ATOM     12  C   LIG    1       -7.020  -1.390  -4.159  0.00  0.00    -0.220 A 
ATOM     13  C   LIG    1       -8.303  -1.912  -4.303  0.00  0.00    +0.060 A 
ATOM     14  C   LIG    1       -9.001  -1.720  -5.475  0.00  0.00    +0.030 A 
ATOM     15  C   LIG    1       -8.426  -1.006  -6.516  0.00  0.00    +0.060 A 
BRANCH   7  16
ATOM     16  C   LIG    1       -6.556   0.287  -7.534  0.00  0.00    +0.250 C 
BRANCH  16  18
ATOM     17  C   LIG    1       -7.002   1.052  -9.761  0.00  0.00    +0.200 C 
ATOM     18  O   LIG    1       -7.482   0.337  -8.621  0.00  0.00    -0.390 OA
ENDBRANCH  16  18
ENDBRANCH   7  16
ENDBRANCH   1  10
BRANCH   4  19
ATOM     19  C   LIG    1       -1.410  -0.536  -0.252  0.00  0.00    +0.320 C 
BRANCH  19  20
ATOM     20  C   LIG    1        0.002  -0.004   0.002  0.00  0.00    +0.150 C 
ATOM     21  C   LIG    1        0.502  -0.490   1.364  0.00  0.00    +0.070 C 
ATOM     22  C   LIG    1        1.766   0.243   1.734  0.00  0.00    -0.070 A 
ATOM     23  C   LIG    1        2.570  -0.279   2.734  0.00  0.00    +0.010 A 
ATOM     24  C   LIG    1        3.733   0.369   3.102  0.00  0.00    +0.020 A 
ATOM     25  C   LIG    1        4.096   1.544   2.469  0.00  0.00    +0.010 A 
ATOM     26  C   LIG    1        3.295   2.063   1.471  0.00  0.00    +0.010 A 
ATOM     27  C   LIG    1        2.129   1.413   1.100  0.00  0.00    -0.120 A 
ATOM     28  C   LIG    1        1.287   2.006   0.001  0.00  0.00    +0.280 C 
ATOM     29  O   LIG    1       -0.017   1.428   0.010  0.00  0.00    -0.370 OA
ENDBRANCH  19  20
ENDBRANCH   4  19
TORSDOF 5
