REMARK  Name = ZINCrD00000l2SpG.0
REMARK                            x       y       z     vdW  Elec       q    Type
REMARK                         _______ _______ _______ _____ _____    ______ ____
ROOT
ATOM      1  C   LIG    1        0.157  10.856  -2.964  0.00  0.00    +0.170 C 
ATOM      2  C   LIG    1       -1.133  11.354  -3.668  0.00  0.00    +0.090 C 
ATOM      3  C   LIG    1       -2.255  10.669  -2.859  0.00  0.00    +0.390 C 
ATOM      4  N   LIG    1       -1.662   9.498  -2.196  0.00  0.00    -0.630 N 
ATOM      5  C   LIG    1       -2.312   8.647  -1.378  0.00  0.00    +0.730 C 
ATOM      6  N   LIG    1       -1.655   7.606  -0.830  0.00  0.00    -0.740 N 
ATOM      7  H   LIG    1       -0.714   7.469  -1.024  0.00  0.00    +0.400 HD
ATOM      8  O   LIG    1       -3.491   8.818  -1.134  0.00  0.00    -0.570 OA
ATOM      9  C   LIG    1       -0.239   9.413  -2.570  0.00  0.00    +0.250 C 
ENDROOT
BRANCH   3  10
ATOM     10  C   LIG    1       -2.800  11.621  -1.825  0.00  0.00    +0.180 A 
ATOM     11  N   LIG    1       -3.949  12.252  -1.874  0.00  0.00    -0.470 NA
ATOM     12  C   LIG    1       -4.009  12.982  -0.746  0.00  0.00    +0.170 A 
ATOM     13  N   LIG    1       -2.911  12.767  -0.084  0.00  0.00    -0.380 NA
ATOM     14  C   LIG    1       -5.140  13.886  -0.327  0.00  0.00    +0.210 C 
ATOM     15  O   LIG    1       -2.203  11.989  -0.688  0.00  0.00    +0.080 OA
ENDBRANCH   3  10
BRANCH   1  17
ATOM     16  C   LIG    1        2.528  11.082  -3.234  0.00  0.00    +0.220 C 
ATOM     17  O   LIG    1        1.266  10.858  -3.866  0.00  0.00    -0.370 OA
ENDBRANCH   1  17
BRANCH   6  18
ATOM     18  C   LIG    1       -2.360   6.680   0.060  0.00  0.00    +0.360 C 
ATOM     19  C   LIG    1       -2.360   7.241   1.484  0.00  0.00    +0.040 C 
BRANCH  18  20
ATOM     20  C   LIG    1       -1.666   5.343   0.047  0.00  0.00    +0.020 A 
ATOM     21  C   LIG    1       -2.288   4.156   0.046  0.00  0.00    -0.020 A 
ATOM     22  C   LIG    1       -1.229   3.139   0.031  0.00  0.00    -0.130 A 
ATOM     23  C   LIG    1       -1.216   1.745   0.017  0.00  0.00    +0.060 A 
ATOM     24  C   LIG    1       -0.013   1.076   0.008  0.00  0.00    +0.000 A 
ATOM     25  C   LIG    1        1.181   1.783   0.000  0.00  0.00    +0.050 A 
ATOM     26  C   LIG    1        1.182   3.161   0.008  0.00  0.00    +0.020 A 
ATOM     27  C   LIG    1       -0.020   3.856   0.023  0.00  0.00    +0.060 A 
ATOM     28  O   LIG    1       -0.333   5.168   0.033  0.00  0.00    -0.190 OA
ENDBRANCH  18  20
ENDBRANCH   6  18
TORSDOF 4
