REMARK  Name = ZINCpk00000KfLhX.0
REMARK                            x       y       z     vdW  Elec       q    Type
REMARK                         _______ _______ _______ _____ _____    ______ ____
ROOT
ATOM      1  C   LIG    1        7.794   0.643   1.272  0.00  0.00    +0.030 C 
ATOM      2  C   LIG    1        7.098  -0.570   1.894  0.00  0.00    +0.020 C 
ATOM      3  C   LIG    1        5.662  -0.191   2.264  0.00  0.00    +0.040 C 
ATOM      4  C   LIG    1        4.930   0.299   1.013  0.00  0.00    +0.160 C 
ATOM      5  N   LIG    1        5.634   1.461   0.456  0.00  0.00    -0.530 NA
ATOM      6  C   LIG    1        7.001   1.109   0.049  0.00  0.00    +0.190 C 
ENDROOT
BRANCH   1  11
ATOM      7  N   LIG    1       10.329  -1.531   1.725  0.00  0.00    -0.580 N 
ATOM      8  C   LIG    1        9.857  -1.887   0.525  0.00  0.00    +0.700 C 
ATOM      9  N   LIG    1        9.178  -0.891  -0.080  0.00  0.00    -0.720 N 
ATOM     10  H   LIG    1        8.751  -0.922  -0.950  0.00  0.00    +0.440 HD
ATOM     11  C   LIG    1        9.211   0.256   0.844  0.00  0.00    +0.130 C 
ATOM     12  C   LIG    1        9.921   1.447   0.198  0.00  0.00    +0.090 C 
ATOM     13  O   LIG    1       10.022  -2.987   0.033  0.00  0.00    -0.540 OA
ATOM     14  C   LIG    1       10.004  -0.259   2.029  0.00  0.00    +0.530 C 
ATOM     15  O   LIG    1       10.288   0.348   3.039  0.00  0.00    -0.460 OA
BRANCH   7  17
ATOM     16  C   LIG    1       10.152  -3.181   3.521  0.00  0.00    +0.030 C 
ATOM     17  C   LIG    1       11.104  -2.414   2.600  0.00  0.00    +0.310 C 
ENDBRANCH   7  17
ENDBRANCH   1  11
BRANCH   5  18
ATOM     18  C   LIG    1        4.885   2.043  -0.666  0.00  0.00    +0.350 C 
BRANCH  18  19
ATOM     19  C   LIG    1        3.430   2.163  -0.289  0.00  0.00    +0.160 A 
ATOM     20  N   LIG    1        2.865   3.187   0.284  0.00  0.00    -0.260 NA
ATOM     21  N   LIG    1        1.612   2.945   0.451  0.00  0.00    -0.290 NA
ATOM     22  C   LIG    1        1.338   1.754  -0.001  0.00  0.00    +0.200 A 
ATOM     23  O   LIG    1        2.479   1.234  -0.483  0.00  0.00    -0.220 OA
BRANCH  22  24
ATOM     24  C   LIG    1       -0.013   1.086   0.008  0.00  0.00    +0.050 C 
ATOM     25  C   LIG    1       -1.136   1.773   0.788  0.00  0.00    +0.080 C 
ATOM     26  C   LIG    1       -1.150   1.781  -0.743  0.00  0.00    +0.060 C 
ENDBRANCH  22  24
ENDBRANCH  18  19
ENDBRANCH   5  18
TORSDOF 5
