REMARK  Name = ZINCkj000005gZmv.0
REMARK                            x       y       z     vdW  Elec       q    Type
REMARK                         _______ _______ _______ _____ _____    ______ ____
ROOT
ATOM      1  N   LIG    1        2.570  -0.250   1.810  0.00  0.00    -0.470 N 
ATOM      2  C   LIG    1        2.652  -0.908   0.619  0.00  0.00    +0.510 A 
ATOM      3  N   LIG    1        2.252  -2.138   0.763  0.00  0.00    -0.470 NA
ATOM      4  C   LIG    1        1.889  -2.347   2.051  0.00  0.00    -0.050 A 
ATOM      5  C   LIG    1        1.395  -3.446   2.773  0.00  0.00    +0.400 A 
ATOM      6  N   LIG    1        1.140  -3.291   4.068  0.00  0.00    -0.560 NA
ATOM      7  C   LIG    1        1.343  -2.134   4.671  0.00  0.00    +0.550 A 
ATOM      8  N   LIG    1        1.806  -1.078   4.036  0.00  0.00    -0.520 NA
ATOM      9  C   LIG    1        2.095  -1.139   2.740  0.00  0.00    +0.290 A 
ENDROOT
BRANCH   5  10
ATOM     10  N   LIG    1        1.177  -4.663   2.150  0.00  0.00    -0.440 N 
ATOM     11  C   LIG    1        0.144  -4.540   1.090  0.00  0.00    +0.240 C 
ATOM     12  C   LIG    1       -0.335  -6.001   0.891  0.00  0.00    +0.070 C 
ATOM     13  C   LIG    1       -0.316  -6.569   2.329  0.00  0.00    +0.160 C 
ATOM     14  C   LIG    1        0.657  -5.663   3.107  0.00  0.00    +0.170 C 
ATOM     15  C   LIG    1        1.811  -6.494   3.671  0.00  0.00    +0.070 C 
BRANCH  13  16
ATOM     16  N   LIG    1        0.172  -7.955   2.323  0.00  0.00    -0.380 N 
ATOM     17  C   LIG    1        1.273  -8.082   1.358  0.00  0.00    +0.340 C 
ATOM     18  C   LIG    1       -0.921  -8.857   1.940  0.00  0.00    +0.320 C 
ATOM     19  H   LIG    1        0.503  -8.199   3.244  0.00  0.00    +0.430 HD
ENDBRANCH  13  16
ENDBRANCH   5  10
BRANCH   1  21
ATOM     20  C   LIG    1        4.368   1.223   2.572  0.00  0.00    +0.040 C 
ATOM     21  C   LIG    1        2.930   1.149   2.054  0.00  0.00    +0.310 C 
ENDBRANCH   1  21
TORSDOF 3
