REMARK  Name = ZINCrD0000072FOX.0
REMARK                            x       y       z     vdW  Elec       q    Type
REMARK                         _______ _______ _______ _____ _____    ______ ____
ROOT
ATOM      1  C   LIG    1       -2.526   4.085   0.036  0.00  0.00    +0.060 C 
ENDROOT
BRANCH   1   8
ATOM      2  C   LIG    1        1.281  -0.719  -0.014  0.00  0.00    +0.300 C 
ATOM      3  N   LIG    1        0.002  -0.004   0.002  0.00  0.00    -0.740 N 
ATOM      4  H   LIG    1       -0.831  -0.500   0.007  0.00  0.00    +0.400 HD
ATOM      5  C   LIG    1       -0.016   1.344   0.009  0.00  0.00    +0.690 C 
ATOM      6  N   LIG    1       -1.192   2.002   0.019  0.00  0.00    -0.680 N 
ATOM      7  H   LIG    1       -2.026   1.505   0.020  0.00  0.00    +0.410 HD
ATOM      8  C   LIG    1       -1.211   3.349   0.026  0.00  0.00    +0.550 C 
ATOM      9  O   LIG    1       -0.169   3.970   0.024  0.00  0.00    -0.440 OA
ATOM     10  O   LIG    1        1.028   1.966   0.003  0.00  0.00    -0.520 OA
ENDBRANCH   1   8
BRANCH   1  11
ATOM     11  C   LIG    1       -3.018   4.214   1.455  0.00  0.00    -0.110 A 
ATOM     12  C   LIG    1       -2.252   4.878   2.394  0.00  0.00    +0.040 A 
ATOM     13  C   LIG    1       -2.705   5.000   3.695  0.00  0.00    +0.010 A 
ATOM     14  C   LIG    1       -3.921   4.452   4.057  0.00  0.00    +0.030 A 
ATOM     15  C   LIG    1       -4.685   3.783   3.119  0.00  0.00    +0.010 A 
ATOM     16  C   LIG    1       -4.233   3.664   1.817  0.00  0.00    +0.060 A 
ENDBRANCH   1  11
BRANCH   1  17
ATOM     17  S   LIG    1       -2.301   5.733  -0.677  0.00  0.00    +0.160 S 
BRANCH  17  18
ATOM     18  C   LIG    1       -3.971   6.295  -0.682  0.00  0.00    +0.120 A 
ATOM     19  N   LIG    1       -5.019   5.622  -0.266  0.00  0.00    -0.270 NA
ATOM     20  N   LIG    1       -6.075   6.340  -0.413  0.00  0.00    -0.260 NA
ATOM     21  C   LIG    1       -5.747   7.496  -0.937  0.00  0.00    +0.220 A 
ATOM     22  O   LIG    1       -4.408   7.492  -1.117  0.00  0.00    -0.200 OA
BRANCH  21  23
ATOM     23  C   LIG    1       -6.671   8.600  -1.268  0.00  0.00    -0.040 A 
ATOM     24  C   LIG    1       -6.179   9.785  -1.820  0.00  0.00    +0.050 A 
ATOM     25  C   LIG    1       -7.048  10.809  -2.133  0.00  0.00    +0.010 A 
ATOM     26  C   LIG    1       -8.403  10.670  -1.890  0.00  0.00    -0.060 A 
ATOM     27  C   LIG    1       -8.896   9.501  -1.338  0.00  0.00    +0.020 A 
ATOM     28  C   LIG    1       -9.345  11.796  -2.228  0.00  0.00    +0.100 C 
ATOM     29  C   LIG    1       -8.039   8.466  -1.026  0.00  0.00    +0.080 A 
ENDBRANCH  21  23
ENDBRANCH  17  18
ENDBRANCH   1  17
TORSDOF 5
