REMARK  Name = ZINCqH0000004BJ2.0
REMARK                            x       y       z     vdW  Elec       q    Type
REMARK                         _______ _______ _______ _____ _____    ______ ____
ROOT
ATOM      1  C   LIG    1        1.108   1.591   3.711  0.00  0.00    +0.570 C 
ATOM      2  N   LIG    1        0.644   1.036   2.573  0.00  0.00    -0.610 N 
ATOM      3  C   LIG    1        0.147   1.881   1.478  0.00  0.00    +0.270 C 
ATOM      4  C   LIG    1       -1.282   1.445   1.133  0.00  0.00    +0.290 C 
ATOM      5  N   LIG    1       -1.300  -0.015   0.965  0.00  0.00    -0.600 N 
ATOM      6  C   LIG    1       -0.803  -0.860   2.060  0.00  0.00    +0.260 C 
ATOM      7  C   LIG    1       -1.764  -0.569  -0.173  0.00  0.00    +0.560 C 
ATOM      8  O   LIG    1       -2.251   0.134  -1.036  0.00  0.00    -0.500 OA
ATOM      9  C   LIG    1        0.626  -0.424   2.405  0.00  0.00    +0.290 C 
ATOM     10  O   LIG    1        1.586   0.887   4.579  0.00  0.00    -0.530 OA
ENDROOT
BRANCH   7  11
ATOM     11  C   LIG    1       -1.681  -2.032  -0.370  0.00  0.00    -0.080 A 
ATOM     12  C   LIG    1       -0.588  -2.745   0.125  0.00  0.00    +0.030 A 
ATOM     13  C   LIG    1       -0.519  -4.112  -0.059  0.00  0.00    +0.110 A 
ATOM     14  C   LIG    1       -1.527  -4.774  -0.741  0.00  0.00    +0.030 A 
ATOM     15  C   LIG    1       -2.610  -4.072  -1.238  0.00  0.00    +0.090 A 
ATOM     16  F   LIG    1        0.536  -4.805   0.423  0.00  0.00    -0.130 F 
ATOM     17  C   LIG    1       -2.693  -2.706  -1.057  0.00  0.00    -0.060 A 
ATOM     18 BR   LIG    1       -4.175  -1.748  -1.738  0.00  0.00    -0.010 Br
ENDBRANCH   7  11
BRANCH   1  22
ATOM     19  C   LIG    1        0.902   5.797   4.263  0.00  0.00    -0.060 A 
ATOM     20  C   LIG    1        0.592   4.949   5.311  0.00  0.00    +0.010 A 
ATOM     21  C   LIG    1        0.657   3.582   5.138  0.00  0.00    +0.070 A 
ATOM     22  C   LIG    1        1.036   3.055   3.902  0.00  0.00    -0.140 A 
ATOM     23  C   LIG    1        1.353   3.916   2.851  0.00  0.00    +0.040 A 
ATOM     24  C   LIG    1        1.279   5.281   3.035  0.00  0.00    +0.010 A 
BRANCH  19  26
ATOM     25  C   LIG    1        2.186   7.806   4.943  0.00  0.00    +0.030 C 
ATOM     26  C   LIG    1        0.830   7.290   4.459  0.00  0.00    +0.070 C 
ENDBRANCH  19  26
ENDBRANCH   1  22
TORSDOF 3
