REMARK  Name = ZINCpe00000FUcW9.0
REMARK                            x       y       z     vdW  Elec       q    Type
REMARK                         _______ _______ _______ _____ _____    ______ ____
ROOT
ATOM      1  N   LIG    1        0.009  -0.018  -0.002  0.00  0.00    -0.540 N 
ATOM      2  C   LIG    1       -0.003   1.440   0.001  0.00  0.00    +0.270 C 
ATOM      3  C   LIG    1        1.425   1.986  -0.011  0.00  0.00    +0.050 C 
ATOM      4  C   LIG    1        2.201   1.306  -1.145  0.00  0.00    +0.060 C 
ATOM      5  C   LIG    1        2.374  -0.174  -0.793  0.00  0.00    +0.270 C 
ATOM      6  C   LIG    1        1.055  -0.756  -0.374  0.00  0.00    +0.500 C 
ATOM      7  O   LIG    1        0.934  -1.963  -0.375  0.00  0.00    -0.510 OA
ENDROOT
BRANCH   1  12
ATOM      8  N   LIG    1       -1.399  -1.150   1.654  0.00  0.00    -0.360 N 
ATOM      9  N   LIG    1       -2.667  -1.744   1.641  0.00  0.00    -0.280 NA
ATOM     10  C   LIG    1       -3.156  -1.647   0.431  0.00  0.00    +0.240 A 
ATOM     11  C   LIG    1       -2.222  -0.982  -0.368  0.00  0.00    -0.100 A 
ATOM     12  C   LIG    1       -1.147  -0.682   0.410  0.00  0.00    +0.290 A 
BRANCH   8  14
ATOM     13  C   LIG    1       -0.884   0.179   3.641  0.00  0.00    +0.040 C 
ATOM     14  C   LIG    1       -0.506  -1.049   2.811  0.00  0.00    +0.320 C 
ENDBRANCH   8  14
ENDBRANCH   1  12
BRANCH   5  15
ATOM     15  N   LIG    1        2.876  -0.897  -1.964  0.00  0.00    -1.100 NA
ATOM     16  H   LIG    1        2.585  -0.641  -2.854  0.00  0.00    +0.420 HD
BRANCH  15  17
ATOM     17  S   LIG    1        3.939  -2.152  -1.770  0.00  0.00    +2.600 S 
ATOM     18  O   LIG    1        4.963  -1.618  -0.943  0.00  0.00    -0.960 OA
ATOM     19  O   LIG    1        4.217  -2.583  -3.095  0.00  0.00    -0.950 OA
BRANCH  17  20
ATOM     20  C   LIG    1        2.991  -3.413  -0.875  0.00  0.00    -0.310 C 
BRANCH  20  21
ATOM     21  C   LIG    1        3.876  -4.638  -0.632  0.00  0.00    +0.070 C 
BRANCH  21  22
ATOM     22  C   LIG    1        3.076  -5.702   0.122  0.00  0.00    +0.160 C 
ATOM     23  C   LIG    1        3.984  -6.897   0.489  0.00  0.00    +0.000 C 
ATOM     24  C   LIG    1        3.070  -8.131   0.316  0.00  0.00    +0.000 C 
ATOM     25  C   LIG    1        1.718  -7.535  -0.135  0.00  0.00    +0.190 C 
ATOM     26  O   LIG    1        2.055  -6.263  -0.731  0.00  0.00    -0.370 OA
ENDBRANCH  21  22
ENDBRANCH  20  21
ENDBRANCH  17  20
ENDBRANCH  15  17
ENDBRANCH   5  15
TORSDOF 7
