REMARK  Name = ZINCqH0000001rt2.0
REMARK                            x       y       z     vdW  Elec       q    Type
REMARK                         _______ _______ _______ _____ _____    ______ ____
ROOT
ATOM      1  C   LIG    1       -2.065  -1.942   9.448  0.00  0.00    +0.120 A 
ATOM      2  C   LIG    1       -1.475  -0.809   9.990  0.00  0.00    +0.050 A 
ATOM      3  C   LIG    1       -1.168   0.265   9.178  0.00  0.00    +0.000 A 
ATOM      4  C   LIG    1       -1.450   0.211   7.821  0.00  0.00    +0.130 A 
ATOM      5  C   LIG    1       -2.044  -0.919   7.279  0.00  0.00    -0.070 A 
ATOM      6  C   LIG    1       -2.346  -1.996   8.089  0.00  0.00    +0.070 A 
ENDROOT
BRANCH   1  10
ATOM      7  N   LIG    1       -3.970  -4.362  11.342  0.00  0.00    -0.740 N 
ATOM      8  H   LIG    1       -3.264  -4.814  11.831  0.00  0.00    +0.400 HD
ATOM      9  C   LIG    1       -3.663  -3.384  10.467  0.00  0.00    +0.710 C 
ATOM     10  N   LIG    1       -2.377  -3.033  10.272  0.00  0.00    -0.590 N 
ATOM     11  C   LIG    1       -1.304  -3.791  10.920  0.00  0.00    +0.290 C 
ATOM     12  O   LIG    1       -4.548  -2.817   9.854  0.00  0.00    -0.570 OA
BRANCH   7  14
ATOM     13  C   LIG    1       -5.433  -6.188  12.052  0.00  0.00    +0.040 C 
ATOM     14  C   LIG    1       -5.368  -4.743  11.554  0.00  0.00    +0.240 C 
ATOM     15  C   LIG    1       -5.997  -3.816  12.596  0.00  0.00    +0.030 C 
ENDBRANCH   7  14
ENDBRANCH   1  10
BRANCH   4  16
ATOM     16  O   LIG    1       -1.148   1.270   7.022  0.00  0.00    -0.310 OA
BRANCH  16  17
ATOM     17  C   LIG    1       -1.466   1.146   5.634  0.00  0.00    +0.190 C 
BRANCH  17  18
ATOM     18  C   LIG    1       -1.056   2.425   4.901  0.00  0.00    +0.100 C 
BRANCH  18  19
ATOM     19  C   LIG    1       -1.391   2.294   3.438  0.00  0.00    -0.120 A 
ATOM     20  C   LIG    1       -2.628   2.699   2.970  0.00  0.00    +0.050 A 
ATOM     21  C   LIG    1       -2.941   2.578   1.632  0.00  0.00    -0.010 A 
ATOM     22  C   LIG    1       -2.013   2.046   0.740  0.00  0.00    +0.110 A 
ATOM     23  O   LIG    1       -2.115   1.832  -0.601  0.00  0.00    -0.300 OA
ATOM     24  C   LIG    1       -0.798   1.682  -1.159  0.00  0.00    +0.240 C 
ATOM     25  C   LIG    1        0.019   1.132   0.034  0.00  0.00    +0.070 C 
ATOM     26  C   LIG    1       -0.771   1.650   1.221  0.00  0.00    -0.170 A 
ATOM     27  C   LIG    1       -0.462   1.769   2.557  0.00  0.00    +0.070 A 
ENDBRANCH  18  19
ENDBRANCH  17  18
ENDBRANCH  16  17
ENDBRANCH   4  16
TORSDOF 6
