REMARK  Name = ZINCtV000002LQL3.0
REMARK                            x       y       z     vdW  Elec       q    Type
REMARK                         _______ _______ _______ _____ _____    ______ ____
ROOT
ATOM      1  C   LIG    1        7.226  -3.714  -0.190  0.00  0.00    -0.110 A 
ATOM      2  C   LIG    1        7.769  -4.975  -0.438  0.00  0.00    +0.050 A 
ATOM      3  C   LIG    1        6.976  -6.099  -0.333  0.00  0.00    +0.040 A 
ATOM      4  C   LIG    1        5.642  -5.988   0.023  0.00  0.00    +0.050 A 
ATOM      5  C   LIG    1        5.087  -4.750   0.278  0.00  0.00    +0.060 A 
ATOM      6  C   LIG    1        5.871  -3.601   0.179  0.00  0.00    +0.040 A 
ENDROOT
BRANCH   6   7
ATOM      7  C   LIG    1        5.283  -2.276   0.451  0.00  0.00    +0.240 A 
ATOM      8  N   LIG    1        4.247  -1.757  -0.169  0.00  0.00    -0.460 NA
ATOM      9  C   LIG    1        3.997  -0.549   0.344  0.00  0.00    +0.170 A 
ATOM     10  C   LIG    1        4.923  -0.311   1.313  0.00  0.00    +0.010 A 
ATOM     11  O   LIG    1        5.720  -1.400   1.373  0.00  0.00    -0.160 OA
BRANCH  10  12
ATOM     12  C   LIG    1        5.032   0.904   2.145  0.00  0.00    -0.010 A 
ATOM     13  C   LIG    1        6.037   1.006   3.110  0.00  0.00    +0.030 A 
ATOM     14  C   LIG    1        6.133   2.144   3.884  0.00  0.00    +0.010 A 
ATOM     15  C   LIG    1        5.238   3.184   3.704  0.00  0.00    +0.020 A 
ATOM     16  C   LIG    1        4.240   3.090   2.750  0.00  0.00    +0.010 A 
ATOM     17  C   LIG    1        4.132   1.957   1.970  0.00  0.00    +0.030 A 
ENDBRANCH  10  12
ENDBRANCH   6   7
BRANCH   1  20
ATOM     18  N   LIG    1        9.391  -2.628  -0.535  0.00  0.00    -0.660 N 
ATOM     19  H   LIG    1        9.778  -3.503  -0.692  0.00  0.00    +0.410 HD
ATOM     20  C   LIG    1        8.068  -2.507  -0.306  0.00  0.00    +0.560 C 
ATOM     21  O   LIG    1        7.568  -1.405  -0.196  0.00  0.00    -0.500 OA
BRANCH  18  25
ATOM     22  C   LIG    1       11.819   0.764  -0.565  0.00  0.00    +0.230 A 
ATOM     23  C   LIG    1       12.308  -0.436  -0.063  0.00  0.00    -0.090 A 
ATOM     24  C   LIG    1       11.503  -1.560  -0.053  0.00  0.00    +0.060 A 
ATOM     25  C   LIG    1       10.206  -1.489  -0.544  0.00  0.00    +0.110 A 
ATOM     26  C   LIG    1        9.719  -0.291  -1.051  0.00  0.00    +0.100 A 
ATOM     27 CL   LIG    1       13.929  -0.525   0.551  0.00  0.00    -0.050 Cl
ATOM     28  C   LIG    1       10.521   0.834  -1.056  0.00  0.00    -0.090 A 
ATOM     29 CL   LIG    1        9.910   2.333  -1.682  0.00  0.00    -0.050 Cl
BRANCH  22  30
ATOM     30  N   LIG    1       12.634   1.902  -0.575  0.00  0.00    -0.860 N 
ATOM     31  H   LIG    1       12.293   2.740  -0.925  0.00  0.00    +0.410 HD
ATOM     32  H   LIG    1       13.540   1.853  -0.232  0.00  0.00    +0.410 HD
ENDBRANCH  22  30
ENDBRANCH  18  25
ENDBRANCH   1  20
TORSDOF 5
