REMARK  Name = ZINCpk00000y6yt4.0
REMARK                            x       y       z     vdW  Elec       q    Type
REMARK                         _______ _______ _______ _____ _____    ______ ____
ROOT
ATOM      1  C   LIG    1        0.183   9.349  -4.111  0.00  0.00    +0.040 C 
ATOM      2  C   LIG    1       -1.002   8.489  -4.558  0.00  0.00    +0.020 C 
ATOM      3  C   LIG    1       -1.760   7.990  -3.324  0.00  0.00    +0.270 C 
ATOM      4  N   LIG    1       -0.816   7.301  -2.435  0.00  0.00    -0.610 N 
ATOM      5  C   LIG    1        0.401   8.008  -2.012  0.00  0.00    +0.280 C 
ATOM      6  C   LIG    1       -1.063   6.046  -2.010  0.00  0.00    +0.500 C 
ATOM      7  O   LIG    1       -2.074   5.475  -2.363  0.00  0.00    -0.530 OA
ATOM      8  C   LIG    1        1.138   8.504  -3.265  0.00  0.00    +0.020 C 
ENDROOT
BRANCH   1  13
ATOM      9  C   LIG    1        2.983  11.189  -8.762  0.00  0.00    +0.130 C 
ATOM     10  C   LIG    1        2.243  10.730  -7.533  0.00  0.00    +0.120 A 
ATOM     11  C   LIG    1        1.712  11.666  -6.666  0.00  0.00    -0.030 A 
ATOM     12  C   LIG    1        1.032  11.233  -5.537  0.00  0.00    +0.060 A 
ATOM     13  C   LIG    1        0.912   9.869  -5.323  0.00  0.00    -0.140 A 
ATOM     14  C   LIG    1        1.473   8.992  -6.231  0.00  0.00    +0.260 A 
ATOM     15  N   LIG    1        2.109   9.439  -7.296  0.00  0.00    -0.480 NA
ENDBRANCH   1  13
BRANCH   6  16
ATOM     16  C   LIG    1       -0.085   5.352  -1.098  0.00  0.00    +0.320 C 
BRANCH  16  17
ATOM     17  N   LIG    1       -0.578   4.009  -0.783  0.00  0.00    -0.590 N 
ATOM     18  C   LIG    1       -1.442   3.804   0.391  0.00  0.00    +0.280 C 
ATOM     19  C   LIG    1       -0.640   3.072   1.468  0.00  0.00    +0.010 C 
ATOM     20  C   LIG    1       -0.711   1.569   1.266  0.00  0.00    +0.030 C 
ATOM     21  C   LIG    1       -0.013   1.086   0.008  0.00  0.00    +0.050 C 
ATOM     22  C   LIG    1       -0.741   1.587  -1.242  0.00  0.00    +0.180 C 
ATOM     23  C   LIG    1       -0.242   2.980  -1.562  0.00  0.00    +0.490 C 
ATOM     24  O   LIG    1        0.466   3.161  -2.530  0.00  0.00    -0.530 OA
BRANCH  22  25
ATOM     25  O   LIG    1       -0.470   0.712  -2.338  0.00  0.00    -0.540 OA
ATOM     26  H   LIG    1       -0.901   0.971  -3.164  0.00  0.00    +0.390 HD
ENDBRANCH  22  25
ENDBRANCH  16  17
ENDBRANCH   6  16
TORSDOF 4
