REMARK  Name = ZINCqH0000006T6p.0
REMARK                            x       y       z     vdW  Elec       q    Type
REMARK                         _______ _______ _______ _____ _____    ______ ____
ROOT
ATOM      1  N   LIG    1        7.082  -1.576   3.368  0.00  0.00    -0.660 N 
ATOM      2  H   LIG    1        7.603  -0.758   3.339  0.00  0.00    +0.410 HD
ATOM      3  C   LIG    1        5.827  -1.593   2.877  0.00  0.00    +0.560 C 
ATOM      4  O   LIG    1        5.138  -2.586   3.006  0.00  0.00    -0.510 OA
ENDROOT
BRANCH   1   8
ATOM      5  C   LIG    1        8.730  -5.042   5.012  0.00  0.00    +0.170 A 
ATOM      6  C   LIG    1        9.063  -3.803   5.537  0.00  0.00    -0.120 A 
ATOM      7  C   LIG    1        8.523  -2.651   4.990  0.00  0.00    +0.150 A 
ATOM      8  C   LIG    1        7.636  -2.740   3.920  0.00  0.00    +0.100 A 
ATOM      9  C   LIG    1        7.304  -3.982   3.397  0.00  0.00    +0.120 A 
ATOM     10  C   LIG    1        7.850  -5.129   3.941  0.00  0.00    -0.080 A 
ATOM     11 CL   LIG    1        7.434  -6.682   3.286  0.00  0.00    -0.050 Cl
BRANCH   5  13
ATOM     12  C   LIG    1       10.163  -6.009   6.645  0.00  0.00    +0.250 C 
ATOM     13  O   LIG    1        9.265  -6.172   5.545  0.00  0.00    -0.300 OA
ENDBRANCH   5  13
BRANCH   7  14
ATOM     14  O   LIG    1        8.853  -1.434   5.501  0.00  0.00    -0.310 OA
ATOM     15  C   LIG    1        9.769  -1.419   6.598  0.00  0.00    +0.260 C 
ENDBRANCH   7  14
ENDBRANCH   1   8
BRANCH   3  16
ATOM     16  C   LIG    1        5.288  -0.404   2.183  0.00  0.00    -0.110 A 
ATOM     17  C   LIG    1        6.078   0.737   2.034  0.00  0.00    +0.020 A 
ATOM     18  C   LIG    1        5.572   1.845   1.385  0.00  0.00    +0.040 A 
ATOM     19  C   LIG    1        4.288   1.828   0.876  0.00  0.00    +0.000 A 
ATOM     20  C   LIG    1        3.492   0.698   1.024  0.00  0.00    +0.160 A 
ATOM     21  C   LIG    1        3.990  -0.420   1.674  0.00  0.00    +0.070 A 
BRANCH  20  22
ATOM     22  N   LIG    1        2.189   0.688   0.512  0.00  0.00    -0.560 N 
ATOM     23  C   LIG    1        1.525   1.852  -0.085  0.00  0.00    +0.260 C 
ATOM     24  C   LIG    1        0.019   1.507  -0.096  0.00  0.00    +0.060 C 
ATOM     25  C   LIG    1        0.050  -0.039  -0.114  0.00  0.00    +0.070 C 
ATOM     26  C   LIG    1        1.386  -0.390   0.504  0.00  0.00    +0.510 C 
ATOM     27  O   LIG    1        1.688  -1.485   0.929  0.00  0.00    -0.500 OA
ENDBRANCH  20  22
ENDBRANCH   3  16
TORSDOF 5
