REMARK  Name = ZINCpe000000WPRG.0
REMARK                            x       y       z     vdW  Elec       q    Type
REMARK                         _______ _______ _______ _____ _____    ______ ____
ROOT
ATOM      1  C   UNK A  0        0.739  -4.637  -1.387  0.00  0.00    +0.170 A 
ATOM      2  C   UNK A  0        1.429  -3.994  -0.369  0.00  0.00    +0.000 A 
ATOM      3  C   UNK A  0        1.427  -2.614  -0.297  0.00  0.00    +0.040 A 
ATOM      4  C   UNK A  0        0.735  -1.870  -1.243  0.00  0.00    +0.040 A 
ATOM      5  C   UNK A  0        0.039  -2.515  -2.260  0.00  0.00    +0.150 A 
ATOM      6  F   UNK A  0       -0.639  -1.792  -3.178  0.00  0.00    -0.120 F 
ATOM      7  C   UNK A  0        0.046  -3.894  -2.335  0.00  0.00    +0.000 A 
ENDROOT
BRANCH   4   8
ATOM      8  N   UNK A  0        0.734  -0.472  -1.169  0.00  0.00    -0.500 N 
ATOM      9  C   UNK A  0        2.090   0.067  -1.350  0.00  0.00    +0.170 C 
ATOM     10  C   UNK A  0        2.033   1.596  -1.322  0.00  0.00    +0.160 C 
ATOM     11  O   UNK A  0        1.439   2.024  -0.094  0.00  0.00    -0.380 OA
ATOM     12  C   UNK A  0        0.118   1.518   0.114  0.00  0.00    +0.160 C 
ATOM     13  C   UNK A  0       -0.409   2.005   1.466  0.00  0.00    +0.060 C 
ATOM     14  C   UNK A  0        3.450   2.162  -1.430  0.00  0.00    +0.050 C 
ATOM     15  C   UNK A  0        0.155  -0.012   0.101  0.00  0.00    +0.170 C 
ENDBRANCH   4   8
BRANCH   1  17
ATOM     16  C   UNK A  0        0.708  -6.647  -2.659  0.00  0.00    +0.510 C 
ATOM     17  N   UNK A  0        0.741  -6.034  -1.459  0.00  0.00    -0.640 N 
ATOM     18  H   UNK A  0        0.768  -6.562  -0.646  0.00  0.00    +0.430 HD
ATOM     19  O   UNK A  0        0.771  -5.991  -3.678  0.00  0.00    -0.490 OA
BRANCH  16  22
ATOM     20  N   ALA A  1        0.557  -8.747  -3.935  0.00  0.00    -0.690 N 
ATOM     21  H   ALA A  1        0.609  -8.222  -4.749  0.00  0.00    +0.420 HD
ATOM     22  C   UNK A  0        0.591  -8.134  -2.735  0.00  0.00    +0.510 C 
ATOM     23  O   UNK A  0        0.527  -8.791  -1.716  0.00  0.00    -0.520 OA
BRANCH  20  25
ATOM     24  CB  ALA A  1       -1.031 -10.607  -3.927  0.00  0.00    +0.040 C 
ATOM     25  CA  ALA A  1        0.444 -10.206  -4.009  0.00  0.00    +0.250 C 
BRANCH  25  26
ATOM     26  C   ALA A  1        1.032 -10.696  -5.333  0.00  0.00    +0.200 C 
BRANCH  26  27
ATOM     27  O   ALA A  1        0.245 -10.200  -6.418  0.00  0.00    -0.570 OA
ATOM     28  H   ALA A  1        0.561 -10.472  -7.290  0.00  0.00    +0.390 HD
ENDBRANCH  26  27
ENDBRANCH  25  26
ENDBRANCH  20  25
ENDBRANCH  16  22
ENDBRANCH   1  17
TORSDOF 6
