REMARK  Name = ZINCpe000027pHqL.0
REMARK                            x       y       z     vdW  Elec       q    Type
REMARK                         _______ _______ _______ _____ _____    ______ ____
ROOT
ATOM      1  C   LIG    1       -3.795   5.842   0.093  0.00  0.00    -0.020 C 
ATOM      2  C   LIG    1       -4.300   6.605   1.320  0.00  0.00    -0.040 C 
ATOM      3  C   LIG    1       -5.825   6.704   1.538  0.00  0.00    +0.300 C 
ATOM      4  N   LIG    1       -6.236   7.901   0.768  0.00  0.00    -0.600 N 
ATOM      5  C   LIG    1       -5.428   7.834  -0.472  0.00  0.00    +0.310 C 
ATOM      6  C   LIG    1       -7.140   8.838   1.116  0.00  0.00    +0.590 C 
ATOM      7  O   LIG    1       -7.783   8.711   2.139  0.00  0.00    -0.520 OA
ATOM      8  C   LIG    1       -4.038   7.350  -0.006  0.00  0.00    -0.030 C 
ENDROOT
BRANCH   6   9
ATOM      9  C   LIG    1       -7.350  10.022   0.251  0.00  0.00    +0.110 A 
ATOM     10  C   LIG    1       -8.191  11.046   0.675  0.00  0.00    +0.040 A 
ATOM     11  C   LIG    1       -8.377  12.152  -0.150  0.00  0.00    +0.210 A 
ATOM     12  C   LIG    1       -7.710  12.187  -1.372  0.00  0.00    -0.030 A 
ATOM     13  C   LIG    1       -6.889  11.129  -1.724  0.00  0.00    +0.310 A 
ATOM     14  N   LIG    1       -6.729  10.100  -0.921  0.00  0.00    -0.470 NA
BRANCH  11  15
ATOM     15  N   LIG    1       -9.216  13.204   0.238  0.00  0.00    -0.340 N 
ATOM     16  C   LIG    1       -9.474  14.328  -0.478  0.00  0.00    +0.230 A 
ATOM     17  C   LIG    1      -10.328  15.087   0.245  0.00  0.00    -0.090 A 
ATOM     18  C   LIG    1      -10.603  14.411   1.439  0.00  0.00    +0.270 A 
ATOM     19  N   LIG    1       -9.943  13.281   1.433  0.00  0.00    -0.280 NA
ENDBRANCH  11  15
ENDBRANCH   6   9
BRANCH   1  20
ATOM     20  C   LIG    1       -2.343   5.362   0.110  0.00  0.00    +0.300 C 
BRANCH  20  22
ATOM     21  C   LIG    1       -1.132   3.248   0.098  0.00  0.00    +0.540 C 
ATOM     22  N   LIG    1       -2.313   3.897   0.088  0.00  0.00    -0.720 N 
ATOM     23  H   LIG    1       -3.142   3.395   0.066  0.00  0.00    +0.400 HD
ATOM     24  O   LIG    1       -0.092   3.877   0.125  0.00  0.00    -0.540 OA
BRANCH  21  26
ATOM     25  C   LIG    1        0.064   1.136   0.085  0.00  0.00    +0.140 C 
ATOM     26  C   LIG    1       -1.102   1.777   0.075  0.00  0.00    -0.090 C 
ENDBRANCH  21  26
ENDBRANCH  20  22
ENDBRANCH   1  20
TORSDOF 5
