REMARK  Name = ZINCrg000000sMgd.0
REMARK                            x       y       z     vdW  Elec       q    Type
REMARK                         _______ _______ _______ _____ _____    ______ ____
ROOT
ATOM      1  C   LIG    1        0.950  -4.612  -1.454  0.00  0.00    +0.500 C 
ATOM      2  N   LIG    1        1.177  -5.916  -1.710  0.00  0.00    -0.720 N 
ATOM      3  H   LIG    1        1.293  -6.541  -0.977  0.00  0.00    +0.400 HD
ATOM      4  O   LIG    1        0.805  -3.831  -2.370  0.00  0.00    -0.520 OA
ENDROOT
BRANCH   1   5
ATOM      5  C   LIG    1        0.877  -4.125  -0.029  0.00  0.00    +0.340 C 
BRANCH   5  13
ATOM      6  C   LIG    1       -1.215   2.196   0.020  0.00  0.00    +0.360 C 
ATOM      7  N   LIG    1       -0.016   1.354   0.009  0.00  0.00    -0.350 N 
ATOM      8  N   LIG    1        1.307   1.812  -0.001  0.00  0.00    -0.270 NA
ATOM      9  C   LIG    1        2.121   0.793  -0.014  0.00  0.00    +0.330 A 
ATOM     10  C   LIG    1        1.353  -0.387  -0.013  0.00  0.00    -0.340 A 
ATOM     11  C   LIG    1        1.664  -1.816  -0.024  0.00  0.00    +0.580 A 
ATOM     12  O   LIG    1        2.817  -2.211  -0.037  0.00  0.00    -0.510 OA
ATOM     13  N   LIG    1        0.624  -2.682  -0.019  0.00  0.00    -0.530 N 
ATOM     14  C   LIG    1       -0.651  -2.220  -0.004  0.00  0.00    +0.630 A 
ATOM     15  N   LIG    1       -0.947  -0.953   0.006  0.00  0.00    -0.530 NA
ATOM     16  C   LIG    1        0.002  -0.004   0.002  0.00  0.00    +0.330 A 
ENDBRANCH   5  13
ENDBRANCH   1   5
BRANCH   2  17
ATOM     17  C   LIG    1        1.247  -6.389  -3.094  0.00  0.00    +0.270 C 
BRANCH  17  18
ATOM     18  C   LIG    1        1.512  -7.896  -3.106  0.00  0.00    +0.090 C 
BRANCH  18  19
ATOM     19  C   LIG    1        1.584  -8.383  -4.530  0.00  0.00    -0.060 A 
ATOM     20  C   LIG    1        0.480  -8.901  -5.132  0.00  0.00    +0.040 A 
ATOM     21  C   LIG    1        0.524  -9.356  -6.448  0.00  0.00    +0.020 A 
ATOM     22  C   LIG    1        1.677  -9.294  -7.170  0.00  0.00    +0.030 A 
ATOM     23  C   LIG    1        2.837  -8.766  -6.581  0.00  0.00    -0.100 A 
ATOM     24  C   LIG    1        4.049  -8.684  -7.292  0.00  0.00    +0.080 A 
ATOM     25  C   LIG    1        5.132  -8.143  -6.660  0.00  0.00    -0.030 A 
ATOM     26  C   LIG    1        5.021  -7.705  -5.342  0.00  0.00    +0.290 A 
ATOM     27  N   LIG    1        3.892  -7.788  -4.681  0.00  0.00    -0.470 NA
ATOM     28  C   LIG    1        2.792  -8.297  -5.244  0.00  0.00    +0.130 A 
ENDBRANCH  18  19
ENDBRANCH  17  18
ENDBRANCH   2  17
TORSDOF 5
