REMARK  Name = ZINCzw0000000dVS.0
REMARK                            x       y       z     vdW  Elec       q    Type
REMARK                         _______ _______ _______ _____ _____    ______ ____
ROOT
ATOM      1  N   LIG    1        0.163  -0.052  -0.013  0.00  0.00    -0.720 N 
ATOM      2  H   LIG    1        0.972  -0.586  -0.043  0.00  0.00    +0.390 HD
ATOM      3  C   LIG    1        0.243   1.293   0.003  0.00  0.00    +0.530 C 
ATOM      4  O   LIG    1       -0.769   1.960   0.035  0.00  0.00    -0.480 OA
ENDROOT
BRANCH   1  12
ATOM      5  C   LIG    1       -1.061  -2.055  -0.706  0.00  0.00    +0.300 C 
ATOM      6  N   LIG    1       -2.282  -2.822  -0.500  0.00  0.00    -0.710 N 
ATOM      7  H   LIG    1       -2.473  -3.548  -1.115  0.00  0.00    +0.410 HD
ATOM      8  C   LIG    1       -3.155  -2.590   0.481  0.00  0.00    +0.520 C 
ATOM      9  C   LIG    1       -3.010  -1.471   1.472  0.00  0.00    +0.080 C 
ATOM     10  C   LIG    1       -1.570  -0.951   1.467  0.00  0.00    +0.040 C 
ATOM     11  O   LIG    1       -4.118  -3.321   0.578  0.00  0.00    -0.530 OA
ATOM     12  C   LIG    1       -1.147  -0.708   0.014  0.00  0.00    +0.260 C 
BRANCH   5  17
ATOM     13  N   LIG    1        0.316  -1.821  -2.837  0.00  0.00    -0.360 N 
ATOM     14  N   LIG    1        0.058  -1.563  -4.190  0.00  0.00    -0.280 NA
ATOM     15  C   LIG    1       -1.233  -1.411  -4.338  0.00  0.00    +0.240 A 
ATOM     16  C   LIG    1       -1.838  -1.572  -3.087  0.00  0.00    -0.090 A 
ATOM     17  C   LIG    1       -0.864  -1.819  -2.182  0.00  0.00    +0.050 A 
BRANCH  13  19
ATOM     18  C   LIG    1        2.016  -3.525  -2.405  0.00  0.00    +0.030 C 
ATOM     19  C   LIG    1        1.633  -2.053  -2.240  0.00  0.00    +0.310 C 
ENDBRANCH  13  19
ENDBRANCH   5  17
ENDBRANCH   1  12
BRANCH   3  20
ATOM     20  C   LIG    1        1.590   1.968  -0.025  0.00  0.00    +0.010 C 
ATOM     21  C   LIG    1        2.425   1.578   1.220  0.00  0.00    +0.280 C 
ATOM     22  N   LIG    1        3.374   2.711   1.362  0.00  0.00    -0.390 N 
ATOM     23  C   LIG    1        2.597   3.929   1.045  0.00  0.00    +0.280 C 
ATOM     24  H   LIG    1        4.140   2.608   0.714  0.00  0.00    +0.430 HD
ATOM     25  C   LIG    1        1.438   3.499   0.127  0.00  0.00    +0.110 C 
BRANCH  25  26
ATOM     26  C   LIG    1        1.556   4.173  -1.216  0.00  0.00    +0.110 A 
ATOM     27  C   LIG    1        2.805   4.492  -1.712  0.00  0.00    -0.050 A 
ATOM     28  C   LIG    1        2.903   5.108  -2.951  0.00  0.00    +0.080 A 
ATOM     29  C   LIG    1        1.734   5.389  -3.642  0.00  0.00    -0.010 A 
ATOM     30  C   LIG    1        0.520   5.045  -3.079  0.00  0.00    +0.290 A 
ATOM     31  N   LIG    1        0.465   4.456  -1.901  0.00  0.00    -0.460 NA
ENDBRANCH  25  26
BRANCH  22  32
ATOM     32  C   LIG    1        3.881   2.777   2.739  0.00  0.00    +0.330 C 
BRANCH  32  33
ATOM     33  C   LIG    1        4.727   1.562   3.022  0.00  0.00    -0.160 A 
ATOM     34  C   LIG    1        4.145   0.421   3.542  0.00  0.00    +0.030 A 
ATOM     35  C   LIG    1        4.920  -0.695   3.797  0.00  0.00    +0.030 A 
ATOM     36  C   LIG    1        6.278  -0.667   3.540  0.00  0.00    +0.060 A 
ATOM     37  C   LIG    1        6.861   0.476   3.025  0.00  0.00    +0.030 A 
ATOM     38  C   LIG    1        6.085   1.591   2.766  0.00  0.00    +0.040 A 
ENDBRANCH  32  33
ENDBRANCH  22  32
ENDBRANCH   3  20
TORSDOF 7
