REMARK  Name = ZINCzw0000000dVS.1
REMARK                            x       y       z     vdW  Elec       q    Type
REMARK                         _______ _______ _______ _____ _____    ______ ____
ROOT
ATOM      1  N   LIG    1       -0.661  -1.492   0.632  0.00  0.00    -0.720 N 
ATOM      2  H   LIG    1        0.027  -2.095   0.312  0.00  0.00    +0.400 HD
ATOM      3  C   LIG    1       -0.944  -0.367  -0.053  0.00  0.00    +0.520 C 
ATOM      4  O   LIG    1       -1.805   0.388   0.348  0.00  0.00    -0.500 OA
ENDROOT
BRANCH   1  12
ATOM      5  C   LIG    1       -1.746  -3.292   1.886  0.00  0.00    +0.300 C 
ATOM      6  N   LIG    1       -2.270  -3.671   3.193  0.00  0.00    -0.710 N 
ATOM      7  H   LIG    1       -2.781  -4.493   3.256  0.00  0.00    +0.410 HD
ATOM      8  C   LIG    1       -2.093  -2.958   4.306  0.00  0.00    +0.520 C 
ATOM      9  C   LIG    1       -1.365  -1.645   4.343  0.00  0.00    +0.080 C 
ATOM     10  C   LIG    1       -0.517  -1.484   3.079  0.00  0.00    +0.040 C 
ATOM     11  O   LIG    1       -2.545  -3.393   5.344  0.00  0.00    -0.530 OA
ATOM     12  C   LIG    1       -1.394  -1.804   1.862  0.00  0.00    +0.250 C 
BRANCH   5  17
ATOM     13  N   LIG    1       -2.541  -4.022  -0.422  0.00  0.00    -0.360 N 
ATOM     14  N   LIG    1       -3.772  -4.156  -1.077  0.00  0.00    -0.280 NA
ATOM     15  C   LIG    1       -4.717  -3.793  -0.248  0.00  0.00    +0.240 A 
ATOM     16  C   LIG    1       -4.120  -3.423   0.961  0.00  0.00    -0.090 A 
ATOM     17  C   LIG    1       -2.782  -3.576   0.829  0.00  0.00    +0.050 A 
BRANCH  13  19
ATOM     18  C   LIG    1       -0.929  -5.812  -0.846  0.00  0.00    +0.030 C 
ATOM     19  C   LIG    1       -1.224  -4.318  -0.993  0.00  0.00    +0.310 C 
ENDBRANCH  13  19
ENDBRANCH   5  17
ENDBRANCH   1  12
BRANCH   3  20
ATOM     20  C   LIG    1       -0.191  -0.045  -1.318  0.00  0.00    +0.020 C 
ATOM     21  C   LIG    1        1.303   0.191  -1.007  0.00  0.00    +0.290 C 
ATOM     22  N   LIG    1        1.426   1.663  -0.856  0.00  0.00    -0.390 N 
ATOM     23  C   LIG    1        0.543   2.214  -1.917  0.00  0.00    +0.300 C 
ATOM     24  H   LIG    1        1.107   1.952   0.056  0.00  0.00    +0.430 HD
ATOM     25  C   LIG    1       -0.691   1.286  -1.916  0.00  0.00    +0.110 C 
BRANCH  25  26
ATOM     26  C   LIG    1       -1.187   1.073  -3.323  0.00  0.00    +0.120 A 
ATOM     27  C   LIG    1       -0.536   0.177  -4.149  0.00  0.00    -0.050 A 
ATOM     28  C   LIG    1       -1.003  -0.015  -5.441  0.00  0.00    +0.080 A 
ATOM     29  C   LIG    1       -2.106   0.714  -5.858  0.00  0.00    -0.010 A 
ATOM     30  C   LIG    1       -2.702   1.597  -4.978  0.00  0.00    +0.290 A 
ATOM     31  N   LIG    1       -2.234   1.750  -3.754  0.00  0.00    -0.470 NA
ENDBRANCH  25  26
BRANCH  22  32
ATOM     32  C   LIG    1        2.815   2.088  -1.073  0.00  0.00    +0.330 C 
BRANCH  32  33
ATOM     33  C   LIG    1        3.685   1.542   0.030  0.00  0.00    -0.160 A 
ATOM     34  C   LIG    1        3.888   2.282   1.180  0.00  0.00    +0.040 A 
ATOM     35  C   LIG    1        4.682   1.779   2.194  0.00  0.00    +0.030 A 
ATOM     36  C   LIG    1        5.281   0.542   2.054  0.00  0.00    +0.060 A 
ATOM     37  C   LIG    1        5.083  -0.195   0.901  0.00  0.00    +0.030 A 
ATOM     38  C   LIG    1        4.285   0.305  -0.111  0.00  0.00    +0.030 A 
ENDBRANCH  32  33
ENDBRANCH  22  32
ENDBRANCH   3  20
TORSDOF 7
