REMARK  Name = ZINCAx0000000gRt.0
REMARK                            x       y       z     vdW  Elec       q    Type
REMARK                         _______ _______ _______ _____ _____    ______ ____
ROOT
ATOM      1  C   LIG    1       -1.177   1.682   0.017  0.00  0.00    -0.030 C 
ATOM      2  C   LIG    1       -0.013   1.076   0.008  0.00  0.00    -0.050 C 
ATOM      3  C   LIG    1        1.301   1.806  -0.001  0.00  0.00    +0.310 C 
ATOM      4  N   LIG    1        1.058   3.233  -0.257  0.00  0.00    -0.610 N 
ATOM      5  C   LIG    1       -0.065   3.866   0.456  0.00  0.00    +0.280 C 
ATOM      6  C   LIG    1        1.832   3.934  -1.109  0.00  0.00    +0.520 C 
ATOM      7  O   LIG    1        1.610   5.111  -1.302  0.00  0.00    -0.540 OA
ATOM      8  C   LIG    1       -1.356   3.171   0.014  0.00  0.00    +0.070 C 
ENDROOT
BRANCH   1  12
ATOM      9  C   LIG    1       -4.676  -0.737   0.074  0.00  0.00    +0.210 A 
ATOM     10  C   LIG    1       -4.093  -0.336   1.269  0.00  0.00    -0.140 A 
ATOM     11  C   LIG    1       -2.955   0.451   1.257  0.00  0.00    +0.220 A 
ATOM     12  C   LIG    1       -2.390   0.843   0.037  0.00  0.00    -0.170 A 
ATOM     13  C   LIG    1       -2.986   0.439  -1.164  0.00  0.00    +0.220 A 
ATOM     14  C   LIG    1       -4.121  -0.353  -1.139  0.00  0.00    -0.190 A 
BRANCH   9  16
ATOM     15  C   LIG    1       -6.341  -1.887  -1.171  0.00  0.00    +0.250 C 
ATOM     16  O   LIG    1       -5.793  -1.509   0.093  0.00  0.00    -0.310 OA
ENDBRANCH   9  16
BRANCH  13  17
ATOM     17  O   LIG    1       -2.448   0.818  -2.352  0.00  0.00    -0.300 OA
ATOM     18  C   LIG    1       -3.109   0.369  -3.537  0.00  0.00    +0.250 C 
ENDBRANCH  13  17
BRANCH  11  19
ATOM     19  O   LIG    1       -2.386   0.844   2.427  0.00  0.00    -0.300 OA
ATOM     20  C   LIG    1       -3.017   0.407   3.633  0.00  0.00    +0.240 C 
ENDBRANCH  11  19
ENDBRANCH   1  12
BRANCH   6  21
ATOM     21  C   LIG    1        2.974   3.256  -1.821  0.00  0.00    +0.060 C 
BRANCH  21  22
ATOM     22  C   LIG    1        3.686   4.268  -2.721  0.00  0.00    +0.130 C 
BRANCH  22  23
ATOM     23  C   LIG    1        4.828   3.590  -3.434  0.00  0.00    -0.160 A 
ATOM     24  C   LIG    1        4.653   3.086  -4.681  0.00  0.00    +0.150 A 
ATOM     25  N   LIG    1        5.706   2.480  -5.305  0.00  0.00    -0.400 N 
ATOM     26  C   LIG    1        5.847   1.893  -6.526  0.00  0.00    +0.370 A 
ATOM     27  N   LIG    1        7.062   1.447  -6.661  0.00  0.00    -0.410 NA
ATOM     28  C   LIG    1        7.773   1.717  -5.545  0.00  0.00    -0.060 A 
ATOM     29  C   LIG    1        6.914   2.383  -4.661  0.00  0.00    +0.250 A 
ATOM     30  N   LIG    1        7.074   2.878  -3.432  0.00  0.00    -0.420 NA
ATOM     31  C   LIG    1        3.317   3.196  -5.369  0.00  0.00    +0.160 C 
ATOM     32  C   LIG    1        6.078   3.470  -2.811  0.00  0.00    +0.200 A 
ATOM     33  C   LIG    1        6.281   4.022  -1.424  0.00  0.00    +0.160 C 
BRANCH  28  34
ATOM     34  C   LIG    1        9.176   1.380  -5.306  0.00  0.00    +0.610 C 
ATOM     35  O   LIG    1        9.704   1.682  -4.251  0.00  0.00    -0.530 OA
ATOM     36  N   LIG    1        9.885   0.734  -6.253  0.00  0.00    -0.840 N 
ATOM     37  H   LIG    1       10.815   0.510  -6.094  0.00  0.00    +0.410 HD
ATOM     38  H   LIG    1        9.465   0.492  -7.093  0.00  0.00    +0.410 HD
ENDBRANCH  28  34
ENDBRANCH  22  23
ENDBRANCH  21  22
ENDBRANCH   6  21
TORSDOF 8
