REMARK  Name = ZINCrg000000tdSH.0
REMARK                            x       y       z     vdW  Elec       q    Type
REMARK                         _______ _______ _______ _____ _____    ______ ____
ROOT
ATOM      1  O   LIG    1        2.341   0.314  -0.019  0.00  0.00    -0.530 OA
ATOM      2  C   LIG    1        1.429  -0.487  -0.014  0.00  0.00    +0.510 C 
ATOM      3  N   LIG    1        1.694  -1.809  -0.024  0.00  0.00    -0.510 N 
ATOM      4  H   LIG    1        0.965  -2.449  -0.020  0.00  0.00    +0.440 HD
ENDROOT
BRANCH   3   5
ATOM      5  N   LIG    1        3.021  -2.258  -0.039  0.00  0.00    -0.520 N 
ATOM      6  H   LIG    1        3.749  -1.617  -0.042  0.00  0.00    +0.440 HD
ATOM      7  C   LIG    1        3.285  -3.579  -0.049  0.00  0.00    +0.530 C 
ATOM      8  O   LIG    1        2.374  -4.380  -0.044  0.00  0.00    -0.500 OA
BRANCH   7   9
ATOM      9  C   LIG    1        4.712  -4.062  -0.065  0.00  0.00    +0.170 C 
ATOM     10  C   LIG    1        5.386  -3.643  -1.378  0.00  0.00    +0.250 C 
ATOM     11  O   LIG    1        6.733  -4.128  -1.366  0.00  0.00    -0.300 OA
ATOM     12  C   LIG    1        6.915  -5.419  -0.976  0.00  0.00    +0.040 A 
ATOM     13  C   LIG    1        8.107  -6.059  -1.276  0.00  0.00    +0.030 A 
ATOM     14  C   LIG    1        8.307  -7.370  -0.885  0.00  0.00    +0.030 A 
ATOM     15  C   LIG    1        7.320  -8.045  -0.192  0.00  0.00    +0.030 A 
ATOM     16  C   LIG    1        6.128  -7.412   0.110  0.00  0.00    +0.030 A 
ATOM     17  C   LIG    1        5.920  -6.099  -0.282  0.00  0.00    +0.050 A 
ATOM     18  O   LIG    1        4.739  -5.491   0.016  0.00  0.00    -0.280 OA
ENDBRANCH   7   9
ENDBRANCH   3   5
BRANCH   2  19
ATOM     19  C   LIG    1        0.002  -0.004   0.002  0.00  0.00    +0.330 C 
BRANCH  19  20
ATOM     20  N   LIG    1       -0.018   1.461   0.010  0.00  0.00    -0.720 N 
ATOM     21  H   LIG    1        0.816   1.957   0.005  0.00  0.00    +0.410 HD
ATOM     22  C   LIG    1       -1.194   2.119   0.019  0.00  0.00    +0.550 C 
ATOM     23  O   LIG    1       -2.238   1.497   0.021  0.00  0.00    -0.500 OA
BRANCH  22  24
ATOM     24  C   LIG    1       -1.214   3.597   0.027  0.00  0.00    -0.110 A 
ATOM     25  C   LIG    1       -0.017   4.314   0.031  0.00  0.00    +0.050 A 
ATOM     26  C   LIG    1       -0.043   5.693   0.033  0.00  0.00    +0.030 A 
ATOM     27  C   LIG    1       -1.252   6.366   0.043  0.00  0.00    +0.050 A 
ATOM     28  C   LIG    1       -2.442   5.662   0.044  0.00  0.00    +0.050 A 
ATOM     29  C   LIG    1       -2.431   4.282   0.037  0.00  0.00    -0.060 A 
ATOM     30  I   LIG    1       -4.235   3.217   0.040  0.00  0.00    +0.010 I 
ENDBRANCH  22  24
ENDBRANCH  19  20
ENDBRANCH   2  19
TORSDOF 5
