REMARK  Name = ZINCnE000001ED1D.0
REMARK                            x       y       z     vdW  Elec       q    Type
REMARK                         _______ _______ _______ _____ _____    ______ ____
ROOT
ATOM      1  N   LIG    1       -0.357   1.296  -2.416  0.00  0.00    -0.720 N 
ATOM      2  H   LIG    1        0.476   0.812  -2.525  0.00  0.00    +0.400 HD
ATOM      3  C   LIG    1       -0.837   1.541  -1.180  0.00  0.00    +0.520 C 
ATOM      4  O   LIG    1       -1.879   2.147  -1.043  0.00  0.00    -0.520 OA
ENDROOT
BRANCH   1   9
ATOM      5  C   LIG    1       -1.399  -2.388  -4.678  0.00  0.00    +0.060 C 
ATOM      6  C   LIG    1       -1.346  -0.903  -4.425  0.00  0.00    -0.140 C 
ATOM      7  C   LIG    1       -2.389  -0.338  -3.908  0.00  0.00    -0.110 C 
ATOM      8  C   LIG    1       -2.489   1.129  -3.609  0.00  0.00    +0.080 C 
ATOM      9  C   LIG    1       -1.095   1.760  -3.593  0.00  0.00    +0.180 C 
ATOM     10  C   LIG    1       -0.355   1.333  -4.867  0.00  0.00    +0.030 C 
ATOM     11  C   LIG    1       -1.220   3.284  -3.553  0.00  0.00    +0.030 C 
ATOM     12  C   LIG    1       -3.577  -1.207  -3.587  0.00  0.00    +0.060 C 
ATOM     13  C   LIG    1       -0.087  -0.172  -4.789  0.00  0.00    +0.060 C 
ENDBRANCH   1   9
BRANCH   3  14
ATOM     14  C   LIG    1       -0.078   1.064   0.031  0.00  0.00    +0.100 C 
BRANCH  14  15
ATOM     15  C   LIG    1       -0.821   1.463   1.279  0.00  0.00    -0.050 A 
ATOM     16  C   LIG    1       -0.551   2.680   1.882  0.00  0.00    -0.020 A 
ATOM     17  C   LIG    1       -1.230   3.057   3.021  0.00  0.00    +0.070 A 
ATOM     18  C   LIG    1       -2.187   2.202   3.575  0.00  0.00    -0.170 A 
ATOM     19  C   LIG    1       -2.452   0.970   2.965  0.00  0.00    +0.130 A 
ATOM     20  F   LIG    1       -3.374   0.136   3.493  0.00  0.00    -0.120 F 
ATOM     21  C   LIG    1       -1.766   0.610   1.820  0.00  0.00    -0.040 A 
BRANCH  18  22
ATOM     22  C   LIG    1       -2.913   2.595   4.796  0.00  0.00    +0.520 C 
ATOM     23  O   LIG    1       -3.750   1.845   5.278  0.00  0.00    -0.670 OA
ATOM     24  O   LIG    1       -2.679   3.672   5.327  0.00  0.00    -0.690 OA
ENDBRANCH  18  22
ENDBRANCH  14  15
ENDBRANCH   3  14
TORSDOF 4
