REMARK  Name = ZINCnE000001MFs7.0
REMARK                            x       y       z     vdW  Elec       q    Type
REMARK                         _______ _______ _______ _____ _____    ______ ____
ROOT
ATOM      1  C   LIG    1       -0.737   1.506  -1.257  0.00  0.00    +0.060 C 
ATOM      2  C   LIG    1       -0.006   1.075   0.016  0.00  0.00    +0.040 C 
ENDROOT
BRANCH   2   3
ATOM      3  C   LIG    1       -0.734   1.615   1.220  0.00  0.00    +0.480 C 
ATOM      4  N   LIG    1       -1.774   0.933   1.741  0.00  0.00    -0.670 NA
ATOM      5  O   LIG    1       -0.384   2.663   1.721  0.00  0.00    -0.560 OA
BRANCH   4   6
ATOM      6  C   LIG    1       -2.445   1.432   2.852  0.00  0.00    +0.290 A 
ATOM      7  N   LIG    1       -2.165   2.538   3.473  0.00  0.00    -0.360 NA
ATOM      8  N   LIG    1       -2.876   2.847   4.469  0.00  0.00    -0.230 NA
ATOM      9  C   LIG    1       -3.827   2.025   4.780  0.00  0.00    -0.050 A 
ATOM     10  S   LIG    1       -3.784   0.693   3.625  0.00  0.00    +0.010 S 
BRANCH   9  11
ATOM     11  C   LIG    1       -4.799   2.180   5.921  0.00  0.00    +0.060 C 
ATOM     12  C   LIG    1       -4.797   3.512   6.674  0.00  0.00    +0.030 C 
ATOM     13  C   LIG    1       -4.222   2.257   7.336  0.00  0.00    +0.020 C 
ENDBRANCH   9  11
ENDBRANCH   4   6
ENDBRANCH   2   3
BRANCH   2  14
ATOM     14  S   LIG    1        1.687   1.725  -0.009  0.00  0.00    -0.090 S 
BRANCH  14  15
ATOM     15  C   LIG    1        2.433   0.837  -1.336  0.00  0.00    -0.070 A 
ATOM     16  C   LIG    1        2.974  -0.424  -1.112  0.00  0.00    +0.080 A 
ATOM     17  C   LIG    1        3.553  -1.119  -2.155  0.00  0.00    +0.100 A 
ATOM     18  C   LIG    1        3.604  -0.558  -3.418  0.00  0.00    -0.030 A 
ATOM     19  C   LIG    1        3.071   0.698  -3.643  0.00  0.00    +0.100 A 
ATOM     20  C   LIG    1        2.486   1.397  -2.606  0.00  0.00    +0.090 A 
BRANCH  18  21
ATOM     21  N   LIG    1        4.232  -1.304  -4.532  0.00  0.00    +0.030 N 
ATOM     22  O   LIG    1        4.702  -2.410  -4.336  0.00  0.00    -0.160 OA
ATOM     23  O   LIG    1        4.278  -0.811  -5.645  0.00  0.00    -0.160 OA
ENDBRANCH  18  21
ENDBRANCH  14  15
ENDBRANCH   2  14
TORSDOF 6
