REMARK  Name = ZINCue00000007ub.0
REMARK                            x       y       z     vdW  Elec       q    Type
REMARK                         _______ _______ _______ _____ _____    ______ ____
ROOT
ATOM      1  C   UNK    1       -6.213   1.893  -4.487  0.00  0.00    +0.200 C 
ENDROOT
BRANCH   1   2
ATOM      2  C   UNK    1       -7.395   1.264  -3.746  0.00  0.00    +0.060 C 
BRANCH   2   4
ATOM      3  O   UNK    1       -8.474   1.537  -5.827  0.00  0.00    -0.540 OA
ATOM      4  C   UNK    1       -8.571   1.152  -4.681  0.00  0.00    +0.520 C 
ATOM      5  N   UNK    1       -9.732   0.624  -4.244  0.00  0.00    -0.730 N 
ATOM      6  H   UNK    1       -9.809   0.316  -3.327  0.00  0.00    +0.400 HD
BRANCH   5   7
ATOM      7  C   UNK    1      -10.875   0.515  -5.153  0.00  0.00    +0.260 C 
BRANCH   7   8
ATOM      8  C   UNK    1      -12.057  -0.114  -4.412  0.00  0.00    -0.020 C 
ATOM      9  C   UNK    1      -12.516   0.825  -3.295  0.00  0.00    +0.010 C 
ATOM     10  C   UNK    1      -13.698   0.196  -2.554  0.00  0.00    +0.000 C 
ATOM     11  C   UNK    1      -14.851  -0.033  -3.534  0.00  0.00    +0.020 C 
ATOM     12  C   UNK    1      -14.392  -0.971  -4.651  0.00  0.00    -0.010 C 
ATOM     13  C   UNK    1      -13.210  -0.343  -5.392  0.00  0.00    +0.030 C 
BRANCH  12  14
ATOM     14  C   UNK    1      -15.544  -1.200  -5.631  0.00  0.00    +0.180 C 
BRANCH  14  15
ATOM     15  O   UNK    1      -16.604  -1.892  -4.967  0.00  0.00    -0.570 OA
ATOM     16  H   UNK    1      -17.370  -2.072  -5.530  0.00  0.00    +0.380 HD
ENDBRANCH  14  15
ENDBRANCH  12  14
ENDBRANCH   7   8
ENDBRANCH   5   7
ENDBRANCH   2   4
ENDBRANCH   1   2
BRANCH   1  17
ATOM     17  O   UNK    1       -5.097   2.000  -3.600  0.00  0.00    -0.390 OA
BRANCH  17  18
ATOM     18  C   UNK    1       -3.934   2.577  -4.197  0.00  0.00    +0.300 C 
BRANCH  18  19
ATOM     19  C   UNK    1       -2.826   2.640  -3.177  0.00  0.00    -0.030 A 
ATOM     20  C   UNK    1       -2.885   2.225  -1.890  0.00  0.00    +0.180 A 
ATOM     21  N   UNK    1       -1.666   2.476  -1.357  0.00  0.00    -0.290 N 
ATOM     22  N   UNK    1       -0.930   3.012  -2.268  0.00  0.00    -0.050 NA
ATOM     23  N   UNK    1       -1.591   3.118  -3.366  0.00  0.00    -0.260 NA
BRANCH  21  24
ATOM     24  C   UNK    1       -1.257   2.192   0.020  0.00  0.00    +0.500 C 
BRANCH  24  25
ATOM     25  C   UNK    1       -0.016   1.337   0.009  0.00  0.00    +0.110 A 
ATOM     26  N   UNK    1        1.204   1.782   0.000  0.00  0.00    -0.400 NA
ATOM     27  C   UNK    1        2.052   0.717  -0.014  0.00  0.00    -0.050 A 
ATOM     28  C   UNK    1        1.282  -0.407  -0.012  0.00  0.00    +0.200 A 
ATOM     29  O   UNK    1        0.002  -0.004   0.002  0.00  0.00    -0.210 OA
BRANCH  27  30
ATOM     30  C   UNK    1        3.521   0.770  -0.027  0.00  0.00    +0.560 C 
ATOM     31  O   UNK    1        4.095   1.851  -0.027  0.00  0.00    -0.660 OA
ATOM     32  O   UNK    1        4.171  -0.267  -0.039  0.00  0.00    -0.680 OA
ENDBRANCH  27  30
ENDBRANCH  24  25
ENDBRANCH  21  24
ENDBRANCH  18  19
ENDBRANCH  17  18
ENDBRANCH   1  17
TORSDOF 12
