REMARK  Name = ZINCqH0000008ldf.0
REMARK                            x       y       z     vdW  Elec       q    Type
REMARK                         _______ _______ _______ _____ _____    ______ ____
ROOT
ATOM      1  N   LIG    1       -1.191   1.867   0.018  0.00  0.00    -0.730 N 
ATOM      2  H   LIG    1       -1.204   2.837   0.023  0.00  0.00    +0.400 HD
ATOM      3  C   LIG    1       -0.014   1.209   0.009  0.00  0.00    +0.520 C 
ATOM      4  O   LIG    1        0.002  -0.004   0.002  0.00  0.00    -0.530 OA
ENDROOT
BRANCH   3   5
ATOM      5  C   LIG    1        1.280   1.980   0.001  0.00  0.00    -0.010 C 
ATOM      6  C   LIG    1        1.337   2.869  -1.244  0.00  0.00    +0.030 C 
ATOM      7  C   LIG    1        2.638   3.676  -1.232  0.00  0.00    +0.280 C 
ATOM      8  N   LIG    1        3.769   2.748  -1.101  0.00  0.00    -0.600 N 
ATOM      9  C   LIG    1        3.771   1.788   0.011  0.00  0.00    +0.300 C 
ATOM     10  C   LIG    1        4.787   2.778  -1.984  0.00  0.00    +0.650 C 
ATOM     11  O   LIG    1        5.717   2.005  -1.865  0.00  0.00    -0.560 OA
ATOM     12  C   LIG    1        2.457   1.001  -0.016  0.00  0.00    +0.060 C 
BRANCH  10  13
ATOM     13  O   LIG    1        4.773   3.664  -2.998  0.00  0.00    -0.360 OA
BRANCH  13  14
ATOM     14  C   LIG    1        5.902   3.639  -3.911  0.00  0.00    +0.140 C 
ATOM     15  C   LIG    1        7.191   3.921  -3.136  0.00  0.00    +0.040 C 
ATOM     16  C   LIG    1        5.710   4.707  -4.989  0.00  0.00    +0.080 C 
ATOM     17  C   LIG    1        5.995   2.261  -4.570  0.00  0.00    +0.040 C 
ENDBRANCH  13  14
ENDBRANCH  10  13
ENDBRANCH   3   5
BRANCH   1  19
ATOM     18  C   LIG    1       -2.830   0.756  -1.417  0.00  0.00    +0.040 C 
ATOM     19  C   LIG    1       -2.449   1.117   0.020  0.00  0.00    +0.290 C 
BRANCH  19  20
ATOM     20  C   LIG    1       -3.537   1.963   0.630  0.00  0.00    -0.080 A 
ATOM     21  C   LIG    1       -4.467   1.387   1.475  0.00  0.00    +0.060 A 
ATOM     22  C   LIG    1       -5.466   2.161   2.036  0.00  0.00    +0.030 A 
ATOM     23  C   LIG    1       -5.535   3.514   1.752  0.00  0.00    +0.070 A 
ATOM     24  C   LIG    1       -4.601   4.091   0.904  0.00  0.00    +0.070 A 
ATOM     25  F   LIG    1       -4.667   5.412   0.626  0.00  0.00    -0.120 F 
ATOM     26  F   LIG    1       -6.510   4.271   2.300  0.00  0.00    -0.130 F 
ATOM     27  C   LIG    1       -3.600   3.315   0.349  0.00  0.00    +0.020 A 
ENDBRANCH  19  20
ENDBRANCH   1  19
TORSDOF 5
