REMARK  Name = ZINCrH000004q6VJ.0
REMARK                            x       y       z     vdW  Elec       q    Type
REMARK                         _______ _______ _______ _____ _____    ______ ____
ROOT
ATOM      1  C   LIG    1        3.601   0.924   0.644  0.00  0.00    +0.140 C 
ATOM      2  C   LIG    1        2.096   0.852   0.684  0.00  0.00    -0.060 A 
ATOM      3  C   LIG    1        1.231   1.884   0.501  0.00  0.00    -0.060 A 
ATOM      4  O   LIG    1       -0.035   1.429   0.611  0.00  0.00    -0.160 OA
ATOM      5  C   LIG    1       -0.024   0.108   0.865  0.00  0.00    +0.080 A 
ATOM      6  C   LIG    1       -1.047  -0.845   1.066  0.00  0.00    -0.030 A 
ATOM      7  C   LIG    1       -2.400  -0.478   1.018  0.00  0.00    +0.030 A 
ATOM      8  C   LIG    1       -3.363  -1.422   1.218  0.00  0.00    +0.010 A 
ATOM      9  C   LIG    1       -3.023  -2.748   1.468  0.00  0.00    +0.030 A 
ATOM     10  C   LIG    1       -1.718  -3.138   1.520  0.00  0.00    +0.030 A 
ATOM     11  C   LIG    1       -0.700  -2.194   1.320  0.00  0.00    -0.020 A 
ATOM     12  C   LIG    1        0.659  -2.573   1.370  0.00  0.00    +0.020 A 
ATOM     13  C   LIG    1        1.633  -1.654   1.175  0.00  0.00    +0.070 A 
ATOM     14  C   LIG    1        1.311  -0.305   0.921  0.00  0.00    -0.140 A 
ENDROOT
BRANCH   3  15
ATOM     15  C   LIG    1        1.614   3.275   0.225  0.00  0.00    +0.610 C 
ATOM     16  N   LIG    1        0.669   4.185  -0.085  0.00  0.00    -0.600 N 
ATOM     17  C   LIG    1       -0.746   3.805  -0.073  0.00  0.00    +0.310 C 
ATOM     18  O   LIG    1        2.783   3.606   0.276  0.00  0.00    -0.520 OA
BRANCH  16  19
ATOM     19  C   LIG    1        1.057   5.554  -0.433  0.00  0.00    +0.430 C 
BRANCH  19  20
ATOM     20  C   LIG    1        1.279   5.651  -1.920  0.00  0.00    +0.170 A 
ATOM     21  N   LIG    1        0.382   5.953  -2.819  0.00  0.00    -0.270 NA
ATOM     22  N   LIG    1        0.918   5.941  -3.987  0.00  0.00    -0.280 NA
ATOM     23  C   LIG    1        2.183   5.629  -3.886  0.00  0.00    +0.160 A 
ATOM     24  C   LIG    1        3.438   5.408  -4.703  0.00  0.00    +0.160 C 
ATOM     25  C   LIG    1        4.387   4.651  -3.747  0.00  0.00    +0.070 C 
ATOM     26  C   LIG    1        3.858   5.089  -2.364  0.00  0.00    +0.310 C 
ATOM     27  N   LIG    1        2.449   5.445  -2.574  0.00  0.00    -0.480 N 
ENDBRANCH  19  20
ENDBRANCH  16  19
ENDBRANCH   3  15
TORSDOF 3
