REMARK  Name = ZINCrD000001YKjB.0
REMARK                            x       y       z     vdW  Elec       q    Type
REMARK                         _______ _______ _______ _____ _____    ______ ____
ROOT
ATOM      1  C   LIG    1        3.632  -1.981   0.245  0.00  0.00    +0.550 C 
ATOM      2  N   LIG    1        3.644  -0.635   0.183  0.00  0.00    -0.550 N 
ATOM      3  C   LIG    1        4.915   0.099   0.136  0.00  0.00    +0.280 C 
ATOM      4  C   LIG    1        4.814   1.277   1.113  0.00  0.00    +0.020 C 
ATOM      5  C   LIG    1        3.709   2.220   0.636  0.00  0.00    +0.080 C 
ATOM      6  C   LIG    1        2.437   1.456   0.381  0.00  0.00    -0.130 A 
ATOM      7  C   LIG    1        1.240   2.143   0.364  0.00  0.00    +0.100 A 
ATOM      8  C   LIG    1        0.044   1.464   0.125  0.00  0.00    -0.150 A 
ATOM      9  C   LIG    1        0.060   0.084  -0.097  0.00  0.00    +0.060 A 
ATOM     10  C   LIG    1        1.255  -0.597  -0.078  0.00  0.00    +0.010 A 
ATOM     11  C   LIG    1        2.447   0.084   0.162  0.00  0.00    +0.180 A 
ATOM     12  O   LIG    1        2.582  -2.574   0.399  0.00  0.00    -0.520 OA
ENDROOT
BRANCH   8  13
ATOM     13  C   LIG    1       -1.234   2.202   0.101  0.00  0.00    +0.570 C 
ATOM     14  N   LIG    1       -2.387   1.546  -0.135  0.00  0.00    -0.720 N 
ATOM     15  H   LIG    1       -2.377   0.588  -0.289  0.00  0.00    +0.400 HD
ATOM     16  O   LIG    1       -1.246   3.402   0.295  0.00  0.00    -0.520 OA
BRANCH  14  17
ATOM     17  C   LIG    1       -3.655   2.279  -0.158  0.00  0.00    +0.300 C 
ATOM     18  C   LIG    1       -4.662   1.516  -1.017  0.00  0.00    +0.020 C 
ATOM     19  C   LIG    1       -6.035   2.180  -0.859  0.00  0.00    +0.030 C 
ATOM     20  C   LIG    1       -6.544   1.902   0.555  0.00  0.00    +0.080 C 
ATOM     21  C   LIG    1       -5.495   2.260   1.574  0.00  0.00    -0.120 A 
ATOM     22  C   LIG    1       -5.898   2.423   2.896  0.00  0.00    +0.050 A 
ATOM     23  C   LIG    1       -4.948   2.748   3.849  0.00  0.00    -0.040 A 
ATOM     24  C   LIG    1       -3.632   2.900   3.454  0.00  0.00    +0.250 A 
ATOM     25  N   LIG    1       -3.288   2.740   2.194  0.00  0.00    -0.460 NA
ATOM     26  C   LIG    1       -4.168   2.430   1.251  0.00  0.00    +0.110 A 
ENDBRANCH  14  17
ENDBRANCH   8  13
BRANCH   1  28
ATOM     27  C   LIG    1        4.895  -4.053   0.298  0.00  0.00    +0.160 C 
ATOM     28  C   LIG    1        4.891  -2.733   0.128  0.00  0.00    -0.100 C 
ENDBRANCH   1  28
TORSDOF 3
