REMARK  Name = ZINCqH0000008lHx.0
REMARK                            x       y       z     vdW  Elec       q    Type
REMARK                         _______ _______ _______ _____ _____    ______ ____
ROOT
ATOM      1  N   LIG    1       -2.160  -1.388  -2.649  0.00  0.00    -0.720 N 
ATOM      2  H   LIG    1       -2.920  -1.745  -2.163  0.00  0.00    +0.410 HD
ATOM      3  C   LIG    1       -1.151  -0.794  -1.982  0.00  0.00    +0.510 C 
ATOM      4  O   LIG    1       -0.202  -0.347  -2.590  0.00  0.00    -0.520 OA
ENDROOT
BRANCH   1   6
ATOM      5  C   LIG    1       -2.651  -0.206  -4.733  0.00  0.00    +0.050 C 
ATOM      6  C   LIG    1       -2.111  -1.494  -4.109  0.00  0.00    +0.350 C 
BRANCH   6   7
ATOM      7  C   LIG    1       -2.953  -2.661  -4.557  0.00  0.00    +0.020 A 
ATOM      8  C   LIG    1       -2.622  -3.514  -5.536  0.00  0.00    -0.020 A 
ATOM      9  C   LIG    1       -3.724  -4.479  -5.627  0.00  0.00    -0.130 A 
ATOM     10  C   LIG    1       -3.982  -5.591  -6.427  0.00  0.00    +0.060 A 
ATOM     11  C   LIG    1       -5.149  -6.302  -6.248  0.00  0.00    +0.000 A 
ATOM     12  C   LIG    1       -6.062  -5.915  -5.278  0.00  0.00    +0.050 A 
ATOM     13  C   LIG    1       -5.818  -4.818  -4.479  0.00  0.00    +0.020 A 
ATOM     14  C   LIG    1       -4.648  -4.088  -4.643  0.00  0.00    +0.060 A 
ATOM     15  O   LIG    1       -4.141  -3.000  -4.028  0.00  0.00    -0.190 OA
ENDBRANCH   6   7
ENDBRANCH   1   6
BRANCH   3  16
ATOM     16  C   LIG    1       -1.203  -0.684  -0.480  0.00  0.00    +0.330 C 
BRANCH  16  17
ATOM     17  N   LIG    1        0.002  -0.004   0.002  0.00  0.00    -0.530 N 
ATOM     18  C   LIG    1       -0.020   1.327   0.019  0.00  0.00    +0.530 C 
ATOM     19  C   LIG    1        1.130   2.169   0.500  0.00  0.00    +0.150 C 
ATOM     20  S   LIG    1        1.951   1.316   1.878  0.00  0.00    -0.080 S 
ATOM     21  C   LIG    1        2.051  -0.338   1.272  0.00  0.00    -0.130 A 
ATOM     22  C   LIG    1        3.098  -1.159   1.657  0.00  0.00    +0.080 A 
ATOM     23  C   LIG    1        3.173  -2.453   1.175  0.00  0.00    +0.010 A 
ATOM     24  C   LIG    1        2.203  -2.924   0.310  0.00  0.00    +0.050 A 
ATOM     25  C   LIG    1        1.152  -2.112  -0.072  0.00  0.00    -0.010 A 
ATOM     26  O   LIG    1       -1.020   1.890  -0.374  0.00  0.00    -0.510 OA
ATOM     27  C   LIG    1        1.067  -0.808   0.401  0.00  0.00    +0.170 A 
ENDBRANCH  16  17
ENDBRANCH   3  16
TORSDOF 4
