REMARK  Name = ZINCvU0000000CX3.0
REMARK                            x       y       z     vdW  Elec       q    Type
REMARK                         _______ _______ _______ _____ _____    ______ ____
ROOT
ATOM      1  C   LIG    1       -2.949   5.682   3.096  0.00  0.00    -0.100 A 
ATOM      2  C   LIG    1       -3.078   7.045   3.359  0.00  0.00    +0.020 A 
ATOM      3  C   LIG    1       -1.958   7.855   3.368  0.00  0.00    +0.100 A 
ATOM      4  C   LIG    1       -0.704   7.319   3.116  0.00  0.00    +0.030 A 
ATOM      5  C   LIG    1       -0.559   5.971   2.858  0.00  0.00    +0.070 A 
ATOM      6  F   LIG    1       -2.085   9.175   3.623  0.00  0.00    -0.130 F 
ATOM      7  C   LIG    1       -1.676   5.141   2.840  0.00  0.00    +0.000 A 
ENDROOT
BRANCH   7   8
ATOM      8  C   LIG    1       -1.524   3.694   2.559  0.00  0.00    -0.050 A 
ATOM      9  C   LIG    1       -0.703   2.906   3.365  0.00  0.00    +0.060 A 
ATOM     10  C   LIG    1       -0.566   1.559   3.099  0.00  0.00    +0.020 A 
ATOM     11  C   LIG    1       -1.241   0.990   2.035  0.00  0.00    +0.070 A 
ATOM     12  C   LIG    1       -2.058   1.766   1.231  0.00  0.00    -0.180 A 
ATOM     13  C   LIG    1       -2.198   3.115   1.484  0.00  0.00    +0.130 A 
BRANCH  12  14
ATOM     14  C   LIG    1       -2.790   1.137   0.074  0.00  0.00    +0.510 C 
ATOM     15  F   LIG    1       -4.168   1.303   0.249  0.00  0.00    -0.170 F 
ATOM     16  F   LIG    1       -2.394   1.754  -1.118  0.00  0.00    -0.180 F 
ATOM     17  F   LIG    1       -2.487  -0.227   0.016  0.00  0.00    -0.180 F 
ENDBRANCH  12  14
ENDBRANCH   7   8
BRANCH   1  20
ATOM     18  N   LIG    1       -5.371   5.351   3.200  0.00  0.00    -0.720 N 
ATOM     19  H   LIG    1       -5.472   6.312   3.290  0.00  0.00    +0.400 HD
ATOM     20  C   LIG    1       -4.141   4.811   3.085  0.00  0.00    +0.560 C 
ATOM     21  O   LIG    1       -4.014   3.607   2.973  0.00  0.00    -0.510 OA
BRANCH  18  22
ATOM     22  C   LIG    1       -6.554   4.488   3.190  0.00  0.00    +0.400 C 
BRANCH  22  32
ATOM     23  C   LIG    1       -7.918   5.279   5.850  0.00  0.00    +0.330 C 
ATOM     24  N   LIG    1       -8.377   5.668   4.514  0.00  0.00    -0.480 N 
ATOM     25  C   LIG    1       -9.479   6.447   4.222  0.00  0.00    +0.050 A 
ATOM     26  C   LIG    1      -10.449   7.076   4.990  0.00  0.00    +0.010 A 
ATOM     27  C   LIG    1      -11.451   7.794   4.372  0.00  0.00    +0.040 A 
ATOM     28  C   LIG    1      -11.494   7.891   2.988  0.00  0.00    +0.000 A 
ATOM     29  C   LIG    1      -10.547   7.279   2.216  0.00  0.00    +0.070 A 
ATOM     30  C   LIG    1       -9.523   6.546   2.821  0.00  0.00    +0.040 A 
ATOM     31  N   LIG    1       -8.466   5.843   2.341  0.00  0.00    -0.470 NA
ATOM     32  C   LIG    1       -7.794   5.333   3.332  0.00  0.00    +0.250 A 
ENDBRANCH  22  32
ENDBRANCH  18  22
ENDBRANCH   1  20
TORSDOF 5
