REMARK  Name = ZINCrg00000fSghT.0
REMARK                            x       y       z     vdW  Elec       q    Type
REMARK                         _______ _______ _______ _____ _____    ______ ____
ROOT
ATOM      1  C   LIG    1        7.347  -1.224   1.470  0.00  0.00    +0.530 C 
ATOM      2  N   LIG    1        6.215  -1.200   0.740  0.00  0.00    -0.610 N 
ATOM      3  C   LIG    1        6.042  -0.232  -0.354  0.00  0.00    +0.300 C 
ATOM      4  C   LIG    1        4.704   0.488  -0.159  0.00  0.00    +0.200 C 
ATOM      5  N   LIG    1        3.629  -0.506  -0.035  0.00  0.00    -0.480 N 
ATOM      6  C   LIG    1        3.817  -1.347   1.155  0.00  0.00    +0.200 C 
ATOM      7  C   LIG    1        5.119  -2.142   1.014  0.00  0.00    +0.300 C 
ATOM      8  O   LIG    1        8.241  -0.440   1.229  0.00  0.00    -0.520 OA
ENDROOT
BRANCH   5   9
ATOM      9  C   LIG    1        2.386   0.106  -0.020  0.00  0.00    +0.350 A 
ATOM     10  N   LIG    1        2.062   0.956   0.949  0.00  0.00    -0.530 NA
ATOM     11  C   LIG    1        0.881   1.539   0.967  0.00  0.00    +0.510 A 
ATOM     12  N   LIG    1       -0.022   1.308   0.035  0.00  0.00    -0.510 NA
ATOM     13  C   LIG    1        0.225   0.472  -0.964  0.00  0.00    +0.350 A 
ATOM     14  C   LIG    1        1.451  -0.162  -1.024  0.00  0.00    -0.120 A 
ATOM     15 CL   LIG    1        1.820  -1.265  -2.313  0.00  0.00    -0.020 Cl
ENDBRANCH   5   9
BRANCH   1  16
ATOM     16  C   LIG    1        7.503  -2.225   2.586  0.00  0.00    +0.210 C 
BRANCH  16  24
ATOM     17  C   LIG    1       12.943  -3.464   2.895  0.00  0.00    +0.170 C 
ATOM     18  C   LIG    1       12.293  -2.486   3.840  0.00  0.00    +0.210 A 
ATOM     19  C   LIG    1       13.023  -1.872   4.806  0.00  0.00    -0.060 A 
ATOM     20  C   LIG    1       12.393  -0.968   5.669  0.00  0.00    +0.240 A 
ATOM     21  N   LIG    1       11.109  -0.718   5.545  0.00  0.00    -0.460 NA
ATOM     22  C   LIG    1       10.381  -1.319   4.596  0.00  0.00    +0.460 A 
ATOM     23  N   LIG    1        9.097  -1.242   4.268  0.00  0.00    -0.520 NA
ATOM     24  C   LIG    1        8.848  -2.042   3.240  0.00  0.00    +0.290 A 
ATOM     25  N   LIG    1        9.951  -2.656   2.883  0.00  0.00    -0.320 NA
ATOM     26  C   LIG    1       13.190  -0.278   6.746  0.00  0.00    +0.170 C 
ATOM     27  N   LIG    1       10.966  -2.206   3.738  0.00  0.00    -0.330 N 
ENDBRANCH  16  24
ENDBRANCH   1  16
TORSDOF 3
