REMARK  Name = ZINCrD00000F5LGl.0
REMARK                            x       y       z     vdW  Elec       q    Type
REMARK                         _______ _______ _______ _____ _____    ______ ____
ROOT
ATOM      1  C   LIG    1        3.527  -5.846   2.334  0.00  0.00    +0.160 C 
ATOM      2  C   LIG    1        3.363  -4.508   2.241  0.00  0.00    -0.060 C 
ENDROOT
BRANCH   1   5
ATOM      3  C   LIG    1        5.887  -8.294   3.917  0.00  0.00    +0.110 A 
ATOM      4  C   LIG    1        4.823  -7.783   3.201  0.00  0.00    +0.000 A 
ATOM      5  C   LIG    1        4.654  -6.396   3.099  0.00  0.00    -0.070 A 
ATOM      6  C   LIG    1        5.559  -5.537   3.732  0.00  0.00    +0.050 A 
ATOM      7  C   LIG    1        6.615  -6.056   4.449  0.00  0.00    -0.010 A 
ATOM      8  C   LIG    1        6.785  -7.431   4.545  0.00  0.00    +0.100 A 
BRANCH   3  10
ATOM      9  C   LIG    1        5.100 -10.464   3.346  0.00  0.00    +0.250 C 
ATOM     10  O   LIG    1        6.057  -9.640   4.014  0.00  0.00    -0.300 OA
ENDBRANCH   3  10
BRANCH   8  11
ATOM     11  O   LIG    1        7.828  -7.936   5.253  0.00  0.00    -0.310 OA
BRANCH  11  12
ATOM     12  C   LIG    1        8.709  -6.996   5.871  0.00  0.00    +0.600 C 
ATOM     13  F   LIG    1        7.989  -6.207   6.775  0.00  0.00    -0.200 F 
ATOM     14  F   LIG    1        9.281  -6.179   4.891  0.00  0.00    -0.200 F 
ENDBRANCH  11  12
ENDBRANCH   8  11
ENDBRANCH   1   5
BRANCH   2  15
ATOM     15  C   LIG    1        2.275  -3.977   1.503  0.00  0.00    +0.510 C 
ATOM     16  O   LIG    1        1.490  -4.726   0.953  0.00  0.00    -0.510 OA
BRANCH  15  17
ATOM     17  O   LIG    1        2.111  -2.641   1.410  0.00  0.00    -0.330 OA
BRANCH  17  18
ATOM     18  C   LIG    1        0.994  -2.175   0.650  0.00  0.00    +0.250 C 
BRANCH  18  19
ATOM     19  C   LIG    1        0.974  -0.668   0.659  0.00  0.00    +0.520 C 
ATOM     20  N   LIG    1        0.002  -0.004   0.002  0.00  0.00    -0.720 N 
ATOM     21  H   LIG    1       -0.684  -0.496  -0.476  0.00  0.00    +0.400 HD
ATOM     22  O   LIG    1        1.831  -0.054   1.256  0.00  0.00    -0.510 OA
BRANCH  20  23
ATOM     23  C   LIG    1       -0.018   1.461   0.010  0.00  0.00    +0.240 C 
ATOM     24  C   LIG    1       -0.734   1.954   1.269  0.00  0.00    +0.000 C 
ATOM     25  C   LIG    1       -0.755   3.484   1.277  0.00  0.00    +0.020 C 
ATOM     26  C   LIG    1       -1.495   3.991   0.038  0.00  0.00    +0.010 C 
ATOM     27  C   LIG    1       -0.778   3.497  -1.221  0.00  0.00    +0.020 C 
ATOM     28  C   LIG    1       -0.758   1.968  -1.230  0.00  0.00    +0.010 C 
ENDBRANCH  20  23
ENDBRANCH  18  19
ENDBRANCH  17  18
ENDBRANCH  15  17
ENDBRANCH   2  15
TORSDOF 9
