REMARK  Name = ZINCrg00000SjSzE.0
REMARK                            x       y       z     vdW  Elec       q    Type
REMARK                         _______ _______ _______ _____ _____    ______ ____
ROOT
ATOM      1  C   LIG    1       -1.661   4.017  -1.297  0.00  0.00    +0.540 C 
ATOM      2  N   LIG    1       -1.498   2.824  -0.691  0.00  0.00    -0.620 N 
ATOM      3  C   LIG    1       -0.805   1.619  -1.208  0.00  0.00    +0.250 C 
ATOM      4  C   LIG    1       -0.012   1.085   0.007  0.00  0.00    +0.030 C 
ATOM      5  C   LIG    1       -0.780   1.606   1.240  0.00  0.00    +0.030 C 
ATOM      6  C   LIG    1       -1.887   0.585  -1.556  0.00  0.00    +0.040 C 
ATOM      7  C   LIG    1       -2.616   0.179  -0.271  0.00  0.00    -0.010 C 
ATOM      8  C   LIG    1       -3.137   1.430   0.443  0.00  0.00    +0.030 C 
ATOM      9  C   LIG    1       -1.968   2.406   0.652  0.00  0.00    +0.230 C 
ATOM     10  O   LIG    1       -1.210   4.199  -2.408  0.00  0.00    -0.510 OA
ENDROOT
BRANCH   1  11
ATOM     11  C   LIG    1       -2.404   5.124  -0.595  0.00  0.00    +0.170 C 
ATOM     12  C   LIG    1       -3.832   4.666  -0.289  0.00  0.00    +0.040 C 
BRANCH  11  13
ATOM     13  O   LIG    1       -2.444   6.279  -1.435  0.00  0.00    -0.350 OA
BRANCH  13  14
ATOM     14  C   LIG    1       -2.480   7.516  -0.722  0.00  0.00    +0.210 C 
BRANCH  14  16
ATOM     15  C   LIG    1       -3.353   9.654  -1.515  0.00  0.00    +0.030 C 
ATOM     16  C   LIG    1       -2.520   8.660  -1.702  0.00  0.00    -0.030 C 
ENDBRANCH  14  16
ENDBRANCH  13  14
ENDBRANCH  11  13
ENDBRANCH   1  11
BRANCH   7  17
ATOM     17  C   LIG    1       -1.649  -0.567   0.649  0.00  0.00    +0.260 C 
BRANCH  17  18
ATOM     18  N   LIG    1       -2.347  -0.961   1.876  0.00  0.00    -0.720 N 
ATOM     19  H   LIG    1       -3.283  -0.736   1.994  0.00  0.00    +0.400 HD
ATOM     20  C   LIG    1       -1.689  -1.635   2.839  0.00  0.00    +0.540 C 
ATOM     21  O   LIG    1       -0.519  -1.916   2.691  0.00  0.00    -0.510 OA
BRANCH  20  22
ATOM     22  C   LIG    1       -2.407  -2.039   4.101  0.00  0.00    -0.440 C 
ATOM     23  C   LIG    1       -1.452  -1.966   5.308  0.00  0.00    +0.100 C 
ATOM     24  C   LIG    1       -1.833  -3.072   6.307  0.00  0.00    +0.080 C 
ATOM     25  C   LIG    1       -2.005  -4.374   5.483  0.00  0.00    -0.300 C 
ATOM     26  S   LIG    1       -2.920  -3.793   4.005  0.00  0.00    +2.400 S 
ATOM     27  O   LIG    1       -2.359  -4.385   2.841  0.00  0.00    -0.920 OA
ATOM     28  O   LIG    1       -4.317  -3.889   4.248  0.00  0.00    -0.920 OA
ENDBRANCH  20  22
ENDBRANCH  17  18
ENDBRANCH   7  17
TORSDOF 7
