REMARK  Name = ZINCAx0000000iW2.0
REMARK                            x       y       z     vdW  Elec       q    Type
REMARK                         _______ _______ _______ _____ _____    ______ ____
ROOT
ATOM      1  O   LIG    1       -5.243   4.025   0.693  0.00  0.00    -0.320 OA
ENDROOT
BRANCH   1   2
ATOM      2  C   LIG    1       -4.140   3.319   0.378  0.00  0.00    +0.510 C 
ATOM      3  O   LIG    1       -3.119   3.897   0.065  0.00  0.00    -0.470 OA
BRANCH   2   4
ATOM      4  C   LIG    1       -4.173   1.841   0.414  0.00  0.00    -0.070 A 
ATOM      5  C   LIG    1       -4.633   1.176   1.553  0.00  0.00    +0.100 A 
ATOM      6  C   LIG    1       -4.664  -0.205   1.588  0.00  0.00    +0.050 A 
ATOM      7  C   LIG    1       -4.242  -0.947   0.499  0.00  0.00    +0.110 A 
ATOM      8  C   LIG    1       -3.779  -0.304  -0.647  0.00  0.00    -0.120 A 
ATOM      9  C   LIG    1       -3.325  -1.089  -1.818  0.00  0.00    +0.440 C 
ATOM     10  O   LIG    1       -3.579  -2.274  -1.899  0.00  0.00    -0.420 OA
ATOM     11  C   LIG    1       -2.559  -0.412  -2.887  0.00  0.00    -0.120 A 
ATOM     12  C   LIG    1       -1.876  -1.152  -3.846  0.00  0.00    +0.070 A 
ATOM     13  C   LIG    1       -1.163  -0.501  -4.839  0.00  0.00    +0.040 A 
ATOM     14  C   LIG    1       -1.126   0.880  -4.885  0.00  0.00    +0.040 A 
ATOM     15  C   LIG    1       -1.801   1.632  -3.938  0.00  0.00    +0.070 A 
ATOM     16  C   LIG    1       -2.521   0.994  -2.933  0.00  0.00    -0.120 A 
ATOM     17  C   LIG    1       -3.243   1.780  -1.909  0.00  0.00    +0.430 C 
ATOM     18  O   LIG    1       -3.431   2.969  -2.066  0.00  0.00    -0.400 OA
ATOM     19  C   LIG    1       -3.741   1.098  -0.694  0.00  0.00    -0.070 A 
ENDBRANCH   2   4
ENDBRANCH   1   2
BRANCH   1  20
ATOM     20  C   LIG    1       -5.139   5.472   0.636  0.00  0.00    +0.260 C 
BRANCH  20  22
ATOM     21  O   LIG    1       -7.399   5.375   1.308  0.00  0.00    -0.520 OA
ATOM     22  C   LIG    1       -6.461   6.087   1.017  0.00  0.00    +0.510 C 
ATOM     23  N   LIG    1       -6.601   7.427   1.034  0.00  0.00    -0.710 N 
ATOM     24  H   LIG    1       -5.851   7.996   0.801  0.00  0.00    +0.410 HD
BRANCH  23  25
ATOM     25  C   LIG    1       -7.886   8.024   1.405  0.00  0.00    +0.290 C 
BRANCH  25  26
ATOM     26  C   LIG    1       -7.816   9.541   1.218  0.00  0.00    +0.100 C 
ATOM     27  C   LIG    1       -9.145  10.170   1.643  0.00  0.00    +0.000 C 
ATOM     28  C   LIG    1      -10.276   9.601   0.784  0.00  0.00    +0.020 C 
ATOM     29  C   LIG    1      -10.009   9.922  -0.688  0.00  0.00    +0.000 C 
ATOM     30  C   LIG    1       -8.680   9.293  -1.114  0.00  0.00    +0.020 C 
ATOM     31  C   LIG    1       -7.549   9.862  -0.255  0.00  0.00    +0.030 C 
BRANCH  26  32
ATOM     32  N   LIG    1       -6.730  10.087   2.042  0.00  0.00    -0.530 NA
ATOM     33  C   LIG    1       -6.932   9.762   3.462  0.00  0.00    +0.150 C 
ATOM     34  C   LIG    1       -5.750  10.297   4.275  0.00  0.00    +0.220 C 
ATOM     35  O   LIG    1       -5.624  11.704   4.054  0.00  0.00    -0.380 OA
ATOM     36  C   LIG    1       -5.425  12.056   2.683  0.00  0.00    +0.220 C 
ATOM     37  C   LIG    1       -6.603  11.540   1.853  0.00  0.00    +0.150 C 
ENDBRANCH  26  32
ENDBRANCH  25  26
ENDBRANCH  23  25
ENDBRANCH  20  22
ENDBRANCH   1  20
TORSDOF 7
