REMARK  Name = ZINCpk00000e9Qyc.0
REMARK                            x       y       z     vdW  Elec       q    Type
REMARK                         _______ _______ _______ _____ _____    ______ ____
ROOT
ATOM      1  N   LIG    1        3.579   3.857   1.136  0.00  0.00    -0.610 N 
ATOM      2  C   LIG    1        3.100   2.697   1.628  0.00  0.00    +0.520 C 
ATOM      3  O   LIG    1        2.400   1.988   0.937  0.00  0.00    -0.520 OA
ENDROOT
BRANCH   2   4
ATOM      4  C   LIG    1        3.434   2.282   3.038  0.00  0.00    +0.060 C 
ATOM      5  C   LIG    1        2.276   1.466   3.625  0.00  0.00    +0.050 C 
ATOM      6  C   LIG    1        2.706   0.840   4.954  0.00  0.00    +0.040 C 
ATOM      7  C   LIG    1        3.706  -0.293   4.693  0.00  0.00    +0.130 C 
ATOM      8  C   LIG    1        4.792   0.235   3.788  0.00  0.00    +0.090 A 
ATOM      9  N   LIG    1        5.970  -0.270   3.562  0.00  0.00    -0.290 NA
ATOM     10  N   LIG    1        6.635   0.564   2.651  0.00  0.00    -0.380 N 
ATOM     11  C   LIG    1        5.811   1.592   2.347  0.00  0.00    +0.230 A 
ATOM     12  C   LIG    1        7.987   0.359   2.124  0.00  0.00    +0.360 C 
ATOM     13  C   LIG    1        4.668   1.414   3.034  0.00  0.00    -0.230 A 
ENDBRANCH   2   4
BRANCH   1  14
ATOM     14  C   LIG    1        4.541   4.641   1.914  0.00  0.00    +0.290 C 
BRANCH  14  20
ATOM     15  C   LIG    1        9.076   6.552   1.849  0.00  0.00    +0.190 C 
ATOM     16  N   LIG    1        7.977   5.994   1.049  0.00  0.00    -0.540 NA
ATOM     17  C   LIG    1        7.544   6.943   0.014  0.00  0.00    +0.160 C 
ATOM     18  C   LIG    1        6.442   6.299  -0.832  0.00  0.00    +0.220 C 
ATOM     19  O   LIG    1        5.365   5.900   0.021  0.00  0.00    -0.370 OA
ATOM     20  C   LIG    1        5.752   4.975   1.041  0.00  0.00    +0.150 C 
ATOM     21  C   LIG    1        6.848   5.604   1.906  0.00  0.00    +0.160 C 
ENDBRANCH  14  20
ENDBRANCH   1  14
BRANCH   1  22
ATOM     22  C   LIG    1        3.138   4.333  -0.178  0.00  0.00    +0.330 C 
BRANCH  22  23
ATOM     23  C   LIG    1        1.839   5.126  -0.023  0.00  0.00    -0.060 C 
ATOM     24  C   LIG    1        0.572   4.533  -0.643  0.00  0.00    +0.020 C 
ATOM     25  C   LIG    1        1.239   5.752  -1.284  0.00  0.00    +0.010 C 
ENDBRANCH  22  23
ENDBRANCH   1  22
TORSDOF 5
