REMARK  Name = ZINCkj000005k9cW.1
REMARK                            x       y       z     vdW  Elec       q    Type
REMARK                         _______ _______ _______ _____ _____    ______ ____
ROOT
ATOM      1  C   LIG    1        5.627   0.540  -1.310  0.00  0.00    +0.180 C 
ATOM      2  C   LIG    1        6.113   1.978  -1.516  0.00  0.00    +0.020 C 
ATOM      3  C   LIG    1        7.632   1.976  -1.699  0.00  0.00    +0.250 C 
ATOM      4  N   LIG    1        7.987   1.165  -2.870  0.00  0.00    -0.380 N 
ATOM      5  C   LIG    1        7.589  -0.231  -2.648  0.00  0.00    +0.250 C 
ATOM      6  H   LIG    1        7.511   1.524  -3.683  0.00  0.00    +0.420 HD
ATOM      7  C   LIG    1        6.068  -0.314  -2.503  0.00  0.00    +0.070 C 
ENDROOT
BRANCH   1   8
ATOM      8  N   LIG    1        4.161   0.526  -1.211  0.00  0.00    -0.670 NA
ATOM      9  H   LIG    1        3.749   1.182  -1.858  0.00  0.00    +0.350 HD
BRANCH   8  10
ATOM     10  C   LIG    1        3.724   0.799   0.164  0.00  0.00    +0.280 C 
BRANCH  10  13
ATOM     11  C   LIG    1        1.923  -1.755   0.312  0.00  0.00    +0.120 C 
ATOM     12  C   LIG    1        1.439  -0.328   0.291  0.00  0.00    -0.200 A 
ATOM     13  C   LIG    1        2.219   0.776   0.227  0.00  0.00    +0.060 A 
ATOM     14  N   LIG    1        1.406   1.854   0.228  0.00  0.00    -0.480 N 
ATOM     15  H   LIG    1        1.688   2.781   0.189  0.00  0.00    +0.440 HD
ATOM     16  N   LIG    1        0.084   1.397   0.294  0.00  0.00    -0.280 NA
ATOM     17  C   LIG    1        0.105   0.089   0.332  0.00  0.00    +0.240 A 
ENDBRANCH  10  13
ENDBRANCH   8  10
ENDBRANCH   1   8
BRANCH   4  18
ATOM     18  C   LIG    1        9.439   1.229  -3.086  0.00  0.00    +0.280 C 
BRANCH  18  19
ATOM     19  C   LIG    1        9.865   2.689  -3.254  0.00  0.00    -0.050 C 
ATOM     20  C   LIG    1        9.290   3.274  -4.566  0.00  0.00    +0.010 C 
ATOM     21  C   LIG    1       10.478   4.118  -5.094  0.00  0.00    +0.230 C 
ATOM     22  O   LIG    1       11.634   3.328  -4.743  0.00  0.00    -0.370 OA
ATOM     23  C   LIG    1       11.392   2.788  -3.433  0.00  0.00    +0.230 C 
ENDBRANCH  18  19
ENDBRANCH   4  18
TORSDOF 5
