REMARK  Name = ZINCkj000005k9cW.0
REMARK                            x       y       z     vdW  Elec       q    Type
REMARK                         _______ _______ _______ _____ _____    ______ ____
ROOT
ATOM      1  C   LIG    1       -4.604  -0.917  -2.037  0.00  0.00    +0.140 C 
ATOM      2  C   LIG    1       -4.838  -0.477  -0.589  0.00  0.00    +0.060 C 
ATOM      3  C   LIG    1       -3.634  -0.884   0.263  0.00  0.00    +0.260 C 
ATOM      4  N   LIG    1       -2.422  -0.239  -0.257  0.00  0.00    -0.380 N 
ATOM      5  C   LIG    1       -2.152  -0.712  -1.620  0.00  0.00    +0.260 C 
ATOM      6  H   LIG    1       -2.553   0.761  -0.270  0.00  0.00    +0.420 HD
ATOM      7  C   LIG    1       -3.299  -0.298  -2.544  0.00  0.00    +0.070 C 
ENDROOT
BRANCH   1   8
ATOM      8  N   LIG    1       -5.722  -0.462  -2.875  0.00  0.00    -0.670 NA
ATOM      9  H   LIG    1       -6.581  -0.431  -2.347  0.00  0.00    +0.350 HD
BRANCH   8  10
ATOM     10  C   LIG    1       -5.867  -1.311  -4.065  0.00  0.00    +0.290 C 
BRANCH  10  17
ATOM     11  C   LIG    1       -8.883  -2.247  -3.811  0.00  0.00    +0.110 C 
ATOM     12  C   LIG    1       -8.351  -1.228  -4.786  0.00  0.00    -0.240 A 
ATOM     13  C   LIG    1       -9.078  -0.550  -5.704  0.00  0.00    +0.240 A 
ATOM     14  N   LIG    1       -8.234   0.257  -6.381  0.00  0.00    -0.470 N 
ATOM     15  H   LIG    1       -8.476   0.859  -7.102  0.00  0.00    +0.440 HD
ATOM     16  N   LIG    1       -6.948   0.073  -5.857  0.00  0.00    -0.270 NA
ATOM     17  C   LIG    1       -7.020  -0.815  -4.899  0.00  0.00    +0.070 A 
ENDBRANCH  10  17
ENDBRANCH   8  10
ENDBRANCH   1   8
BRANCH   4  18
ATOM     18  C   LIG    1       -1.283  -0.571   0.610  0.00  0.00    +0.270 C 
BRANCH  18  19
ATOM     19  C   LIG    1        0.002  -0.004   0.002  0.00  0.00    -0.050 C 
ATOM     20  C   LIG    1        1.224  -0.317   0.900  0.00  0.00    +0.040 C 
ATOM     21  C   LIG    1        2.055   0.981   0.873  0.00  0.00    +0.210 C 
ATOM     22  O   LIG    1        1.380   1.902  -0.001  0.00  0.00    -0.360 OA
ATOM     23  C   LIG    1       -0.019   1.546   0.011  0.00  0.00    +0.210 C 
ENDBRANCH  18  19
ENDBRANCH   4  18
TORSDOF 5
