REMARK  Name = ZINCtV00001bB3nQ.0
REMARK                            x       y       z     vdW  Elec       q    Type
REMARK                         _______ _______ _______ _____ _____    ______ ____
ROOT
ATOM      1  C   LIG    1        2.311   2.048   0.192  0.00  0.00    +0.260 C 
ATOM      2  N   LIG    1        2.703   0.841  -0.083  0.00  0.00    -0.230 NA
ENDROOT
BRANCH   1   9
ATOM      3  C   LIG    1        1.060   4.900   0.788  0.00  0.00    +0.170 C 
ATOM      4  C   LIG    1        0.316   3.674   0.324  0.00  0.00    +0.120 A 
ATOM      5  N   LIG    1       -0.967   3.598   0.095  0.00  0.00    -0.250 NA
ATOM      6  N   LIG    1       -1.276   2.299  -0.324  0.00  0.00    -0.310 N 
ATOM      7  C   LIG    1       -0.136   1.574  -0.338  0.00  0.00    +0.160 A 
ATOM      8 CL   LIG    1        0.015  -0.098  -0.782  0.00  0.00    +0.030 Cl
ATOM      9  C   LIG    1        0.887   2.409   0.062  0.00  0.00    -0.170 A 
BRANCH   6  10
ATOM     10  C   LIG    1       -2.551   1.829  -0.669  0.00  0.00    +0.140 A 
ATOM     11  C   LIG    1       -2.731   1.098  -1.835  0.00  0.00    +0.040 A 
ATOM     12  C   LIG    1       -3.988   0.632  -2.170  0.00  0.00    +0.040 A 
ATOM     13  C   LIG    1       -5.069   0.903  -1.351  0.00  0.00    +0.040 A 
ATOM     14  C   LIG    1       -4.895   1.637  -0.192  0.00  0.00    +0.050 A 
ATOM     15  C   LIG    1       -3.639   2.101   0.152  0.00  0.00    -0.020 A 
ATOM     16 CL   LIG    1       -3.421   3.022   1.607  0.00  0.00    -0.040 Cl
ENDBRANCH   6  10
ENDBRANCH   1   9
BRANCH   2  17
ATOM     17  N   LIG    1        4.049   0.489   0.074  0.00  0.00    -0.420 N 
BRANCH  17  18
ATOM     18  C   LIG    1        4.992   1.464   0.407  0.00  0.00    +0.120 A 
ATOM     19  C   LIG    1        5.143   2.589  -0.395  0.00  0.00    -0.010 A 
ATOM     20  C   LIG    1        6.072   3.554  -0.059  0.00  0.00    +0.030 A 
ATOM     21  C   LIG    1        6.860   3.396   1.067  0.00  0.00    +0.010 A 
ATOM     22  C   LIG    1        6.716   2.275   1.864  0.00  0.00    +0.030 A 
ATOM     23  C   LIG    1        5.785   1.309   1.538  0.00  0.00    +0.010 A 
ENDBRANCH  17  18
BRANCH  17  24
ATOM     24  C   LIG    1        4.449  -0.838  -0.103  0.00  0.00    +0.210 A 
ATOM     25  C   LIG    1        5.801  -1.159  -0.135  0.00  0.00    -0.050 A 
ATOM     26  C   LIG    1        6.192  -2.473  -0.304  0.00  0.00    +0.040 A 
ATOM     27  C   LIG    1        5.241  -3.466  -0.452  0.00  0.00    -0.040 A 
ATOM     28  C   LIG    1        3.895  -3.149  -0.426  0.00  0.00    +0.030 A 
ATOM     29  C   LIG    1        3.496  -1.838  -0.252  0.00  0.00    -0.020 A 
ENDBRANCH  17  24
ENDBRANCH   2  17
TORSDOF 5
