REMARK  Name = ZINCpe00000VVGPe.0
REMARK                            x       y       z     vdW  Elec       q    Type
REMARK                         _______ _______ _______ _____ _____    ______ ____
ROOT
ATOM      1  N   LIG    1        0.164   1.513  -0.571  0.00  0.00    -0.530 NA
ATOM      2  C   LIG    1        0.554   1.226   0.816  0.00  0.00    +0.180 C 
ATOM      3  C   LIG    1       -0.566   1.667   1.760  0.00  0.00    +0.190 C 
ATOM      4  N   LIG    1       -0.822   3.103   1.575  0.00  0.00    -0.520 NA
ATOM      5  C   LIG    1       -1.212   3.390   0.188  0.00  0.00    +0.200 C 
ATOM      6  C   LIG    1       -0.091   2.949  -0.757  0.00  0.00    +0.200 C 
ENDROOT
BRANCH   1   7
ATOM      7  C   LIG    1        1.183   1.034  -1.515  0.00  0.00    +0.270 C 
ATOM      8  C   LIG    1        0.765   1.393  -2.942  0.00  0.00    +0.080 C 
BRANCH   7  13
ATOM      9  C   LIG    1        2.997  -3.616  -1.110  0.00  0.00    +0.210 C 
ATOM     10  C   LIG    1        2.071  -2.432  -1.220  0.00  0.00    +0.170 A 
ATOM     11  N   LIG    1        0.773  -2.470  -1.239  0.00  0.00    -0.390 NA
ATOM     12  O   LIG    1        0.321  -1.349  -1.336  0.00  0.00    +0.090 OA
ATOM     13  C   LIG    1        1.318  -0.462  -1.391  0.00  0.00    +0.190 A 
ATOM     14  N   LIG    1        2.437  -1.142  -1.323  0.00  0.00    -0.480 NA
ENDBRANCH   7  13
ENDBRANCH   1   7
BRANCH   4  15
ATOM     15  C   LIG    1       -1.841   3.582   2.518  0.00  0.00    +0.180 C 
ATOM     16  C   LIG    1       -3.228   3.159   2.029  0.00  0.00    +0.040 C 
BRANCH  15  17
ATOM     17  C   LIG    1       -1.776   5.085   2.607  0.00  0.00    +0.520 C 
ATOM     18  N   LIG    1       -2.466   5.733   3.566  0.00  0.00    -0.640 N 
ATOM     19  H   LIG    1       -3.005   5.233   4.199  0.00  0.00    +0.420 HD
ATOM     20  O   LIG    1       -1.103   5.710   1.817  0.00  0.00    -0.440 OA
BRANCH  18  21
ATOM     21  C   LIG    1       -2.406   7.119   3.649  0.00  0.00    +0.540 A 
ATOM     22  N   LIG    1       -1.662   7.786   2.780  0.00  0.00    -0.500 NA
ATOM     23  C   LIG    1       -1.586   9.106   2.828  0.00  0.00    +0.350 A 
ATOM     24  C   LIG    1       -2.290   9.788   3.808  0.00  0.00    -0.110 A 
ATOM     25  C   LIG    1       -3.055   9.058   4.703  0.00  0.00    +0.350 A 
ATOM     26  N   LIG    1       -3.091   7.740   4.597  0.00  0.00    -0.550 NA
ENDBRANCH  18  21
ENDBRANCH  15  17
ENDBRANCH   4  15
TORSDOF 5
