REMARK  Name = ZINCrH00000No54I.0
REMARK                            x       y       z     vdW  Elec       q    Type
REMARK                         _______ _______ _______ _____ _____    ______ ____
ROOT
ATOM      1  C   LIG    1       -2.556   5.201   0.281  0.00  0.00    +0.480 C 
ATOM      2  C   LIG    1       -2.421   3.875  -0.069  0.00  0.00    -0.350 C 
ATOM      3  C   LIG    1       -3.570   2.964  -0.031  0.00  0.00    +0.590 C 
ATOM      4  N   LIG    1       -3.432   1.672  -0.373  0.00  0.00    -0.510 N 
ATOM      5  C   LIG    1       -2.263   1.145  -0.772  0.00  0.00    +0.580 C 
ATOM      6  C   LIG    1       -1.049   1.968  -0.858  0.00  0.00    -0.170 A 
ATOM      7  C   LIG    1        0.168   1.427  -1.273  0.00  0.00    +0.110 A 
ATOM      8  C   LIG    1        1.283   2.234  -1.346  0.00  0.00    -0.030 A 
ATOM      9  C   LIG    1        1.210   3.577  -1.006  0.00  0.00    +0.070 A 
ATOM     10  C   LIG    1        0.016   4.130  -0.589  0.00  0.00    -0.040 A 
ATOM     11  O   LIG    1       -2.208  -0.033  -1.068  0.00  0.00    -0.500 OA
ATOM     12  O   LIG    1       -4.658   3.380   0.323  0.00  0.00    -0.520 OA
ATOM     13  C   LIG    1       -1.119   3.333  -0.509  0.00  0.00    +0.060 A 
ENDROOT
BRANCH   4  14
ATOM     14  C   LIG    1       -4.552   0.841  -0.310  0.00  0.00    +0.340 A 
ATOM     15  C   LIG    1       -5.365   0.697  -1.427  0.00  0.00    +0.000 A 
ATOM     16  C   LIG    1       -6.470  -0.134  -1.352  0.00  0.00    +0.080 A 
ATOM     17  C   LIG    1       -6.729  -0.786  -0.154  0.00  0.00    -0.020 A 
ATOM     18  C   LIG    1       -5.880  -0.592   0.918  0.00  0.00    +0.280 A 
ATOM     19  N   LIG    1       -4.832   0.203   0.815  0.00  0.00    -0.470 NA
ENDBRANCH   4  14
BRANCH   1  20
ATOM     20  N   LIG    1       -1.489   5.887   0.768  0.00  0.00    -0.680 N 
ATOM     21  H   LIG    1       -0.661   5.420   0.964  0.00  0.00    +0.410 HD
BRANCH  20  28
ATOM     22  C   LIG    1       -0.881   7.002   3.371  0.00  0.00    +0.030 C 
ATOM     23  C   LIG    1       -0.580   7.747   2.069  0.00  0.00    -0.020 C 
ATOM     24  C   LIG    1       -0.684   9.255   2.309  0.00  0.00    +0.030 C 
ATOM     25  C   LIG    1       -0.382  10.000   1.007  0.00  0.00    +0.010 C 
ATOM     26  C   LIG    1       -1.391   9.583  -0.065  0.00  0.00    +0.020 C 
ATOM     27  C   LIG    1       -1.287   8.075  -0.304  0.00  0.00    +0.000 C 
ATOM     28  C   LIG    1       -1.589   7.330   0.997  0.00  0.00    +0.230 C 
ENDBRANCH  20  28
ENDBRANCH   1  20
TORSDOF 3
