REMARK  Name = ZINCpk000000nWF9.0
REMARK                            x       y       z     vdW  Elec       q    Type
REMARK                         _______ _______ _______ _____ _____    ______ ____
ROOT
ATOM      1  C   LIG    1        0.995  -2.898   5.049  0.00  0.00    +0.060 C 
ATOM      2  C   LIG    1        2.289  -2.915   4.233  0.00  0.00    -0.090 C 
ATOM      3  C   LIG    1        2.535  -1.642   3.406  0.00  0.00    +0.270 C 
ATOM      4  N   LIG    1        1.746  -2.256   2.327  0.00  0.00    -0.660 N 
ATOM      5  C   LIG    1        0.989  -1.811   1.305  0.00  0.00    +0.730 C 
ATOM      6  N   LIG    1        0.825  -0.487   1.113  0.00  0.00    -0.740 N 
ATOM      7  H   LIG    1        1.253   0.145   1.711  0.00  0.00    +0.400 HD
ATOM      8  O   LIG    1        0.453  -2.605   0.555  0.00  0.00    -0.570 OA
ATOM      9  C   LIG    1        3.503  -3.388   5.034  0.00  0.00    +0.050 C 
ATOM     10  C   LIG    1        2.153  -3.569   2.850  0.00  0.00    +0.310 C 
ENDROOT
BRANCH  10  11
ATOM     11  C   LIG    1        1.063  -4.607   2.781  0.00  0.00    -0.150 A 
ATOM     12  C   LIG    1        1.376  -5.957   2.824  0.00  0.00    +0.070 A 
ATOM     13  C   LIG    1        0.340  -6.877   2.757  0.00  0.00    -0.040 A 
ATOM     14  C   LIG    1       -0.960  -6.420   2.651  0.00  0.00    +0.250 A 
ATOM     15  N   LIG    1       -1.220  -5.128   2.612  0.00  0.00    -0.490 NA
ATOM     16  C   LIG    1       -0.262  -4.225   2.679  0.00  0.00    +0.300 A 
ENDBRANCH  10  11
BRANCH   6  17
ATOM     17  C   LIG    1        0.002  -0.004   0.002  0.00  0.00    +0.290 C 
BRANCH  17  18
ATOM     18  C   LIG    1       -0.019   1.526   0.010  0.00  0.00    -0.020 C 
ATOM     19  C   LIG    1       -0.822   2.064   1.224  0.00  0.00    +0.040 C 
ATOM     20  C   LIG    1       -1.312   3.442   0.729  0.00  0.00    +0.270 C 
ATOM     21  N   LIG    1       -1.294   3.410  -0.741  0.00  0.00    -1.010 NA
ATOM     22  C   LIG    1       -0.844   2.076  -1.179  0.00  0.00    +0.280 C 
BRANCH  21  23
ATOM     23  S   LIG    1       -1.710   4.664  -1.739  0.00  0.00    +2.630 S 
ATOM     24  O   LIG    1       -0.982   4.418  -2.934  0.00  0.00    -0.950 OA
ATOM     25  O   LIG    1       -1.467   5.827  -0.960  0.00  0.00    -0.950 OA
ATOM     26  C   LIG    1       -3.489   4.448  -2.021  0.00  0.00    -0.280 C 
ENDBRANCH  21  23
ENDBRANCH  17  18
ENDBRANCH   6  17
TORSDOF 4
