REMARK  Name = ZINCqH0000038RH2.0
REMARK                            x       y       z     vdW  Elec       q    Type
REMARK                         _______ _______ _______ _____ _____    ______ ____
ROOT
ATOM      1  C   LIG    1       -2.008  -2.275   1.437  0.00  0.00    +0.440 C 
ATOM      2  O   LIG    1       -1.824  -1.519   2.361  0.00  0.00    -0.460 OA
ENDROOT
BRANCH   1   3
ATOM      3  C   LIG    1       -1.866  -1.783   0.020  0.00  0.00    +0.430 C 
BRANCH   3   7
ATOM      4  C   LIG    1       -2.267   3.173   0.046  0.00  0.00    +0.350 C 
ATOM      5  N   LIG    1       -1.679   1.831   0.044  0.00  0.00    -0.540 N 
ATOM      6  C   LIG    1       -2.363   0.671   0.025  0.00  0.00    +0.690 A 
ATOM      7  N   LIG    1       -1.502  -0.364   0.030  0.00  0.00    -0.530 N 
ATOM      8  C   LIG    1       -0.205   0.145   0.049  0.00  0.00    +0.090 A 
ATOM      9  C   LIG    1        1.049  -0.446   0.061  0.00  0.00    +0.030 A 
ATOM     10  C   LIG    1        2.182   0.344   0.079  0.00  0.00    +0.030 A 
ATOM     11  C   LIG    1        2.070   1.724   0.085  0.00  0.00    +0.040 A 
ATOM     12  C   LIG    1        0.825   2.322   0.071  0.00  0.00    +0.030 A 
ATOM     13  O   LIG    1       -3.576   0.573   0.010  0.00  0.00    -0.550 OA
ATOM     14  C   LIG    1       -0.318   1.537   0.054  0.00  0.00    +0.100 A 
ENDBRANCH   3   7
ENDBRANCH   1   3
BRANCH   1  15
ATOM     15  O   LIG    1       -2.339  -3.555   1.673  0.00  0.00    -0.290 OA
BRANCH  15  16
ATOM     16  C   LIG    1       -2.348  -3.961   2.969  0.00  0.00    +0.100 A 
ATOM     17  C   LIG    1       -1.242  -4.552   3.511  0.00  0.00    +0.040 A 
ATOM     18  C   LIG    1       -1.234  -4.974   4.838  0.00  0.00    +0.050 A 
ATOM     19  C   LIG    1       -2.328  -4.811   5.634  0.00  0.00    -0.020 A 
ATOM     20  C   LIG    1       -3.486  -4.207   5.113  0.00  0.00    -0.040 A 
ATOM     21  C   LIG    1       -4.632  -4.023   5.904  0.00  0.00    +0.040 A 
ATOM     22  C   LIG    1       -5.735  -3.434   5.366  0.00  0.00    +0.030 A 
ATOM     23  C   LIG    1       -5.746  -3.011   4.039  0.00  0.00    +0.030 A 
ATOM     24  C   LIG    1       -4.654  -3.173   3.242  0.00  0.00    +0.030 A 
ATOM     25 CL   LIG    1       -2.292  -5.346   7.285  0.00  0.00    -0.050 Cl
ATOM     26  C   LIG    1       -3.496  -3.770   3.765  0.00  0.00    -0.040 A 
ENDBRANCH  15  16
ENDBRANCH   1  15
TORSDOF 4
