REMARK  Name = ZINC4e0000003Zr6.0
REMARK                            x       y       z     vdW  Elec       q    Type
REMARK                         _______ _______ _______ _____ _____    ______ ____
ROOT
ATOM      1  C   LIG    1       -0.013   1.086   0.008  0.00  0.00    +0.040 C 
ATOM      2  C   LIG    1       -0.718   1.572   1.248  0.00  0.00    +0.460 C 
ATOM      3  S   LIG    1        0.172   1.861   2.681  0.00  0.00    -0.970 S 
ATOM      4  O   LIG    1       -1.917   1.758   1.230  0.00  0.00    -0.530 OA
ENDROOT
TORSDOF 0
