REMARK  Name = ZINCpe000000Z4z8.0
REMARK                            x       y       z     vdW  Elec       q    Type
REMARK                         _______ _______ _______ _____ _____    ______ ____
ROOT
ATOM      1  O   LIG    1        0.015  10.583   0.588  0.00  0.00    -0.590 OA
ATOM      2  C   LIG    1       -0.542  10.044   1.525  0.00  0.00    +0.710 C 
ATOM      3  N   LIG    1       -1.244  10.783   2.408  0.00  0.00    -0.630 N 
ATOM      4  C   LIG    1       -1.436  12.226   2.200  0.00  0.00    +0.330 C 
ATOM      5  C   LIG    1       -2.936  12.535   2.323  0.00  0.00    +0.210 C 
ATOM      6  N   LIG    1       -3.433  12.021   3.607  0.00  0.00    -0.460 N 
ATOM      7  C   LIG    1       -3.312  10.559   3.678  0.00  0.00    +0.220 C 
ATOM      8  C   LIG    1       -1.832  10.168   3.607  0.00  0.00    +0.280 C 
ATOM      9  N   LIG    1       -0.456   8.708   1.682  0.00  0.00    -0.750 N 
ATOM     10  H   LIG    1       -0.837   8.287   2.468  0.00  0.00    +0.400 HD
ENDROOT
BRANCH   6  11
ATOM     11  C   LIG    1       -4.739  12.423   3.830  0.00  0.00    +0.490 A 
ATOM     12  N   LIG    1       -5.667  11.506   4.061  0.00  0.00    -0.550 NA
ATOM     13  C   LIG    1       -6.923  11.856   4.283  0.00  0.00    +0.340 A 
ATOM     14  C   LIG    1       -7.264  13.199   4.262  0.00  0.00    -0.110 A 
ATOM     15  C   LIG    1       -6.269  14.132   4.012  0.00  0.00    +0.350 A 
ATOM     16  N   LIG    1       -5.032  13.714   3.803  0.00  0.00    -0.530 NA
ENDBRANCH   6  11
BRANCH   9  17
ATOM     17  C   LIG    1        0.211   7.893   0.664  0.00  0.00    +0.280 C 
BRANCH  17  18
ATOM     18  C   LIG    1        0.170   6.421   1.082  0.00  0.00    +0.030 C 
BRANCH  18  19
ATOM     19  C   LIG    1        0.867   5.570   0.019  0.00  0.00    +0.170 C 
BRANCH  19  20
ATOM     20  O   LIG    1        0.828   4.196   0.409  0.00  0.00    -0.380 OA
BRANCH  20  21
ATOM     21  C   LIG    1        1.456   3.309  -0.519  0.00  0.00    +0.200 C 
BRANCH  21  22
ATOM     22  C   LIG    1        1.355   1.873  -0.003  0.00  0.00    +0.160 C 
ATOM     23  C   LIG    1        2.040   0.890  -0.985  0.00  0.00    +0.010 C 
ATOM     24  C   LIG    1        1.314  -0.441  -0.671  0.00  0.00    +0.000 C 
ATOM     25  C   LIG    1       -0.001  -0.004   0.003  0.00  0.00    +0.180 C 
ATOM     26  O   LIG    1       -0.021   1.433   0.010  0.00  0.00    -0.370 OA
ENDBRANCH  21  22
ENDBRANCH  20  21
ENDBRANCH  19  20
ENDBRANCH  18  19
ENDBRANCH  17  18
ENDBRANCH   9  17
TORSDOF 7
