REMARK  Name = ZINCpk00000xI6W5.0
REMARK                            x       y       z     vdW  Elec       q    Type
REMARK                         _______ _______ _______ _____ _____    ______ ____
ROOT
ATOM      1  S   LIG    1       -0.653   1.523   8.833  0.00  0.00    +2.700 S 
ATOM      2  O   LIG    1       -0.644   2.941   8.931  0.00  0.00    -0.950 OA
ATOM      3  O   LIG    1        0.147   0.682   9.651  0.00  0.00    -0.960 OA
ENDROOT
BRANCH   1   7
ATOM      4  C   LIG    1       -4.944   0.226   9.477  0.00  0.00    +0.210 A 
ATOM      5  C   LIG    1       -3.904  -0.661   9.724  0.00  0.00    -0.010 A 
ATOM      6  C   LIG    1       -2.597  -0.263   9.526  0.00  0.00    +0.140 A 
ATOM      7  C   LIG    1       -2.323   1.018   9.083  0.00  0.00    -0.700 A 
ATOM      8  C   LIG    1       -3.356   1.905   8.841  0.00  0.00    +0.140 A 
ATOM      9  C   LIG    1       -4.665   1.511   9.031  0.00  0.00    -0.030 A 
BRANCH   4  11
ATOM     10  C   LIG    1       -6.570  -1.047  10.659  0.00  0.00    +0.510 C 
ATOM     11  N   LIG    1       -6.270  -0.175   9.676  0.00  0.00    -0.680 N 
ATOM     12  H   LIG    1       -6.973   0.174   9.106  0.00  0.00    +0.420 HD
ATOM     13  O   LIG    1       -5.708  -1.410  11.432  0.00  0.00    -0.510 OA
BRANCH  10  15
ATOM     14  C   LIG    1       -8.046  -2.535  11.985  0.00  0.00    +0.050 C 
ATOM     15  C   LIG    1       -7.976  -1.570  10.799  0.00  0.00    +0.060 C 
ENDBRANCH  10  15
ENDBRANCH   4  11
ENDBRANCH   1   7
BRANCH   1  16
ATOM     16  N   LIG    1       -0.261   1.161   7.265  0.00  0.00    -1.120 NA
ATOM     17  H   LIG    1        0.421   0.497   7.077  0.00  0.00    +0.420 HD
BRANCH  16  18
ATOM     18  C   LIG    1       -0.944   1.843   6.163  0.00  0.00    +0.280 C 
BRANCH  18  19
ATOM     19  C   LIG    1       -0.165   1.621   4.865  0.00  0.00    +0.190 C 
BRANCH  19  20
ATOM     20  N   LIG    1       -0.850   2.304   3.760  0.00  0.00    -0.530 NA
ATOM     21  C   LIG    1       -0.270   1.922   2.464  0.00  0.00    +0.160 C 
ATOM     22  C   LIG    1       -1.050   2.609   1.339  0.00  0.00    +0.160 C 
ATOM     23  O   LIG    1       -1.029   4.024   1.546  0.00  0.00    -0.380 OA
ATOM     24  C   LIG    1       -1.586   4.431   2.799  0.00  0.00    +0.200 C 
ATOM     25  C   LIG    1       -3.056   4.011   2.864  0.00  0.00    +0.020 C 
ATOM     26  C   LIG    1       -0.402   2.279  -0.007  0.00  0.00    +0.050 C 
ATOM     27  C   LIG    1       -0.812   3.763   3.938  0.00  0.00    +0.160 C 
ENDBRANCH  19  20
ENDBRANCH  18  19
ENDBRANCH  16  18
ENDBRANCH   1  16
TORSDOF 7
