REMARK  Name = ZINCrD000000Ar5c.0
REMARK                            x       y       z     vdW  Elec       q    Type
REMARK                         _______ _______ _______ _____ _____    ______ ____
ROOT
ATOM      1  O   LIG    1       -1.204   2.837   0.023  0.00  0.00    -0.520 OA
ATOM      2  C   LIG    1       -1.187   1.624   0.017  0.00  0.00    +0.520 C 
ATOM      3  N   LIG    1       -0.011   0.966   0.007  0.00  0.00    -0.700 N 
ATOM      4  H   LIG    1        0.002  -0.004   0.002  0.00  0.00    +0.410 HD
ENDROOT
BRANCH   3   5
ATOM      5  C   LIG    1        1.248   1.716  -0.001  0.00  0.00    +0.300 C 
BRANCH   5   6
ATOM      6  C   LIG    1        1.629   2.071   1.413  0.00  0.00    -0.100 A 
ATOM      7  C   LIG    1        1.438   1.157   2.432  0.00  0.00    +0.020 A 
ATOM      8  C   LIG    1        1.793   1.481   3.728  0.00  0.00    +0.000 A 
ATOM      9  C   LIG    1        2.329   2.724   4.007  0.00  0.00    +0.000 A 
ATOM     10  C   LIG    1        2.515   3.641   2.989  0.00  0.00    +0.000 A 
ATOM     11  C   LIG    1        2.165   3.315   1.692  0.00  0.00    +0.020 A 
ENDBRANCH   5   6
BRANCH   5  12
ATOM     12  C   LIG    1        2.349   0.857  -0.625  0.00  0.00    +0.160 C 
BRANCH  12  13
ATOM     13  C   LIG    1        2.026   0.603  -2.076  0.00  0.00    +0.200 A 
ATOM     14  N   LIG    1        0.921   0.078  -2.529  0.00  0.00    -0.480 NA
ATOM     15  C   LIG    1        0.981   0.005  -3.866  0.00  0.00    +0.140 A 
ATOM     16  C   LIG    1        2.172   0.498  -4.257  0.00  0.00    +0.130 A 
ATOM     17  N   LIG    1        2.836   0.877  -3.121  0.00  0.00    -0.570 N 
ATOM     18  H   LIG    1        3.722   1.269  -3.076  0.00  0.00    +0.420 HD
ENDBRANCH  12  13
ENDBRANCH   5  12
ENDBRANCH   3   5
BRANCH   2  19
ATOM     19  C   LIG    1       -2.482   0.853   0.018  0.00  0.00    +0.230 C 
BRANCH  19  20
ATOM     20  O   LIG    1       -3.581   1.766   0.029  0.00  0.00    -0.290 OA
BRANCH  20  21
ATOM     21  C   LIG    1       -4.829   1.230   0.032  0.00  0.00    +0.130 A 
ATOM     22  C   LIG    1       -4.995  -0.147   0.025  0.00  0.00    -0.080 A 
ATOM     23  C   LIG    1       -6.265  -0.687   0.029  0.00  0.00    +0.050 A 
ATOM     24  C   LIG    1       -7.376   0.140   0.039  0.00  0.00    -0.140 A 
ATOM     25  C   LIG    1       -8.851  -0.201   0.045  0.00  0.00    +0.070 C 
ATOM     26  C   LIG    1       -9.567   1.097  -0.384  0.00  0.00    +0.030 C 
ATOM     27  C   LIG    1       -8.568   2.188   0.057  0.00  0.00    +0.080 C 
ATOM     28  C   LIG    1       -7.213   1.513   0.045  0.00  0.00    -0.060 A 
ATOM     29  C   LIG    1       -5.941   2.058   0.047  0.00  0.00    -0.010 A 
ENDBRANCH  20  21
ENDBRANCH  19  20
ENDBRANCH   2  19
TORSDOF 7
