REMARK  Name = ZINCnE000001TQp3.0
REMARK                            x       y       z     vdW  Elec       q    Type
REMARK                         _______ _______ _______ _____ _____    ______ ____
ROOT
ATOM      1  C   LIG    1       -0.055   4.246   0.021  0.00  0.00    -0.130 A 
ATOM      2  C   LIG    1        0.998   3.566  -0.596  0.00  0.00    +0.080 A 
ATOM      3  C   LIG    1        1.016   2.190  -0.606  0.00  0.00    +0.050 A 
ATOM      4  C   LIG    1       -0.018   1.473   0.001  0.00  0.00    +0.030 A 
ATOM      5  C   LIG    1       -1.073   2.153   0.613  0.00  0.00    +0.040 A 
ATOM      6  C   LIG    1       -1.090   3.529   0.628  0.00  0.00    +0.040 A 
ENDROOT
BRANCH   1   8
ATOM      7  O   LIG    1        0.966   6.345   0.119  0.00  0.00    -0.530 OA
ATOM      8  C   LIG    1       -0.076   5.723   0.032  0.00  0.00    +0.580 C 
ATOM      9  N   LIG    1       -1.248   6.381  -0.056  0.00  0.00    -0.610 N 
ATOM     10  C   LIG    1       -2.600   5.774  -0.067  0.00  0.00    +0.250 C 
ATOM     11  C   LIG    1       -3.615   6.925  -0.309  0.00  0.00    +0.030 C 
ATOM     12  C   LIG    1       -2.730   7.981  -0.989  0.00  0.00    -0.020 C 
ATOM     13  C   LIG    1       -3.187   9.420  -0.812  0.00  0.00    +0.030 C 
ATOM     14  C   LIG    1       -2.115  10.320  -1.445  0.00  0.00    +0.000 C 
ATOM     15  C   LIG    1       -0.747  10.095  -0.807  0.00  0.00    +0.010 C 
ATOM     16  C   LIG    1       -0.340   8.613  -0.862  0.00  0.00    +0.030 C 
ATOM     17  C   LIG    1       -1.425   7.821  -0.163  0.00  0.00    +0.210 C 
ENDBRANCH   1   8
BRANCH   4  18
ATOM     18  C   LIG    1        0.002  -0.004  -0.010  0.00  0.00    +0.160 A 
ATOM     19  N   LIG    1        0.927  -0.743  -0.552  0.00  0.00    -0.290 NA
ATOM     20  N   LIG    1        0.577  -2.086  -0.347  0.00  0.00    -0.380 NA
ATOM     21  C   LIG    1       -0.588  -2.087   0.336  0.00  0.00    +0.350 A 
ATOM     22  S   LIG    1       -1.460  -3.468   0.847  0.00  0.00    -0.690 S 
ATOM     23  O   LIG    1       -0.934  -0.805   0.545  0.00  0.00    -0.260 OA
ENDBRANCH   4  18
TORSDOF 2
