REMARK  Name = ZINCrH00000tj11c.0
REMARK                            x       y       z     vdW  Elec       q    Type
REMARK                         _______ _______ _______ _____ _____    ______ ____
ROOT
ATOM      1  N   LIG    1       -8.893   1.829   0.616  0.00  0.00    -0.530 N 
ATOM      2  C   LIG    1       -9.955   0.996   0.709  0.00  0.00    +0.560 A 
ATOM      3  C   LIG    1       -9.690  -0.449   0.677  0.00  0.00    -0.200 A 
ATOM      4  C   LIG    1      -10.716  -1.388   0.766  0.00  0.00    +0.150 A 
ATOM      5  C   LIG    1      -10.409  -2.732   0.731  0.00  0.00    -0.120 A 
ATOM      6  C   LIG    1       -9.090  -3.152   0.608  0.00  0.00    +0.110 A 
ATOM      7  C   LIG    1       -8.069  -2.248   0.519  0.00  0.00    +0.040 A 
ATOM      8 BR   LIG    1      -11.794  -4.013   0.851  0.00  0.00    -0.030 Br
ATOM      9  C   LIG    1       -8.349  -0.879   0.552  0.00  0.00    +0.180 A 
ATOM     10  N   LIG    1       -7.365   0.047   0.461  0.00  0.00    -0.540 NA
ATOM     11  O   LIG    1      -11.088   1.427   0.815  0.00  0.00    -0.500 OA
ATOM     12  C   LIG    1       -7.628   1.330   0.497  0.00  0.00    +0.360 A 
ENDROOT
BRANCH   1  14
ATOM     13  C   LIG    1       -9.309   3.791  -0.784  0.00  0.00    +0.060 C 
ATOM     14  C   LIG    1       -9.103   3.279   0.643  0.00  0.00    +0.290 C 
ENDBRANCH   1  14
BRANCH  12  15
ATOM     15  S   LIG    1       -6.285   2.465   0.379  0.00  0.00    +0.100 S 
BRANCH  15  16
ATOM     16  C   LIG    1       -4.903   1.304   0.246  0.00  0.00    +0.120 C 
BRANCH  16  17
ATOM     17  C   LIG    1       -3.611   2.072   0.132  0.00  0.00    +0.540 C 
ATOM     18  N   LIG    1       -2.442   1.411   0.021  0.00  0.00    -0.670 N 
ATOM     19  H   LIG    1       -2.436   0.444  -0.051  0.00  0.00    +0.420 HD
ATOM     20  O   LIG    1       -3.624   3.285   0.139  0.00  0.00    -0.500 OA
BRANCH  18  21
ATOM     21  C   LIG    1       -1.240   2.118   0.009  0.00  0.00    +0.190 A 
ATOM     22  C   LIG    1       -1.173   3.368  -0.589  0.00  0.00    +0.030 A 
ATOM     23  C   LIG    1        0.021   4.064  -0.605  0.00  0.00    +0.070 A 
ATOM     24  C   LIG    1        1.155   3.524  -0.021  0.00  0.00    +0.010 A 
ATOM     25  C   LIG    1        1.105   2.286   0.582  0.00  0.00    +0.090 A 
ATOM     26  C   LIG    1       -0.095   1.571   0.607  0.00  0.00    -0.060 A 
BRANCH  26  27
ATOM     27  C   LIG    1       -0.153   0.284   1.232  0.00  0.00    +0.250 C 
ATOM     28  N   LIG    1       -0.200  -0.737   1.729  0.00  0.00    -0.410 NA
ENDBRANCH  26  27
ENDBRANCH  18  21
ENDBRANCH  16  17
ENDBRANCH  15  16
ENDBRANCH  12  15
TORSDOF 6
