REMARK  Name = ZINCrH000004vHvG.0
REMARK                            x       y       z     vdW  Elec       q    Type
REMARK                         _______ _______ _______ _____ _____    ______ ____
ROOT
ATOM      1  N   LIG    1        2.401   1.105  -0.015  0.00  0.00    -0.740 N 
ATOM      2  H   LIG    1        3.233   1.603  -0.020  0.00  0.00    +0.400 HD
ENDROOT
BRANCH   1   8
ATOM      3  C   LIG    1        1.155   3.180   0.008  0.00  0.00    +0.070 A 
ATOM      4  C   LIG    1       -0.059   3.849   0.023  0.00  0.00    +0.060 A 
ATOM      5  C   LIG    1       -1.242   3.133   0.030  0.00  0.00    -0.040 A 
ATOM      6  C   LIG    1       -1.219   1.751   0.017  0.00  0.00    +0.070 A 
ATOM      7  C   LIG    1       -0.013   1.076   0.008  0.00  0.00    -0.060 A 
ATOM      8  C   LIG    1        1.179   1.786   0.000  0.00  0.00    +0.230 A 
BRANCH   3  14
ATOM      9  O   LIG    1        2.627   4.069  -2.245  0.00  0.00    -0.520 OA
ATOM     10  C   LIG    1        2.998   4.296  -1.113  0.00  0.00    +0.510 C 
ATOM     11  C   LIG    1        4.249   5.065  -0.748  0.00  0.00    +0.050 C 
ATOM     12  C   LIG    1        4.052   5.427   0.742  0.00  0.00    +0.050 C 
ATOM     13  C   LIG    1        3.076   4.325   1.208  0.00  0.00    +0.250 C 
ATOM     14  N   LIG    1        2.355   3.904   0.001  0.00  0.00    -0.570 N 
ENDBRANCH   3  14
ENDBRANCH   1   8
BRANCH   1  15
ATOM     15  C   LIG    1        2.423  -0.360  -0.022  0.00  0.00    +0.410 C 
BRANCH  15  16
ATOM     16  C   LIG    1        3.852  -0.840  -0.038  0.00  0.00    +0.160 A 
ATOM     17  N   LIG    1        4.568  -1.085  -1.096  0.00  0.00    -0.360 NA
ATOM     18  O   LIG    1        5.679  -1.454  -0.780  0.00  0.00    +0.100 OA
ATOM     19  C   LIG    1        5.781  -1.490   0.558  0.00  0.00    +0.230 A 
ATOM     20  N   LIG    1        4.613  -1.098   1.037  0.00  0.00    -0.460 NA
BRANCH  19  21
ATOM     21  C   LIG    1        6.966  -1.891   1.342  0.00  0.00    -0.080 A 
ATOM     22  C   LIG    1        6.922  -1.874   2.737  0.00  0.00    +0.160 A 
ATOM     23  C   LIG    1        8.030  -2.255   3.464  0.00  0.00    -0.010 A 
ATOM     24  C   LIG    1        9.191  -2.643   2.814  0.00  0.00    +0.170 A 
ATOM     25  C   LIG    1        9.244  -2.658   1.429  0.00  0.00    -0.030 A 
ATOM     26  F   LIG    1       10.274  -3.010   3.533  0.00  0.00    -0.120 F 
ATOM     27  C   LIG    1        8.139  -2.285   0.689  0.00  0.00    +0.170 A 
ATOM     28  F   LIG    1        8.191  -2.300  -0.661  0.00  0.00    -0.110 F 
ENDBRANCH  19  21
ENDBRANCH  15  16
ENDBRANCH   1  15
TORSDOF 5
