REMARK  Name = ZINCvU0000000Dpa.0
REMARK                            x       y       z     vdW  Elec       q    Type
REMARK                         _______ _______ _______ _____ _____    ______ ____
ROOT
ATOM      1  O   LIG    1       -5.932   3.457   1.109  0.00  0.00    -0.510 OA
ATOM      2  C   LIG    1       -4.926   4.084   0.850  0.00  0.00    +0.520 C 
ATOM      3  N   LIG    1       -3.760   3.436   0.654  0.00  0.00    -0.660 N 
ATOM      4  H   LIG    1       -2.943   3.940   0.514  0.00  0.00    +0.420 HD
ENDROOT
BRANCH   3   5
ATOM      5  C   LIG    1       -3.728   2.046   0.654  0.00  0.00    +0.200 A 
ATOM      6  C   LIG    1       -4.569   1.325   1.501  0.00  0.00    +0.040 A 
ATOM      7  C   LIG    1       -4.542  -0.054   1.503  0.00  0.00    +0.060 A 
ATOM      8  C   LIG    1       -3.679  -0.744   0.665  0.00  0.00    +0.070 A 
ATOM      9  C   LIG    1       -2.832  -0.046  -0.187  0.00  0.00    -0.100 A 
ATOM     10  C   LIG    1       -1.906  -0.769  -1.086  0.00  0.00    +0.440 C 
ATOM     11  O   LIG    1       -2.042  -1.961  -1.279  0.00  0.00    -0.420 OA
ATOM     12  C   LIG    1       -0.813  -0.023  -1.747  0.00  0.00    -0.120 A 
ATOM     13  C   LIG    1        0.235  -0.699  -2.361  0.00  0.00    +0.070 A 
ATOM     14  C   LIG    1        1.250   0.017  -2.973  0.00  0.00    +0.040 A 
ATOM     15  C   LIG    1        1.229   1.399  -2.979  0.00  0.00    +0.040 A 
ATOM     16  C   LIG    1        0.191   2.087  -2.373  0.00  0.00    +0.070 A 
ATOM     17  C   LIG    1       -0.835   1.385  -1.753  0.00  0.00    -0.120 A 
ATOM     18  C   LIG    1       -1.949   2.102  -1.093  0.00  0.00    +0.440 C 
ATOM     19  O   LIG    1       -2.121   3.288  -1.297  0.00  0.00    -0.440 OA
ATOM     20  C   LIG    1       -2.852   1.362  -0.195  0.00  0.00    -0.160 A 
ENDBRANCH   3   5
BRANCH   2  21
ATOM     21  C   LIG    1       -4.980   5.586   0.746  0.00  0.00    +0.070 C 
BRANCH  21  22
ATOM     22  C   LIG    1       -6.409   6.064   1.010  0.00  0.00    +0.070 C 
BRANCH  22  23
ATOM     23  C   LIG    1       -6.464   7.590   0.905  0.00  0.00    +0.200 C 
BRANCH  23  24
ATOM     24  O   LIG    1       -7.799   8.036   1.151  0.00  0.00    -0.300 OA
BRANCH  24  25
ATOM     25  C   LIG    1       -8.022   9.376   1.095  0.00  0.00    +0.150 A 
ATOM     26  C   LIG    1       -6.976  10.243   0.816  0.00  0.00    -0.040 A 
ATOM     27  C   LIG    1       -7.205  11.604   0.754  0.00  0.00    +0.080 A 
ATOM     28  C   LIG    1       -8.475  12.104   0.983  0.00  0.00    -0.060 A 
ATOM     29  C   LIG    1       -9.519  11.242   1.268  0.00  0.00    +0.090 A 
ATOM     30 CL   LIG    1       -8.758  13.816   0.913  0.00  0.00    -0.060 Cl
ATOM     31  C   LIG    1       -9.296   9.880   1.324  0.00  0.00    -0.060 A 
ATOM     32 CL   LIG    1      -10.606   8.798   1.682  0.00  0.00    -0.040 Cl
ENDBRANCH  24  25
ENDBRANCH  23  24
ENDBRANCH  22  23
ENDBRANCH  21  22
ENDBRANCH   2  21
TORSDOF 6
