REMARK  Name = ZINCqH0000008bbM.0
REMARK                            x       y       z     vdW  Elec       q    Type
REMARK                         _______ _______ _______ _____ _____    ______ ____
ROOT
ATOM      1  C   LIG    1       -1.040   4.711   0.475  0.00  0.00    +0.510 C 
ATOM      2  N   LIG    1        0.027   4.022   0.928  0.00  0.00    -0.610 N 
ATOM      3  C   LIG    1        0.137   3.696   2.352  0.00  0.00    +0.280 C 
ATOM      4  O   LIG    1       -1.131   4.981  -0.704  0.00  0.00    -0.520 OA
ENDROOT
BRANCH   2   5
ATOM      5  C   LIG    1        1.076   3.601  -0.004  0.00  0.00    +0.290 C 
ATOM      6  C   LIG    1        2.405   4.223   0.419  0.00  0.00    +0.010 C 
ATOM      7  C   LIG    1        3.521   3.604  -0.430  0.00  0.00    +0.020 C 
ATOM      8  C   LIG    1        3.699   2.147  -0.005  0.00  0.00    +0.080 C 
ATOM      9  C   LIG    1        2.374   1.430  -0.008  0.00  0.00    -0.070 A 
ATOM     10  C   LIG    1        2.391   0.041  -0.016  0.00  0.00    +0.000 A 
ATOM     11  C   LIG    1        1.211  -0.674  -0.012  0.00  0.00    +0.010 A 
ATOM     12  C   LIG    1        0.002  -0.004   0.002  0.00  0.00    +0.000 A 
ATOM     13  C   LIG    1       -0.017   1.375   0.010  0.00  0.00    +0.010 A 
ATOM     14  C   LIG    1        1.170   2.098   0.002  0.00  0.00    -0.090 A 
ENDBRANCH   2   5
BRANCH   1  15
ATOM     15  C   LIG    1       -2.119   5.144   1.433  0.00  0.00    +0.060 C 
BRANCH  15  17
ATOM     16  C   LIG    1       -4.238   6.449   1.656  0.00  0.00    +0.040 C 
ATOM     17  C   LIG    1       -3.206   5.902   0.668  0.00  0.00    +0.260 C 
BRANCH  17  18
ATOM     18  N   LIG    1       -3.865   4.992  -0.272  0.00  0.00    -0.710 N 
ATOM     19  H   LIG    1       -3.868   4.037  -0.103  0.00  0.00    +0.390 HD
ATOM     20  C   LIG    1       -4.469   5.483  -1.373  0.00  0.00    +0.570 C 
ATOM     21  O   LIG    1       -4.466   6.680  -1.586  0.00  0.00    -0.530 OA
BRANCH  20  22
ATOM     22  C   LIG    1       -5.134   4.565  -2.322  0.00  0.00    -0.130 A 
ATOM     23  C   LIG    1       -5.134   3.190  -2.084  0.00  0.00    +0.030 A 
ATOM     24  C   LIG    1       -5.761   2.339  -2.972  0.00  0.00    +0.000 A 
ATOM     25  C   LIG    1       -6.379   2.846  -4.101  0.00  0.00    +0.040 A 
ATOM     26  C   LIG    1       -6.378   4.208  -4.345  0.00  0.00    +0.000 A 
ATOM     27  C   LIG    1       -5.760   5.070  -3.463  0.00  0.00    +0.080 A 
ENDBRANCH  20  22
ENDBRANCH  17  18
ENDBRANCH  15  17
ENDBRANCH   1  15
TORSDOF 5
