REMARK  Name = ZINCrD00000fenb7.0
REMARK                            x       y       z     vdW  Elec       q    Type
REMARK                         _______ _______ _______ _____ _____    ______ ____
ROOT
ATOM      1  C   LIG    1        3.499   2.865  -0.650  0.00  0.00    +0.050 C 
ATOM      2  C   LIG    1        3.110   4.257  -0.084  0.00  0.00    +0.060 C 
ATOM      3  C   LIG    1        1.569   4.196  -0.046  0.00  0.00    +0.260 C 
ATOM      4  N   LIG    1        1.188   2.777  -0.022  0.00  0.00    -0.600 N 
ATOM      5  C   LIG    1       -0.073   2.302  -0.006  0.00  0.00    +0.620 C 
ATOM      6  O   LIG    1       -0.271   1.103   0.013  0.00  0.00    -0.490 OA
ATOM      7  C   LIG    1        2.414   1.958  -0.012  0.00  0.00    +0.300 C 
ENDROOT
BRANCH   1  14
ATOM      8  C   LIG    1        5.494   2.098  -2.596  0.00  0.00    +0.100 C 
ATOM      9  C   LIG    1        5.827   2.095  -1.126  0.00  0.00    -0.130 A 
ATOM     10  C   LIG    1        7.091   1.725  -0.694  0.00  0.00    +0.070 A 
ATOM     11  C   LIG    1        7.353   1.737   0.668  0.00  0.00    -0.030 A 
ATOM     12  C   LIG    1        6.352   2.115   1.543  0.00  0.00    +0.260 A 
ATOM     13  N   LIG    1        5.162   2.466   1.095  0.00  0.00    -0.470 NA
ATOM     14  C   LIG    1        4.876   2.461  -0.192  0.00  0.00    +0.130 A 
ENDBRANCH   1  14
BRANCH   5  15
ATOM     15  C   LIG    1       -1.221   3.243  -0.019  0.00  0.00    +0.150 A 
ATOM     16  N   LIG    1       -1.152   4.549  -0.035  0.00  0.00    -0.340 NA
ATOM     17  O   LIG    1       -2.264   5.030  -0.045  0.00  0.00    +0.120 OA
ATOM     18  C   LIG    1       -3.185   4.054  -0.028  0.00  0.00    +0.230 A 
ATOM     19  N   LIG    1       -2.529   2.909  -0.011  0.00  0.00    -0.420 NA
BRANCH  18  20
ATOM     20  C   LIG    1       -4.653   4.228  -0.028  0.00  0.00    -0.040 A 
ATOM     21  C   LIG    1       -5.490   3.111  -0.015  0.00  0.00    +0.090 A 
ATOM     22  C   LIG    1       -6.861   3.281  -0.010  0.00  0.00    +0.090 A 
ATOM     23  C   LIG    1       -7.406   4.555  -0.029  0.00  0.00    +0.070 A 
ATOM     24  C   LIG    1       -6.582   5.665  -0.047  0.00  0.00    +0.040 A 
ATOM     25  F   LIG    1       -7.674   2.201   0.007  0.00  0.00    -0.120 F 
ATOM     26  C   LIG    1       -5.208   5.510  -0.047  0.00  0.00    +0.130 A 
ATOM     27  F   LIG    1       -4.404   6.596  -0.065  0.00  0.00    -0.110 F 
ENDBRANCH  18  20
ENDBRANCH   5  15
TORSDOF 3
