REMARK  Name = ZINCrD0000076195.0
REMARK                            x       y       z     vdW  Elec       q    Type
REMARK                         _______ _______ _______ _____ _____    ______ ____
ROOT
ATOM      1  C   LIG    1        1.316  -2.374  -2.575  0.00  0.00    +0.290 A 
ATOM      2  N   LIG    1        2.573  -2.615  -2.809  0.00  0.00    -0.490 NA
ATOM      3  C   LIG    1        2.733  -2.985  -4.105  0.00  0.00    +0.050 A 
ATOM      4  C   LIG    1        3.842  -3.347  -4.874  0.00  0.00    +0.070 A 
ATOM      5  C   LIG    1        3.680  -3.677  -6.190  0.00  0.00    +0.000 A 
ATOM      6  C   LIG    1        2.423  -3.656  -6.775  0.00  0.00    +0.030 A 
ATOM      7  C   LIG    1        1.314  -3.302  -6.036  0.00  0.00    +0.010 A 
ATOM      8  C   LIG    1        1.459  -2.964  -4.698  0.00  0.00    +0.050 A 
ATOM      9  N   LIG    1        0.583  -2.578  -3.703  0.00  0.00    -0.470 N 
ENDROOT
BRANCH   1  10
ATOM     10  C   LIG    1        0.752  -1.939  -1.247  0.00  0.00    +0.310 C 
BRANCH  10  13
ATOM     11  C   LIG    1       -0.019   1.527   0.010  0.00  0.00    +0.170 C 
ATOM     12  C   LIG    1        0.002  -0.004   0.002  0.00  0.00    +0.160 C 
ATOM     13  N   LIG    1        0.756  -0.472  -1.170  0.00  0.00    -0.530 NA
ATOM     14  C   LIG    1        2.130   0.050  -1.148  0.00  0.00    +0.160 C 
ATOM     15  C   LIG    1        2.088   1.581  -1.128  0.00  0.00    +0.230 C 
ATOM     16  O   LIG    1        1.325   2.017   0.000  0.00  0.00    -0.380 OA
BRANCH  11  17
ATOM     17  C   LIG    1       -0.733   2.021   1.270  0.00  0.00    +0.060 C 
BRANCH  17  18
ATOM     18  C   LIG    1       -0.864   3.545   1.217  0.00  0.00    +0.170 C 
BRANCH  18  19
ATOM     19  O   LIG    1       -1.531   4.006   2.393  0.00  0.00    -0.580 OA
ATOM     20  H   LIG    1       -1.649   4.965   2.428  0.00  0.00    +0.380 HD
ENDBRANCH  18  19
ENDBRANCH  17  18
ENDBRANCH  11  17
ENDBRANCH  10  13
ENDBRANCH   1  10
BRANCH   9  21
ATOM     21  C   LIG    1       -0.867  -2.417  -3.837  0.00  0.00    +0.350 C 
BRANCH  21  22
ATOM     22  C   LIG    1       -1.178  -1.001  -4.250  0.00  0.00    -0.120 A 
ATOM     23  C   LIG    1       -1.398  -0.033  -3.288  0.00  0.00    +0.080 A 
ATOM     24  C   LIG    1       -1.678   1.266  -3.667  0.00  0.00    +0.020 A 
ATOM     25  C   LIG    1       -1.750   1.596  -5.008  0.00  0.00    -0.020 A 
ATOM     26  C   LIG    1       -1.535   0.625  -5.971  0.00  0.00    +0.010 A 
ATOM     27 CL   LIG    1       -2.108   3.227  -5.484  0.00  0.00    -0.070 Cl
ATOM     28  C   LIG    1       -1.250  -0.672  -5.591  0.00  0.00    +0.050 A 
ENDBRANCH  21  22
ENDBRANCH   9  21
TORSDOF 7
