REMARK  Name = ZINCpk000004KU8g.0
REMARK                            x       y       z     vdW  Elec       q    Type
REMARK                         _______ _______ _______ _____ _____    ______ ____
ROOT
ATOM      1  C   LIG    1       -0.990   5.517  -2.370  0.00  0.00    +0.250 C 
ENDROOT
BRANCH   1   2
ATOM      2  C   LIG    1       -0.508   5.235  -3.769  0.00  0.00    +0.510 C 
ATOM      3  N   LIG    1       -1.391   4.908  -4.733  0.00  0.00    -0.720 N 
ATOM      4  H   LIG    1       -2.343   4.924  -4.545  0.00  0.00    +0.400 HD
ATOM      5  O   LIG    1        0.675   5.302  -4.029  0.00  0.00    -0.500 OA
BRANCH   3   6
ATOM      6  C   LIG    1       -0.915   4.528  -6.066  0.00  0.00    +0.350 C 
ATOM      7  C   LIG    1       -1.954   3.631  -6.776  0.00  0.00    +0.080 C 
ATOM      8  C   LIG    1       -2.768   4.668  -7.580  0.00  0.00    +0.290 C 
ATOM      9  N   LIG    1       -1.856   5.800  -7.799  0.00  0.00    -0.480 N 
ATOM     10  C   LIG    1       -1.697   6.918  -8.579  0.00  0.00    +0.140 A 
ATOM     11  C   LIG    1       -0.556   7.511  -8.183  0.00  0.00    +0.160 A 
ATOM     12  N   LIG    1       -0.031   6.779  -7.191  0.00  0.00    -0.460 NA
ATOM     13  C   LIG    1       -0.804   5.749  -6.957  0.00  0.00    +0.170 A 
ENDBRANCH   3   6
ENDBRANCH   1   2
BRANCH   1  15
ATOM     14  C   LIG    1       -2.127   7.195  -0.909  0.00  0.00    +0.030 C 
ATOM     15  C   LIG    1       -1.527   6.948  -2.295  0.00  0.00    -0.010 C 
ATOM     16  C   LIG    1       -0.384   7.935  -2.539  0.00  0.00    +0.030 C 
ENDBRANCH   1  15
BRANCH   1  17
ATOM     17  N   LIG    1        0.123   5.364  -1.430  0.00  0.00    -1.090 NA
ATOM     18  H   LIG    1        0.893   5.951  -1.489  0.00  0.00    +0.430 HD
BRANCH  17  19
ATOM     19  S   LIG    1        0.067   4.187  -0.266  0.00  0.00    +2.690 S 
ATOM     20  O   LIG    1        1.298   4.262   0.440  0.00  0.00    -0.950 OA
ATOM     21  O   LIG    1       -1.200   4.308   0.367  0.00  0.00    -0.950 OA
BRANCH  19  22
ATOM     22  C   LIG    1        0.062   2.632  -1.095  0.00  0.00    -0.680 A 
ATOM     23  C   LIG    1        1.257   2.000  -1.385  0.00  0.00    +0.130 A 
ATOM     24  C   LIG    1        1.254   0.780  -2.035  0.00  0.00    -0.010 A 
ATOM     25  C   LIG    1        0.055   0.192  -2.395  0.00  0.00    +0.070 A 
ATOM     26  C   LIG    1       -1.139   0.827  -2.110  0.00  0.00    -0.010 A 
ATOM     27  C   LIG    1       -1.136   2.045  -1.455  0.00  0.00    +0.110 A 
ENDBRANCH  19  22
ENDBRANCH  17  19
ENDBRANCH   1  17
TORSDOF 6
