REMARK  Name = ZINCpe00000VVGjP.0
REMARK                            x       y       z     vdW  Elec       q    Type
REMARK                         _______ _______ _______ _____ _____    ______ ____
ROOT
ATOM      1  N   LIG    1       -2.457   2.111  -0.935  0.00  0.00    -0.990 NA
ATOM      2  C   LIG    1       -2.763   1.751   0.461  0.00  0.00    +0.270 C 
ATOM      3  C   LIG    1       -1.384   1.712   1.175  0.00  0.00    +0.040 C 
ATOM      4  C   LIG    1       -0.480   1.118   0.062  0.00  0.00    +0.050 C 
ATOM      5  C   LIG    1       -1.069   1.726  -1.228  0.00  0.00    +0.220 C 
ENDROOT
BRANCH   1   6
ATOM      6  S   LIG    1       -3.503   2.831  -1.998  0.00  0.00    +2.710 S 
ATOM      7  O   LIG    1       -2.700   3.482  -2.973  0.00  0.00    -0.920 OA
ATOM      8  O   LIG    1       -4.472   3.510  -1.210  0.00  0.00    -0.950 OA
BRANCH   6  13
ATOM      9  C   LIG    1       -6.441  -1.581  -4.880  0.00  0.00    +0.090 C 
ATOM     10  C   LIG    1       -5.707  -0.479  -4.160  0.00  0.00    -0.030 A 
ATOM     11  C   LIG    1       -6.219   0.039  -2.985  0.00  0.00    -0.010 A 
ATOM     12  C   LIG    1       -5.546   1.050  -2.325  0.00  0.00    +0.120 A 
ATOM     13  C   LIG    1       -4.361   1.542  -2.839  0.00  0.00    -0.690 A 
ATOM     14  C   LIG    1       -3.852   1.027  -4.017  0.00  0.00    +0.130 A 
ATOM     15  C   LIG    1       -4.522   0.013  -4.674  0.00  0.00    -0.010 A 
ENDBRANCH   6  13
ENDBRANCH   1   6
BRANCH   5  16
ATOM     16  C   LIG    1       -0.271   2.938  -1.634  0.00  0.00    +0.520 C 
ATOM     17  N   LIG    1        0.987   2.794  -2.097  0.00  0.00    -0.590 N 
ATOM     18  O   LIG    1       -0.761   4.044  -1.545  0.00  0.00    -0.490 OA
BRANCH  17  19
ATOM     19  C   LIG    1        1.783   3.976  -2.434  0.00  0.00    +0.230 C 
ATOM     20  C   LIG    1        1.950   4.851  -1.189  0.00  0.00    +0.030 C 
ATOM     21  C   LIG    1        1.072   4.775  -3.528  0.00  0.00    +0.030 C 
ENDBRANCH  17  19
BRANCH  17  22
ATOM     22  C   LIG    1        1.557   1.454  -2.262  0.00  0.00    +0.310 C 
BRANCH  22  23
ATOM     23  C   LIG    1        1.139   0.892  -3.596  0.00  0.00    +0.480 C 
ATOM     24  O   LIG    1        0.434   1.545  -4.336  0.00  0.00    -0.510 OA
ATOM     25  N   LIG    1        1.548  -0.337  -3.967  0.00  0.00    -0.860 N 
ATOM     26  H   LIG    1        1.280  -0.699  -4.826  0.00  0.00    +0.400 HD
ATOM     27  H   LIG    1        2.112  -0.860  -3.376  0.00  0.00    +0.400 HD
ENDBRANCH  22  23
ENDBRANCH  17  22
ENDBRANCH   5  16
TORSDOF 6
