REMARK  Name = ZINCBI00000008s6.0
REMARK                            x       y       z     vdW  Elec       q    Type
REMARK                         _______ _______ _______ _____ _____    ______ ____
ROOT
ATOM      1  N   LIG    1       -4.921   3.720  -0.857  0.00  0.00    -0.660 N 
ATOM      2  H   LIG    1       -4.248   3.564  -0.176  0.00  0.00    +0.420 HD
ATOM      3  C   LIG    1       -4.769   4.729  -1.737  0.00  0.00    +0.580 C 
ATOM      4  O   LIG    1       -5.652   4.977  -2.537  0.00  0.00    -0.520 OA
ENDROOT
BRANCH   3   5
ATOM      5  C   LIG    1       -3.534   5.533  -1.730  0.00  0.00    -0.190 A 
ATOM      6  C   LIG    1       -2.576   5.338  -0.736  0.00  0.00    +0.110 A 
ATOM      7  C   LIG    1       -1.413   6.089  -0.722  0.00  0.00    +0.050 A 
ATOM      8  C   LIG    1       -1.186   7.046  -1.693  0.00  0.00    +0.140 A 
ATOM      9  C   LIG    1       -2.132   7.259  -2.696  0.00  0.00    -0.190 A 
ATOM     10  C   LIG    1       -1.914   8.278  -3.740  0.00  0.00    +0.440 A 
ATOM     11  O   LIG    1       -0.827   8.802  -3.903  0.00  0.00    -0.440 OA
ATOM     12  C   LIG    1       -3.075   8.633  -4.578  0.00  0.00    -0.180 A 
ATOM     13  C   LIG    1       -3.048   9.755  -5.407  0.00  0.00    +0.100 A 
ATOM     14  C   LIG    1       -4.155  10.065  -6.170  0.00  0.00    +0.060 A 
ATOM     15  F   LIG    1       -4.136  11.150  -6.974  0.00  0.00    -0.130 F 
ATOM     16  C   LIG    1       -5.289   9.265  -6.115  0.00  0.00    +0.070 A 
ATOM     17  C   LIG    1       -5.327   8.152  -5.303  0.00  0.00    +0.010 A 
ATOM     18  C   LIG    1       -4.221   7.819  -4.526  0.00  0.00    +0.200 A 
ATOM     19  N   LIG    1       -4.246   6.700  -3.717  0.00  0.00    -0.620 N 
ATOM     20  H   LIG    1       -4.941   6.037  -3.852  0.00  0.00    +0.430 HD
ATOM     21  F   LIG    1       -0.494   5.886   0.247  0.00  0.00    -0.130 F 
ATOM     22  C   LIG    1       -3.316   6.502  -2.726  0.00  0.00    +0.280 A 
ENDBRANCH   3   5
BRANCH   1  27
ATOM     23  C   LIG    1       -8.396   2.610  -1.353  0.00  0.00    +0.120 A 
ATOM     24  C   LIG    1       -8.281   1.258  -1.058  0.00  0.00    -0.050 A 
ATOM     25  C   LIG    1       -7.056   0.729  -0.698  0.00  0.00    +0.060 A 
ATOM     26  C   LIG    1       -5.941   1.542  -0.636  0.00  0.00    -0.030 A 
ATOM     27  C   LIG    1       -6.050   2.897  -0.925  0.00  0.00    +0.160 A 
ATOM     28  C   LIG    1       -7.278   3.431  -1.287  0.00  0.00    +0.000 A 
BRANCH  23  32
ATOM     29  N   LIG    1      -12.370   3.823  -1.316  0.00  0.00    -0.530 NA
ATOM     30  C   LIG    1      -11.995   2.712  -2.202  0.00  0.00    +0.200 C 
ATOM     31  C   LIG    1      -10.674   2.105  -1.723  0.00  0.00    +0.210 C 
ATOM     32  N   LIG    1       -9.634   3.144  -1.717  0.00  0.00    -0.490 N 
ATOM     33  C   LIG    1      -10.009   4.255  -0.831  0.00  0.00    +0.210 C 
ATOM     34  C   LIG    1      -11.330   4.862  -1.309  0.00  0.00    +0.190 C 
BRANCH  29  35
ATOM     35  C   LIG    1      -13.672   4.385  -1.698  0.00  0.00    +0.190 C 
BRANCH  35  36
ATOM     36  C   LIG    1      -14.144   5.360  -0.618  0.00  0.00    +0.260 C 
BRANCH  36  38
ATOM     37  C   LIG    1      -16.453   4.852  -1.023  0.00  0.00    +0.320 C 
ATOM     38  N   LIG    1      -15.447   5.922  -1.000  0.00  0.00    -0.390 N 
ATOM     39  C   LIG    1      -15.844   6.946  -0.024  0.00  0.00    +0.320 C 
ATOM     40  H   LIG    1      -15.377   6.339  -1.916  0.00  0.00    +0.430 HD
ENDBRANCH  36  38
ENDBRANCH  35  36
ENDBRANCH  29  35
ENDBRANCH  23  32
ENDBRANCH   1  27
TORSDOF 6
