REMARK  Name = ZINCb80000001Oeq.0
REMARK                            x       y       z     vdW  Elec       q    Type
REMARK                         _______ _______ _______ _____ _____    ______ ____
ROOT
ATOM      1  C   LIG    1       -2.482   0.853   0.018  0.00  0.00    +0.070 C 
ATOM      2  C   LIG    1       -2.643   0.061  -1.302  0.00  0.00    +0.040 C 
ATOM      3  C   LIG    1       -4.149   0.254  -1.615  0.00  0.00    +0.220 C 
ATOM      4  O   LIG    1       -4.408   1.611  -1.195  0.00  0.00    -0.360 OA
ATOM      5  F   LIG    1       -2.536  -0.009   1.119  0.00  0.00    -0.180 F 
ATOM      6  C   LIG    1       -3.684   1.817   0.029  0.00  0.00    +0.190 C 
ATOM      7  C   LIG    1       -4.587   1.509   1.226  0.00  0.00    +0.030 C 
ENDROOT
BRANCH   1  11
ATOM      8  C   LIG    1        1.248   1.716  -0.001  0.00  0.00    +0.290 C 
ATOM      9  N   LIG    1       -0.011   0.966   0.007  0.00  0.00    -0.720 N 
ATOM     10  H   LIG    1        0.002  -0.004   0.002  0.00  0.00    +0.410 HD
ATOM     11  C   LIG    1       -1.187   1.624   0.017  0.00  0.00    +0.510 C 
ATOM     12  O   LIG    1       -1.204   2.837   0.023  0.00  0.00    -0.510 OA
ENDBRANCH   1  11
TORSDOF 1
