REMARK  Name = ZINCqH0000001PJ2.0
REMARK                            x       y       z     vdW  Elec       q    Type
REMARK                         _______ _______ _______ _____ _____    ______ ____
ROOT
ATOM      1  C   LIG    1        4.070   3.233   0.496  0.00  0.00    +0.570 C 
ATOM      2  N   LIG    1        3.403   2.135   0.903  0.00  0.00    -0.720 N 
ATOM      3  H   LIG    1        3.517   1.806   1.809  0.00  0.00    +0.400 HD
ATOM      4  O   LIG    1        3.926   3.645  -0.639  0.00  0.00    -0.520 OA
ENDROOT
BRANCH   2   5
ATOM      5  C   LIG    1        2.505   1.438  -0.021  0.00  0.00    +0.300 C 
ATOM      6  C   LIG    1        2.371  -0.026   0.405  0.00  0.00    +0.020 C 
ATOM      7  C   LIG    1        1.214  -0.653  -0.384  0.00  0.00    +0.260 C 
ATOM      8  O   LIG    1        0.002  -0.004   0.002  0.00  0.00    -0.310 OA
ATOM      9  C   LIG    1       -0.016   1.355   0.009  0.00  0.00    +0.130 A 
ATOM     10  C   LIG    1       -1.248   2.001   0.031  0.00  0.00    +0.020 A 
ATOM     11  C   LIG    1       -1.309   3.380   0.036  0.00  0.00    +0.030 A 
ATOM     12  C   LIG    1       -0.142   4.123   0.032  0.00  0.00    +0.060 A 
ATOM     13  C   LIG    1        1.084   3.483   0.015  0.00  0.00    +0.040 A 
ATOM     14  F   LIG    1       -0.200   5.473   0.045  0.00  0.00    -0.140 F 
ATOM     15  C   LIG    1        1.150   2.100   0.002  0.00  0.00    -0.150 A 
ENDBRANCH   2   5
BRANCH   1  22
ATOM     16  C   LIG    1        7.398   6.854   1.964  0.00  0.00    +0.080 A 
ATOM     17  N   LIG    1        7.895   6.875   3.165  0.00  0.00    -0.300 NA
ATOM     18  O   LIG    1        7.497   5.976   3.868  0.00  0.00    +0.090 OA
ATOM     19  C   LIG    1        6.630   5.162   3.242  0.00  0.00    +0.240 A 
ATOM     20  N   LIG    1        5.949   4.080   3.583  0.00  0.00    -0.460 NA
ATOM     21  C   LIG    1        5.148   3.470   2.736  0.00  0.00    +0.380 A 
ATOM     22  C   LIG    1        4.975   3.936   1.428  0.00  0.00    -0.210 A 
ATOM     23  C   LIG    1        5.677   5.073   1.014  0.00  0.00    +0.230 A 
ATOM     24  C   LIG    1        6.507   5.690   1.937  0.00  0.00    -0.220 A 
BRANCH  16  26
ATOM     25  C   LIG    1        7.273   9.231   1.269  0.00  0.00    +0.040 C 
ATOM     26  C   LIG    1        7.678   7.819   0.841  0.00  0.00    +0.080 C 
ATOM     27  C   LIG    1        9.171   7.796   0.508  0.00  0.00    +0.040 C 
ENDBRANCH  16  26
ENDBRANCH   1  22
TORSDOF 3
