REMARK  Name = ZINCqH0000003LwY.0
REMARK                            x       y       z     vdW  Elec       q    Type
REMARK                         _______ _______ _______ _____ _____    ______ ____
ROOT
ATOM      1  N   LIG    1       -1.191   1.867   0.018  0.00  0.00    -0.670 N 
ATOM      2  H   LIG    1       -1.127   2.703   0.506  0.00  0.00    +0.410 HD
ATOM      3  C   LIG    1       -0.098   1.347  -0.575  0.00  0.00    +0.510 C 
ATOM      4  O   LIG    1       -0.158   0.262  -1.114  0.00  0.00    -0.510 OA
ENDROOT
BRANCH   1   8
ATOM      5  C   LIG    1       -4.848  -0.126  -0.245  0.00  0.00    +0.090 A 
ATOM      6  C   LIG    1       -3.668  -0.848  -0.159  0.00  0.00    -0.020 A 
ATOM      7  C   LIG    1       -2.457  -0.188  -0.072  0.00  0.00    +0.030 A 
ATOM      8  C   LIG    1       -2.419   1.199  -0.070  0.00  0.00    +0.140 A 
ATOM      9  C   LIG    1       -3.600   1.926  -0.151  0.00  0.00    -0.060 A 
ATOM     10  C   LIG    1       -4.813   1.266  -0.244  0.00  0.00    +0.120 A 
BRANCH   5  11
ATOM     11  O   LIG    1       -6.039  -0.777  -0.331  0.00  0.00    -0.300 OA
BRANCH  11  13
ATOM     12  C   LIG    1       -7.424  -2.755  -0.430  0.00  0.00    +0.070 C 
ATOM     13  C   LIG    1       -6.000  -2.205  -0.327  0.00  0.00    +0.170 C 
ENDBRANCH  11  13
ENDBRANCH   5  11
BRANCH  10  14
ATOM     14  O   LIG    1       -5.970   1.975  -0.328  0.00  0.00    -0.300 OA
BRANCH  14  15
ATOM     15  C   LIG    1       -5.859   3.400  -0.321  0.00  0.00    +0.170 C 
ATOM     16  C   LIG    1       -7.254   4.020  -0.423  0.00  0.00    +0.070 C 
ENDBRANCH  14  15
ENDBRANCH  10  14
ENDBRANCH   1   8
BRANCH   3  17
ATOM     17  C   LIG    1        1.198   2.118  -0.575  0.00  0.00    +0.310 C 
BRANCH  17  18
ATOM     18  N   LIG    1        2.224   1.348  -1.283  0.00  0.00    -0.740 N 
ATOM     19  H   LIG    1        2.006   0.481  -1.661  0.00  0.00    +0.410 HD
BRANCH  18  20
ATOM     20  C   LIG    1        3.517   1.861  -1.414  0.00  0.00    +0.210 A 
ATOM     21  C   LIG    1        3.827   3.106  -0.877  0.00  0.00    -0.050 A 
ATOM     22  C   LIG    1        5.106   3.617  -0.998  0.00  0.00    +0.050 A 
ATOM     23  C   LIG    1        6.081   2.902  -1.662  0.00  0.00    +0.000 A 
ATOM     24  C   LIG    1        5.778   1.651  -2.211  0.00  0.00    -0.120 A 
ATOM     25  C   LIG    1        4.487   1.133  -2.083  0.00  0.00    +0.000 A 
BRANCH  24  26
ATOM     26  C   LIG    1        6.816   0.885  -2.920  0.00  0.00    +0.390 C 
ATOM     27  O   LIG    1        6.551  -0.199  -3.395  0.00  0.00    -0.460 OA
ATOM     28  C   LIG    1        8.207   1.447  -3.056  0.00  0.00    +0.080 C 
ENDBRANCH  24  26
ENDBRANCH  18  20
ENDBRANCH  17  18
ENDBRANCH   3  17
TORSDOF 9
