REMARK  Name = ZINCpe000000YQNy.0
REMARK                            x       y       z     vdW  Elec       q    Type
REMARK                         _______ _______ _______ _____ _____    ______ ____
ROOT
ATOM      1  C   LIG    1        0.897   1.067  -0.077  0.00  0.00    +0.050 C 
ENDROOT
BRANCH   1   3
ATOM      2  O   LIG    1       -1.039   2.176  -0.846  0.00  0.00    -0.540 OA
ATOM      3  C   LIG    1       -0.053   1.538  -1.148  0.00  0.00    +0.520 C 
ATOM      4  N   LIG    1        0.194   1.251  -2.441  0.00  0.00    -0.620 N 
ATOM      5  C   LIG    1        1.387   0.483  -2.830  0.00  0.00    +0.280 C 
ATOM      6  C   LIG    1        0.940  -0.678  -3.732  0.00  0.00    +0.170 C 
ATOM      7  N   LIG    1        0.152  -0.147  -4.852  0.00  0.00    -0.530 NA
ATOM      8  C   LIG    1       -1.081   0.496  -4.378  0.00  0.00    +0.170 C 
ATOM      9  C   LIG    1       -0.720   1.701  -3.502  0.00  0.00    +0.300 C 
BRANCH   7  10
ATOM     10  C   LIG    1       -0.147  -1.201  -5.831  0.00  0.00    +0.180 C 
BRANCH  10  11
ATOM     11  C   LIG    1       -0.507  -0.561  -7.174  0.00  0.00    +0.170 C 
BRANCH  11  12
ATOM     12  O   LIG    1        0.629   0.136  -7.689  0.00  0.00    -0.560 OA
ATOM     13  H   LIG    1        0.473   0.567  -8.541  0.00  0.00    +0.380 HD
ENDBRANCH  11  12
ENDBRANCH  10  11
ENDBRANCH   7  10
ENDBRANCH   1   3
BRANCH   1  14
ATOM     14  C   LIG    1        0.389   1.524   1.292  0.00  0.00    +0.030 C 
BRANCH  14  15
ATOM     15  C   LIG    1        1.353   1.045   2.379  0.00  0.00    +0.280 C 
BRANCH  15  16
ATOM     16  N   LIG    1        0.867   1.482   3.690  0.00  0.00    -0.550 N 
ATOM     17  C   LIG    1        1.258   2.670   4.186  0.00  0.00    +0.520 C 
ATOM     18  C   LIG    1        0.784   3.135   5.538  0.00  0.00    +0.070 C 
ATOM     19  C   LIG    1       -0.649   2.662   5.779  0.00  0.00    +0.090 C 
ATOM     20  C   LIG    1       -0.758   1.195   5.451  0.00  0.00    -0.120 A 
ATOM     21  C   LIG    1       -1.612   0.384   6.171  0.00  0.00    +0.050 A 
ATOM     22  C   LIG    1       -1.709  -0.962   5.867  0.00  0.00    -0.010 A 
ATOM     23  C   LIG    1       -0.953  -1.498   4.841  0.00  0.00    +0.040 A 
ATOM     24  C   LIG    1       -0.097  -0.691   4.117  0.00  0.00    -0.020 A 
ATOM     25  O   LIG    1        2.000   3.376   3.536  0.00  0.00    -0.520 OA
ATOM     26  C   LIG    1        0.003   0.660   4.420  0.00  0.00    +0.160 A 
ENDBRANCH  15  16
ENDBRANCH  14  15
ENDBRANCH   1  14
TORSDOF 7
