REMARK  Name = ZINCrH000004sAb7.0
REMARK                            x       y       z     vdW  Elec       q    Type
REMARK                         _______ _______ _______ _____ _____    ______ ____
ROOT
ATOM      1  S   LIG    1        6.553  -0.971   1.642  0.00  0.00    +1.260 S 
ATOM      2  O   LIG    1        5.626  -1.830   2.292  0.00  0.00    -0.820 OA
ENDROOT
BRANCH   1   3
ATOM      3  C   LIG    1        6.006  -0.669  -0.061  0.00  0.00    -0.160 C 
BRANCH   3  14
ATOM      4  C   LIG    1        5.967   2.218  -0.045  0.00  0.00    +0.160 C 
ATOM      5  C   LIG    1        4.667   1.455  -0.036  0.00  0.00    +0.110 A 
ATOM      6  N   LIG    1        3.529   2.110  -0.021  0.00  0.00    -0.420 NA
ATOM      7  C   LIG    1        2.375   1.434  -0.013  0.00  0.00    +0.080 A 
ATOM      8  C   LIG    1        1.141   2.106   0.003  0.00  0.00    +0.060 A 
ATOM      9  C   LIG    1       -0.017   1.389   0.010  0.00  0.00    +0.040 A 
ATOM     10  C   LIG    1        0.002  -0.004   0.002  0.00  0.00    +0.040 A 
ATOM     11  C   LIG    1        1.178  -0.688  -0.013  0.00  0.00    +0.060 A 
ATOM     12  C   LIG    1        2.394   0.016  -0.021  0.00  0.00    +0.080 A 
ATOM     13  N   LIG    1        3.566  -0.628  -0.037  0.00  0.00    -0.410 NA
ATOM     14  C   LIG    1        4.686   0.058  -0.044  0.00  0.00    +0.120 A 
ENDBRANCH   3  14
ENDBRANCH   1   3
BRANCH   1  15
ATOM     15  C   LIG    1        8.129  -1.840   1.417  0.00  0.00    -0.230 C 
BRANCH  15  16
ATOM     16  C   LIG    1        8.729  -2.170   2.786  0.00  0.00    +0.120 C 
BRANCH  16  17
ATOM     17  C   LIG    1       10.038  -2.892   2.599  0.00  0.00    -0.060 A 
ATOM     18  C   LIG    1       11.216  -2.173   2.513  0.00  0.00    +0.060 A 
ATOM     19  C   LIG    1       12.420  -2.831   2.342  0.00  0.00    +0.070 A 
ATOM     20  C   LIG    1       12.448  -4.213   2.256  0.00  0.00    +0.020 A 
ATOM     21  O   LIG    1       13.483  -5.089   2.091  0.00  0.00    -0.290 OA
ATOM     22  C   LIG    1       12.877  -6.324   1.668  0.00  0.00    +0.570 C 
ATOM     23  O   LIG    1       11.553  -6.267   2.231  0.00  0.00    -0.290 OA
ATOM     24  F   LIG    1       13.584  -7.419   2.178  0.00  0.00    -0.110 F 
ATOM     25  F   LIG    1       12.815  -6.388   0.272  0.00  0.00    -0.150 F 
ATOM     26  C   LIG    1       11.262  -4.938   2.342  0.00  0.00    +0.030 A 
ATOM     27  C   LIG    1       10.060  -4.272   2.519  0.00  0.00    +0.060 A 
ENDBRANCH  16  17
ENDBRANCH  15  16
ENDBRANCH   1  15
TORSDOF 5
