REMARK  Name = ZINCvU0000000Cdz.0
REMARK                            x       y       z     vdW  Elec       q    Type
REMARK                         _______ _______ _______ _____ _____    ______ ____
ROOT
ATOM      1  C   LIG    1        0.002  -0.004   0.002  0.00  0.00    +0.520 C 
ATOM      2  O   LIG    1        1.062  -0.597  -0.011  0.00  0.00    -0.490 OA
ENDROOT
BRANCH   1   3
ATOM      3  C   LIG    1       -1.268  -0.760   0.010  0.00  0.00    -0.060 A 
ATOM      4  C   LIG    1       -1.871  -1.133   1.213  0.00  0.00    -0.070 A 
ATOM      5  C   LIG    1       -1.178  -0.708   2.484  0.00  0.00    +0.070 C 
ATOM      6  C   LIG    1       -1.458  -1.684   3.626  0.00  0.00    +0.030 C 
ATOM      7  C   LIG    1       -2.691  -1.195   4.387  0.00  0.00    +0.020 C 
ATOM      8  C   LIG    1       -3.896  -1.163   3.452  0.00  0.00    +0.030 C 
ATOM      9  C   LIG    1       -3.745  -2.310   2.450  0.00  0.00    +0.110 C 
ATOM     10  C   LIG    1       -3.062  -1.840   1.190  0.00  0.00    +0.170 A 
ATOM     11  N   LIG    1       -3.647  -2.151   0.047  0.00  0.00    -0.460 NA
ATOM     12  C   LIG    1       -3.128  -1.834  -1.137  0.00  0.00    +0.140 A 
ATOM     13  C   LIG    1       -3.773  -2.190  -2.336  0.00  0.00    +0.050 A 
ATOM     14  C   LIG    1       -3.211  -1.857  -3.530  0.00  0.00    +0.040 A 
ATOM     15  C   LIG    1       -2.003  -1.165  -3.587  0.00  0.00    +0.030 A 
ATOM     16  C   LIG    1       -1.351  -0.801  -2.447  0.00  0.00    +0.020 A 
ATOM     17  C   LIG    1       -1.905  -1.120  -1.201  0.00  0.00    -0.070 A 
ENDBRANCH   1   3
BRANCH   1  18
ATOM     18  O   LIG    1       -0.016   1.343   0.009  0.00  0.00    -0.320 OA
BRANCH  18  20
ATOM     19  C   LIG    1        1.733   2.250   1.440  0.00  0.00    +0.070 C 
ATOM     20  C   LIG    1        1.268   2.020   0.001  0.00  0.00    +0.150 C 
BRANCH  20  21
ATOM     21  C   LIG    1        1.133   3.346  -0.701  0.00  0.00    +0.430 C 
ATOM     22  O   LIG    1        0.039   3.857  -0.827  0.00  0.00    -0.440 OA
BRANCH  21  23
ATOM     23  C   LIG    1        2.282   3.998  -1.214  0.00  0.00    -0.270 A 
ATOM     24  C   LIG    1        3.585   3.550  -1.151  0.00  0.00    +0.330 A 
ATOM     25  N   LIG    1        4.399   4.441  -1.749  0.00  0.00    -0.560 N 
ATOM     26  H   LIG    1        5.360   4.342  -1.829  0.00  0.00    +0.420 HD
ATOM     27  C   LIG    1        3.677   5.514  -2.232  0.00  0.00    +0.070 A 
ATOM     28  C   LIG    1        4.038   6.672  -2.913  0.00  0.00    +0.000 A 
ATOM     29  C   LIG    1        3.073   7.586  -3.276  0.00  0.00    +0.030 A 
ATOM     30  C   LIG    1        1.739   7.364  -2.970  0.00  0.00    +0.000 A 
ATOM     31  C   LIG    1        1.361   6.223  -2.295  0.00  0.00    +0.060 A 
ATOM     32  C   LIG    1        2.325   5.289  -1.929  0.00  0.00    -0.060 A 
ENDBRANCH  21  23
ENDBRANCH  20  21
ENDBRANCH  18  20
ENDBRANCH   1  18
TORSDOF 5
