REMARK  Name = ZINCrH000004tt3I.0
REMARK                            x       y       z     vdW  Elec       q    Type
REMARK                         _______ _______ _______ _____ _____    ______ ____
ROOT
ATOM      1  N   LIG    1       -7.341  -1.936   4.544  0.00  0.00    -0.670 N 
ATOM      2  H   LIG    1       -7.816  -2.272   3.768  0.00  0.00    +0.410 HD
ATOM      3  C   LIG    1       -6.289  -1.108   4.384  0.00  0.00    +0.560 C 
ATOM      4  O   LIG    1       -5.753  -0.611   5.355  0.00  0.00    -0.510 OA
ENDROOT
BRANCH   1   8
ATOM      5  C   LIG    1       -8.548  -3.051   8.370  0.00  0.00    -0.160 A 
ATOM      6  C   LIG    1       -9.495  -2.898   7.354  0.00  0.00    +0.100 A 
ATOM      7  C   LIG    1       -9.093  -2.529   6.090  0.00  0.00    -0.010 A 
ATOM      8  C   LIG    1       -7.745  -2.309   5.824  0.00  0.00    +0.180 A 
ATOM      9  C   LIG    1       -6.799  -2.466   6.833  0.00  0.00    +0.010 A 
ATOM     10  C   LIG    1       -7.195  -2.829   8.100  0.00  0.00    +0.070 A 
BRANCH   5  14
ATOM     11  N   LIG    1       -8.062  -3.595  10.705  0.00  0.00    -0.850 N 
ATOM     12  H   LIG    1       -8.343  -3.855  11.597  0.00  0.00    +0.410 HD
ATOM     13  H   LIG    1       -7.122  -3.441  10.519  0.00  0.00    +0.400 HD
ATOM     14  C   LIG    1       -8.976  -3.447   9.726  0.00  0.00    +0.570 C 
ATOM     15  O   LIG    1      -10.154  -3.640   9.960  0.00  0.00    -0.540 OA
ENDBRANCH   5  14
ENDBRANCH   1   8
BRANCH   3  16
ATOM     16  C   LIG    1       -5.788  -0.805   3.027  0.00  0.00    -0.100 A 
ATOM     17  C   LIG    1       -6.401  -1.374   1.910  0.00  0.00    +0.010 A 
ATOM     18  C   LIG    1       -5.931  -1.089   0.644  0.00  0.00    +0.060 A 
ATOM     19  C   LIG    1       -4.855  -0.235   0.478  0.00  0.00    -0.040 A 
ATOM     20  C   LIG    1       -4.235   0.331   1.584  0.00  0.00    +0.130 A 
ATOM     21  C   LIG    1       -4.699   0.052   2.858  0.00  0.00    +0.060 A 
BRANCH  20  22
ATOM     22  O   LIG    1       -3.175   1.165   1.415  0.00  0.00    -0.300 OA
BRANCH  22  23
ATOM     23  C   LIG    1       -2.750   1.410   0.072  0.00  0.00    +0.260 C 
BRANCH  23  24
ATOM     24  C   LIG    1       -1.573   2.350   0.082  0.00  0.00    -0.110 A 
ATOM     25  C   LIG    1       -0.287   1.847   0.153  0.00  0.00    +0.080 A 
ATOM     26  C   LIG    1        0.794   2.709   0.157  0.00  0.00    -0.020 A 
ATOM     27  C   LIG    1        0.588   4.077   0.095  0.00  0.00    +0.110 A 
ATOM     28  C   LIG    1       -0.700   4.580   0.029  0.00  0.00    -0.020 A 
ATOM     29  F   LIG    1        1.644   4.920   0.098  0.00  0.00    -0.140 F 
ATOM     30  C   LIG    1       -1.779   3.716   0.025  0.00  0.00    +0.080 A 
ENDBRANCH  23  24
ENDBRANCH  22  23
ENDBRANCH  20  22
ENDBRANCH   3  16
TORSDOF 6
