REMARK  Name = ZINCrg00000ccaPR.0
REMARK                            x       y       z     vdW  Elec       q    Type
REMARK                         _______ _______ _______ _____ _____    ______ ____
ROOT
ATOM      1  O   LIG    1       -0.759  -1.925   0.817  0.00  0.00    -0.580 OA
ATOM      2  C   LIG    1       -0.714  -0.713   0.897  0.00  0.00    +0.710 C 
ATOM      3  N   LIG    1        0.003  -0.004   0.003  0.00  0.00    -0.630 N 
ATOM      4  C   LIG    1       -0.015   1.467   0.012  0.00  0.00    +0.250 C 
ATOM      5  C   LIG    1        1.433   1.970   0.002  0.00  0.00    +0.210 C 
ATOM      6  O   LIG    1        2.139   1.351  -1.077  0.00  0.00    -0.350 OA
ATOM      7  C   LIG    1        2.234  -0.071  -0.974  0.00  0.00    +0.070 C 
ATOM      8  C   LIG    1        3.057  -0.615  -2.145  0.00  0.00    +0.050 C 
ATOM      9  C   LIG    1        4.483  -0.063  -2.052  0.00  0.00    +0.010 C 
ATOM     10  C   LIG    1        5.080  -0.441  -0.694  0.00  0.00    +0.210 C 
ATOM     11  O   LIG    1        4.249   0.072   0.350  0.00  0.00    -0.370 OA
ATOM     12  C   LIG    1        2.917  -0.446   0.342  0.00  0.00    +0.190 C 
ATOM     13  C   LIG    1        0.828  -0.679  -1.012  0.00  0.00    +0.290 C 
ATOM     14  N   LIG    1       -1.383  -0.077   1.880  0.00  0.00    -0.740 N 
ATOM     15  H   LIG    1       -1.409   0.892   1.901  0.00  0.00    +0.400 HD
ENDROOT
BRANCH  14  16
ATOM     16  C   LIG    1       -2.071  -0.851   2.916  0.00  0.00    +0.350 C 
BRANCH  16  17
ATOM     17  C   LIG    1       -2.736   0.091   3.887  0.00  0.00    -0.190 A 
ATOM     18  C   LIG    1       -2.053   0.536   5.011  0.00  0.00    +0.110 A 
ATOM     19  C   LIG    1       -2.697   1.404   5.875  0.00  0.00    -0.050 A 
ATOM     20  C   LIG    1       -4.004   1.790   5.595  0.00  0.00    +0.320 A 
ATOM     21  N   LIG    1       -4.623   1.339   4.515  0.00  0.00    -0.520 NA
ATOM     22  C   LIG    1       -4.032   0.515   3.672  0.00  0.00    +0.310 A 
BRANCH  20  23
ATOM     23  N   LIG    1       -4.665   2.657   6.457  0.00  0.00    -0.480 N 
ATOM     24  C   LIG    1       -4.691   2.121   7.826  0.00  0.00    +0.180 C 
ATOM     25  C   LIG    1       -5.374   3.132   8.751  0.00  0.00    +0.230 C 
ATOM     26  O   LIG    1       -6.686   3.414   8.255  0.00  0.00    -0.380 OA
ATOM     27  C   LIG    1       -6.698   3.938   6.924  0.00  0.00    +0.230 C 
ATOM     28  C   LIG    1       -6.028   2.936   5.981  0.00  0.00    +0.190 C 
ENDBRANCH  20  23
ENDBRANCH  16  17
ENDBRANCH  14  16
TORSDOF 3
