REMARK  Name = ZINCvU0000000AM3.0
REMARK                            x       y       z     vdW  Elec       q    Type
REMARK                         _______ _______ _______ _____ _____    ______ ____
ROOT
ATOM      1  C   LIG    1        0.566  -0.033   4.276  0.00  0.00    +0.160 A 
ATOM      2  N   LIG    1        1.468   0.883   4.007  0.00  0.00    -0.280 NA
ATOM      3  N   LIG    1        1.132   1.531   2.950  0.00  0.00    -0.240 NA
ATOM      4  C   LIG    1        0.000   1.080   2.488  0.00  0.00    +0.210 A 
ATOM      5  N   LIG    1       -0.401   0.064   3.314  0.00  0.00    -0.420 N 
ENDROOT
BRANCH   5   6
ATOM      6  C   LIG    1       -1.562  -0.715   3.197  0.00  0.00    +0.090 A 
ATOM      7  C   LIG    1       -2.811  -0.128   3.345  0.00  0.00    +0.070 A 
ATOM      8  C   LIG    1       -3.953  -0.896   3.225  0.00  0.00    +0.010 A 
ATOM      9  C   LIG    1       -3.852  -2.253   2.967  0.00  0.00    +0.120 A 
ATOM     10  C   LIG    1       -2.607  -2.841   2.825  0.00  0.00    +0.010 A 
ATOM     11  F   LIG    1       -4.970  -3.003   2.855  0.00  0.00    -0.130 F 
ATOM     12  C   LIG    1       -1.463  -2.076   2.939  0.00  0.00    +0.070 A 
ENDBRANCH   5   6
BRANCH   4  13
ATOM     13  C   LIG    1       -0.729   1.579   1.267  0.00  0.00    +0.230 C 
ATOM     14  C   LIG    1       -0.013   1.086   0.008  0.00  0.00    +0.070 C 
BRANCH  13  15
ATOM     15  N   LIG    1       -0.749   3.048   1.275  0.00  0.00    -0.520 NA
ATOM     16  C   LIG    1       -1.341   3.559   2.518  0.00  0.00    +0.160 C 
ATOM     17  C   LIG    1       -1.213   5.084   2.555  0.00  0.00    +0.040 C 
ATOM     18  C   LIG    1       -1.931   5.682   1.343  0.00  0.00    +0.010 C 
ATOM     19  C   LIG    1       -1.328   5.096   0.062  0.00  0.00    +0.020 C 
ATOM     20  C   LIG    1       -1.453   3.571   0.097  0.00  0.00    +0.160 C 
ENDBRANCH  13  15
ENDBRANCH   4  13
BRANCH   1  21
ATOM     21  S   LIG    1        0.595  -1.170   5.622  0.00  0.00    +0.050 S 
BRANCH  21  22
ATOM     22  C   LIG    1        2.146  -0.678   6.415  0.00  0.00    +0.160 C 
ATOM     23  C   LIG    1        2.014   0.748   6.953  0.00  0.00    +0.100 C 
BRANCH  22  27
ATOM     24  C   LIG    1        3.402  -2.924   8.919  0.00  0.00    +0.180 A 
ATOM     25  N   LIG    1        2.152  -2.797   9.250  0.00  0.00    -0.370 NA
ATOM     26  O   LIG    1        1.587  -2.051   8.479  0.00  0.00    +0.090 OA
ATOM     27  C   LIG    1        2.449  -1.618   7.553  0.00  0.00    +0.190 A 
ATOM     28  N   LIG    1        3.606  -2.173   7.822  0.00  0.00    -0.460 NA
BRANCH  24  29
ATOM     29  C   LIG    1        4.432  -3.764   9.629  0.00  0.00    +0.160 C 
BRANCH  29  31
ATOM     30  C   LIG    1        5.489  -6.024   9.752  0.00  0.00    +0.030 C 
ATOM     31  C   LIG    1        4.443  -5.172   9.030  0.00  0.00    +0.020 C 
ENDBRANCH  29  31
ENDBRANCH  24  29
ENDBRANCH  22  27
ENDBRANCH  21  22
ENDBRANCH   1  21
TORSDOF 8
