REMARK  Name = ZINCqH00000075SE.0
REMARK                            x       y       z     vdW  Elec       q    Type
REMARK                         _______ _______ _______ _____ _____    ______ ____
ROOT
ATOM      1  N   LIG    1        1.364  -4.843  -2.648  0.00  0.00    -0.610 N 
ATOM      2  C   LIG    1        1.348  -4.177  -1.477  0.00  0.00    +0.520 C 
ATOM      3  O   LIG    1        1.382  -4.789  -0.430  0.00  0.00    -0.540 OA
ATOM      4  C   LIG    1        1.323  -4.104  -3.912  0.00  0.00    +0.290 C 
ENDROOT
BRANCH   1   5
ATOM      5  C   LIG    1        1.423  -6.307  -2.657  0.00  0.00    +0.350 C 
BRANCH   5  12
ATOM      6  C   LIG    1       -0.710  -6.923  -3.824  0.00  0.00    +0.130 A 
ATOM      7  C   LIG    1       -1.998  -7.438  -3.811  0.00  0.00    -0.080 A 
ATOM      8  C   LIG    1       -2.547  -7.893  -2.628  0.00  0.00    +0.040 A 
ATOM      9  C   LIG    1       -1.815  -7.835  -1.457  0.00  0.00    -0.120 A 
ATOM     10  C   LIG    1       -0.528  -7.327  -1.468  0.00  0.00    +0.070 A 
ATOM     11  C   LIG    1       -2.416  -8.333  -0.168  0.00  0.00    +0.090 C 
ATOM     12  C   LIG    1        0.023  -6.866  -2.647  0.00  0.00    -0.140 A 
BRANCH   6  14
ATOM     13  C   LIG    1       -0.980  -6.564  -6.159  0.00  0.00    +0.250 C 
ATOM     14  O   LIG    1       -0.167  -6.475  -4.986  0.00  0.00    -0.320 OA
ENDBRANCH   6  14
ENDBRANCH   5  12
ENDBRANCH   1   5
BRANCH   2  15
ATOM     15  C   LIG    1        1.288  -2.671  -1.468  0.00  0.00    +0.050 C 
BRANCH  15  16
ATOM     16  C   LIG    1        1.281  -2.170  -0.022  0.00  0.00    +0.120 C 
BRANCH  16  17
ATOM     17  C   LIG    1        1.221  -0.664  -0.013  0.00  0.00    -0.200 A 
ATOM     18  C   LIG    1        0.002  -0.004   0.002  0.00  0.00    +0.200 A 
ATOM     19  N   LIG    1       -0.016   1.318   0.009  0.00  0.00    -0.510 NA
ATOM     20  C   LIG    1        1.114   2.011   0.002  0.00  0.00    +0.300 A 
ATOM     21  N   LIG    1        2.296   1.411  -0.012  0.00  0.00    -0.530 NA
ATOM     22  C   LIG    1       -1.287  -0.784   0.011  0.00  0.00    +0.160 C 
ATOM     23  C   LIG    1        2.384   0.091  -0.020  0.00  0.00    +0.200 A 
ATOM     24  C   LIG    1        3.731  -0.583  -0.036  0.00  0.00    +0.150 C 
BRANCH  20  25
ATOM     25  S   LIG    1        1.044   3.772   0.012  0.00  0.00    +0.000 S 
ATOM     26  C   LIG    1        2.812   4.157  -0.003  0.00  0.00    +0.150 C 
ENDBRANCH  20  25
ENDBRANCH  16  17
ENDBRANCH  15  16
ENDBRANCH   2  15
TORSDOF 7
