REMARK  Name = ZINCrH00000No4DV.0
REMARK                            x       y       z     vdW  Elec       q    Type
REMARK                         _______ _______ _______ _____ _____    ______ ____
ROOT
ATOM      1  O   LIG    1        6.067   1.764  -0.048  0.00  0.00    -0.320 OA
ENDROOT
BRANCH   1   2
ATOM      2  C   LIG    1        4.911   1.068  -0.040  0.00  0.00    +0.500 C 
ATOM      3  O   LIG    1        4.933  -0.148  -0.047  0.00  0.00    -0.510 OA
BRANCH   2   4
ATOM      4  C   LIG    1        3.632   1.776  -0.024  0.00  0.00    -0.040 C 
ATOM      5  C   LIG    1        2.476   1.081  -0.016  0.00  0.00    +0.140 C 
BRANCH   5   6
ATOM      6  C   LIG    1        1.188   1.793   0.000  0.00  0.00    -0.080 A 
ATOM      7  C   LIG    1        1.159   3.192   0.008  0.00  0.00    +0.070 A 
ATOM      8  C   LIG    1       -0.052   3.852   0.023  0.00  0.00    +0.020 A 
ATOM      9  C   LIG    1       -1.236   3.135   0.031  0.00  0.00    +0.090 A 
ATOM     10  C   LIG    1       -1.215   1.751   0.017  0.00  0.00    -0.180 A 
ATOM     11  C   LIG    1       -0.013   1.076   0.008  0.00  0.00    +0.100 A 
BRANCH  10  12
ATOM     12  C   LIG    1       -2.510   0.980   0.019  0.00  0.00    +0.510 C 
ATOM     13  F   LIG    1       -2.329  -0.237  -0.648  0.00  0.00    -0.180 F 
ATOM     14  F   LIG    1       -3.498   1.726  -0.632  0.00  0.00    -0.170 F 
ATOM     15  F   LIG    1       -2.904   0.734   1.339  0.00  0.00    -0.170 F 
ENDBRANCH  10  12
ENDBRANCH   5   6
ENDBRANCH   2   4
ENDBRANCH   1   2
BRANCH   1  16
ATOM     16  C   LIG    1        7.279   1.008  -0.064  0.00  0.00    +0.250 C 
BRANCH  16  18
ATOM     17  O   LIG    1        8.277   3.146  -0.061  0.00  0.00    -0.510 OA
ATOM     18  C   LIG    1        8.457   1.947  -0.070  0.00  0.00    +0.520 C 
ATOM     19  N   LIG    1        9.712   1.455  -0.085  0.00  0.00    -0.720 N 
ATOM     20  H   LIG    1        9.856   0.495  -0.092  0.00  0.00    +0.410 HD
BRANCH  19  21
ATOM     21  C   LIG    1       10.857   2.368  -0.091  0.00  0.00    +0.330 C 
BRANCH  21  22
ATOM     22  C   LIG    1       12.136   1.570  -0.108  0.00  0.00    -0.130 A 
ATOM     23  C   LIG    1       12.736   1.203   1.082  0.00  0.00    +0.070 A 
ATOM     24  C   LIG    1       13.906   0.466   1.067  0.00  0.00    -0.020 A 
ATOM     25  C   LIG    1       14.482   0.107  -0.139  0.00  0.00    +0.110 A 
ATOM     26  C   LIG    1       13.883   0.480  -1.330  0.00  0.00    -0.020 A 
ATOM     27  F   LIG    1       15.629  -0.608  -0.154  0.00  0.00    -0.140 F 
ATOM     28  C   LIG    1       12.710   1.212  -1.313  0.00  0.00    +0.070 A 
ENDBRANCH  21  22
ENDBRANCH  19  21
ENDBRANCH  16  18
ENDBRANCH   1  16
TORSDOF 8
