REMARK  Name = ZINCrg00000IZ1hI.0
REMARK                            x       y       z     vdW  Elec       q    Type
REMARK                         _______ _______ _______ _____ _____    ______ ____
ROOT
ATOM      1  C   LIG    1        0.539   5.990   3.368  0.00  0.00    +0.170 A 
ATOM      2  C   LIG    1       -0.004   5.299   2.293  0.00  0.00    +0.010 A 
ATOM      3  C   LIG    1        0.120   3.926   2.220  0.00  0.00    +0.060 A 
ATOM      4  C   LIG    1        0.790   3.236   3.222  0.00  0.00    +0.100 A 
ATOM      5  C   LIG    1        1.329   3.926   4.300  0.00  0.00    -0.030 A 
ATOM      6  C   LIG    1        2.050   3.176   5.390  0.00  0.00    +0.110 C 
ATOM      7  C   LIG    1        1.209   5.299   4.370  0.00  0.00    +0.040 A 
ENDROOT
BRANCH   4   8
ATOM      8  N   LIG    1        0.916   1.841   3.148  0.00  0.00    -0.330 N 
ATOM      9  N   LIG    1        2.085   1.079   3.323  0.00  0.00    -0.080 NA
ATOM     10  N   LIG    1        1.748  -0.156   3.169  0.00  0.00    -0.040 NA
ATOM     11  N   LIG    1        0.491  -0.245   2.922  0.00  0.00    -0.330 NA
ATOM     12  C   LIG    1       -0.059   0.941   2.894  0.00  0.00    +0.260 A 
BRANCH  12  13
ATOM     13  C   LIG    1       -1.511   1.247   2.631  0.00  0.00    +0.080 C 
ATOM     14  C   LIG    1       -2.382   0.471   3.621  0.00  0.00    +0.070 C 
ATOM     15  C   LIG    1       -1.869   0.834   1.203  0.00  0.00    +0.060 C 
ENDBRANCH  12  13
ENDBRANCH   4   8
BRANCH   1  17
ATOM     16  C   LIG    1        1.419   8.124   3.946  0.00  0.00    +0.510 C 
ATOM     17  N   LIG    1        0.413   7.382   3.442  0.00  0.00    -0.670 N 
ATOM     18  H   LIG    1       -0.399   7.812   3.131  0.00  0.00    +0.420 HD
ATOM     19  O   LIG    1        2.398   7.582   4.412  0.00  0.00    -0.500 OA
BRANCH  16  26
ATOM     20  C   LIG    1        5.034  10.707   3.617  0.00  0.00    +0.110 C 
ATOM     21  C   LIG    1        3.718  10.045   3.298  0.00  0.00    +0.530 C 
ATOM     22  N   LIG    1        2.662  10.213   4.119  0.00  0.00    -0.600 N 
ATOM     23  C   LIG    1        2.656  11.013   5.357  0.00  0.00    +0.240 C 
ATOM     24  C   LIG    1        1.171  11.399   5.573  0.00  0.00    +0.180 C 
ATOM     25  C   LIG    1        0.443  10.114   5.097  0.00  0.00    +0.070 C 
ATOM     26  C   LIG    1        1.327   9.628   3.929  0.00  0.00    +0.230 C 
ATOM     27  O   LIG    1        3.608   9.362   2.302  0.00  0.00    -0.530 OA
BRANCH  24  28
ATOM     28  O   LIG    1        0.904  11.658   6.952  0.00  0.00    -0.550 OA
ATOM     29  H   LIG    1        1.338  12.451   7.295  0.00  0.00    +0.390 HD
ENDBRANCH  24  28
ENDBRANCH  16  26
ENDBRANCH   1  17
TORSDOF 5
