REMARK  Name = ZINCqH0000006iFo.0
REMARK                            x       y       z     vdW  Elec       q    Type
REMARK                         _______ _______ _______ _____ _____    ______ ____
ROOT
ATOM      1  S   LIG    1       -5.074   2.517   0.061  0.00  0.00    +0.080 S 
ENDROOT
BRANCH   1  10
ATOM      2  N   LIG    1       -2.547   1.353   0.032  0.00  0.00    -0.470 N 
ATOM      3  C   LIG    1       -1.221   1.754   0.017  0.00  0.00    +0.060 A 
ATOM      4  C   LIG    1       -0.013   1.076   0.008  0.00  0.00    +0.010 A 
ATOM      5  C   LIG    1        1.172   1.784   0.000  0.00  0.00    +0.030 A 
ATOM      6  C   LIG    1        1.162   3.170   0.008  0.00  0.00    +0.010 A 
ATOM      7  C   LIG    1       -0.030   3.860   0.022  0.00  0.00    +0.060 A 
ATOM      8  C   LIG    1       -1.238   3.159   0.029  0.00  0.00    +0.060 A 
ATOM      9  N   LIG    1       -2.541   3.544   0.043  0.00  0.00    -0.490 NA
ATOM     10  C   LIG    1       -3.312   2.485   0.045  0.00  0.00    +0.250 A 
BRANCH   2  11
ATOM     11  C   LIG    1       -3.038  -0.027   0.030  0.00  0.00    +0.320 C 
BRANCH  11  12
ATOM     12  C   LIG    1       -3.222  -0.501  -1.413  0.00  0.00    +0.170 C 
BRANCH  12  14
ATOM     13  C   LIG    1       -3.906  -2.389  -2.721  0.00  0.00    +0.210 C 
ATOM     14  O   LIG    1       -3.700  -1.848  -1.415  0.00  0.00    -0.390 OA
ENDBRANCH  12  14
ENDBRANCH  11  12
ENDBRANCH   2  11
ENDBRANCH   1  10
BRANCH   1  15
ATOM     15  C   LIG    1       -5.357   4.304   0.073  0.00  0.00    +0.110 C 
BRANCH  15  16
ATOM     16  C   LIG    1       -6.838   4.579   0.088  0.00  0.00    +0.530 C 
ATOM     17  N   LIG    1       -7.288   5.849   0.099  0.00  0.00    -0.710 N 
ATOM     18  H   LIG    1       -6.659   6.587   0.097  0.00  0.00    +0.400 HD
ATOM     19  O   LIG    1       -7.626   3.656   0.091  0.00  0.00    -0.520 OA
BRANCH  17  20
ATOM     20  C   LIG    1       -8.729   6.116   0.114  0.00  0.00    +0.240 C 
ATOM     21  C   LIG    1       -9.267   6.092  -1.318  0.00  0.00    +0.010 C 
ATOM     22  C   LIG    1       -8.558   7.165  -2.147  0.00  0.00    +0.000 C 
ATOM     23  C   LIG    1       -8.816   8.541  -1.528  0.00  0.00    +0.000 C 
ATOM     24  C   LIG    1       -8.277   8.564  -0.096  0.00  0.00    -0.020 C 
ATOM     25  C   LIG    1       -8.535   9.940   0.523  0.00  0.00    +0.030 C 
ATOM     26  C   LIG    1       -8.986   7.491   0.733  0.00  0.00    +0.000 C 
ATOM     27  C   LIG    1       -8.448   7.515   2.165  0.00  0.00    +0.020 C 
ENDBRANCH  17  20
ENDBRANCH  15  16
ENDBRANCH   1  15
TORSDOF 7
