REMARK  Name = ZINCrD0000072sPk.0
REMARK                            x       y       z     vdW  Elec       q    Type
REMARK                         _______ _______ _______ _____ _____    ______ ____
ROOT
ATOM      1  C   LIG    1       -1.422   5.761   5.181  0.00  0.00    +0.280 C 
ATOM      2  N   LIG    1       -1.923   5.923   3.814  0.00  0.00    -0.610 N 
ATOM      3  C   LIG    1       -1.591   5.027   2.863  0.00  0.00    +0.510 C 
ATOM      4  O   LIG    1       -2.007   5.162   1.732  0.00  0.00    -0.510 OA
ENDROOT
BRANCH   2   5
ATOM      5  C   LIG    1       -2.786   7.060   3.480  0.00  0.00    +0.300 C 
ATOM      6  C   LIG    1       -2.030   8.360   3.745  0.00  0.00    +0.010 C 
ATOM      7  C   LIG    1       -3.013   9.528   3.600  0.00  0.00    +0.020 C 
ATOM      8  C   LIG    1       -3.993   9.482   4.770  0.00  0.00    +0.080 C 
ATOM      9  C   LIG    1       -4.595   8.108   4.904  0.00  0.00    -0.070 A 
ATOM     10  C   LIG    1       -5.755   7.980   5.656  0.00  0.00    +0.000 A 
ATOM     11  C   LIG    1       -6.352   6.748   5.819  0.00  0.00    +0.010 A 
ATOM     12  C   LIG    1       -5.792   5.630   5.231  0.00  0.00    -0.010 A 
ATOM     13  C   LIG    1       -4.640   5.755   4.481  0.00  0.00    +0.010 A 
ATOM     14  C   LIG    1       -4.038   6.995   4.315  0.00  0.00    -0.090 A 
ENDBRANCH   2   5
BRANCH   3  15
ATOM     15  C   LIG    1       -0.705   3.858   3.207  0.00  0.00    +0.220 C 
BRANCH  15  16
ATOM     16  N   LIG    1       -0.405   3.096   1.987  0.00  0.00    -0.490 N 
ATOM     17  C   LIG    1        0.669   2.127   2.224  0.00  0.00    +0.230 C 
ATOM     18  C   LIG    1        0.789   1.162   1.041  0.00  0.00    +0.050 C 
ATOM     19  C   LIG    1        0.704   1.922  -0.256  0.00  0.00    +0.540 C 
ATOM     20  N   LIG    1       -0.496   2.358  -0.693  0.00  0.00    -0.660 N 
ATOM     21  H   LIG    1       -0.581   2.802  -1.550  0.00  0.00    +0.410 HD
ATOM     22  C   LIG    1       -1.619   2.152   0.124  0.00  0.00    +0.140 A 
ATOM     23  C   LIG    1       -2.779   1.608  -0.400  0.00  0.00    +0.010 A 
ATOM     24  C   LIG    1       -3.872   1.395   0.421  0.00  0.00    +0.020 A 
ATOM     25  C   LIG    1       -3.807   1.722   1.763  0.00  0.00    +0.020 A 
ATOM     26  C   LIG    1       -2.654   2.273   2.292  0.00  0.00    -0.030 A 
ATOM     27  O   LIG    1        1.705   2.136  -0.906  0.00  0.00    -0.530 OA
ATOM     28  C   LIG    1       -1.558   2.499   1.474  0.00  0.00    +0.110 A 
ENDBRANCH  15  16
ENDBRANCH   3  15
TORSDOF 3
