REMARK  Name = ZINCkj00000y7ERz.1
REMARK                            x       y       z     vdW  Elec       q    Type
REMARK                         _______ _______ _______ _____ _____    ______ ____
ROOT
ATOM      1  N   LIG    1       -0.070  -1.300   1.743  0.00  0.00    -0.390 N 
ATOM      2  C   LIG    1        1.377  -1.398   1.510  0.00  0.00    +0.280 C 
ATOM      3  C   LIG    1        1.642  -2.354   0.344  0.00  0.00    +0.230 C 
ATOM      4  N   LIG    1        1.090  -3.678   0.664  0.00  0.00    -0.510 NA
ATOM      5  C   LIG    1       -0.354  -3.591   0.925  0.00  0.00    +0.330 C 
ATOM      6  C   LIG    1        1.375  -4.640  -0.408  0.00  0.00    +0.240 C 
ATOM      7  C   LIG    1       -0.603  -2.626   2.086  0.00  0.00    +0.310 C 
ATOM      8  H   LIG    1       -0.523  -0.962   0.908  0.00  0.00    +0.420 HD
ENDROOT
BRANCH   5   9
ATOM      9  C   LIG    1       -1.058  -3.088  -0.308  0.00  0.00    +0.090 A 
ATOM     10  N   LIG    1       -2.161  -3.570  -0.829  0.00  0.00    -0.440 NA
ATOM     11  C   LIG    1       -2.412  -2.811  -1.911  0.00  0.00    +0.190 A 
ATOM     12  N   LIG    1       -1.466  -1.923  -1.991  0.00  0.00    -0.360 NA
ATOM     13  C   LIG    1       -3.576  -2.962  -2.856  0.00  0.00    +0.220 C 
ATOM     14  O   LIG    1       -0.682  -2.061  -1.077  0.00  0.00    +0.060 OA
ENDBRANCH   5   9
BRANCH   1  15
ATOM     15  C   LIG    1       -0.325  -0.369   2.850  0.00  0.00    +0.280 C 
BRANCH  15  16
ATOM     16  C   LIG    1        0.076   1.046   2.429  0.00  0.00    +0.150 C 
BRANCH  16  17
ATOM     17  C   LIG    1       -0.136   2.006   3.601  0.00  0.00    -0.010 C 
ATOM     18  C   LIG    1       -1.630   2.101   3.919  0.00  0.00    +0.040 C 
ATOM     19  C   LIG    1        0.394   3.392   3.227  0.00  0.00    +0.030 C 
ENDBRANCH  16  17
BRANCH  16  21
ATOM     20  C   LIG    1        0.003   2.118   0.286  0.00  0.00    +0.220 C 
ATOM     21  O   LIG    1       -0.729   1.460   1.323  0.00  0.00    -0.380 OA
ENDBRANCH  16  21
ENDBRANCH  15  16
ENDBRANCH   1  15
TORSDOF 5
