REMARK  Name = ZINCkj00000y7ERz.0
REMARK                            x       y       z     vdW  Elec       q    Type
REMARK                         _______ _______ _______ _____ _____    ______ ____
ROOT
ATOM      1  N   LIG    1        0.381   0.842  -0.046  0.00  0.00    -0.380 N 
ATOM      2  C   LIG    1       -0.281   1.581  -1.130  0.00  0.00    +0.270 C 
ATOM      3  C   LIG    1        0.209   3.030  -1.133  0.00  0.00    +0.240 C 
ATOM      4  N   LIG    1        1.666   3.051  -1.322  0.00  0.00    -0.530 NA
ATOM      5  C   LIG    1        2.341   2.295  -0.258  0.00  0.00    +0.270 C 
ATOM      6  C   LIG    1        2.169   4.430  -1.387  0.00  0.00    +0.250 C 
ATOM      7  C   LIG    1        1.834   0.851  -0.262  0.00  0.00    +0.300 C 
ATOM      8  H   LIG    1        0.169   1.281   0.837  0.00  0.00    +0.420 HD
ENDROOT
BRANCH   5   9
ATOM      9  C   LIG    1        3.829   2.306  -0.498  0.00  0.00    +0.150 A 
ATOM     10  N   LIG    1        4.763   2.528   0.395  0.00  0.00    -0.450 NA
ATOM     11  C   LIG    1        5.928   2.436  -0.270  0.00  0.00    +0.180 A 
ATOM     12  N   LIG    1        5.649   2.175  -1.512  0.00  0.00    -0.360 NA
ATOM     13  C   LIG    1        7.306   2.610   0.317  0.00  0.00    +0.220 C 
ATOM     14  O   LIG    1        4.448   2.095  -1.664  0.00  0.00    +0.110 OA
ENDBRANCH   5   9
BRANCH   1  15
ATOM     15  C   LIG    1       -0.103  -0.545  -0.033  0.00  0.00    +0.250 C 
BRANCH  15  16
ATOM     16  C   LIG    1       -1.612  -0.556   0.222  0.00  0.00    +0.160 C 
BRANCH  16  17
ATOM     17  C   LIG    1       -1.894  -0.048   1.637  0.00  0.00    -0.030 C 
ATOM     18  C   LIG    1       -3.189  -0.676   2.156  0.00  0.00    +0.060 C 
ATOM     19  C   LIG    1       -2.041   1.475   1.613  0.00  0.00    +0.040 C 
ENDBRANCH  16  17
BRANCH  16  21
ATOM     20  C   LIG    1       -2.623  -2.189  -1.212  0.00  0.00    +0.220 C 
ATOM     21  O   LIG    1       -2.108  -1.889   0.087  0.00  0.00    -0.350 OA
ENDBRANCH  16  21
ENDBRANCH  15  16
ENDBRANCH   1  15
TORSDOF 5
