REMARK  Name = ZINCqH00000055zx.1
REMARK                            x       y       z     vdW  Elec       q    Type
REMARK                         _______ _______ _______ _____ _____    ______ ____
ROOT
ATOM      1  N   LIG    1        4.423   0.263  -1.114  0.00  0.00    -0.720 N 
ATOM      2  H   LIG    1        4.768   0.161  -0.213  0.00  0.00    +0.410 HD
ATOM      3  C   LIG    1        5.139  -0.187  -2.163  0.00  0.00    +0.520 C 
ATOM      4  O   LIG    1        4.709  -0.060  -3.290  0.00  0.00    -0.540 OA
ENDROOT
BRANCH   1   5
ATOM      5  C   LIG    1        3.125   0.905  -1.334  0.00  0.00    +0.270 C 
BRANCH   5   6
ATOM      6  C   LIG    1        2.472   1.211   0.015  0.00  0.00    +0.250 C 
BRANCH   6   7
ATOM      7  C   LIG    1        1.200   1.988  -0.207  0.00  0.00    -0.220 A 
ATOM      8  C   LIG    1       -0.034   1.502  -0.061  0.00  0.00    +0.020 A 
ATOM      9  C   LIG    1       -1.051   2.402  -0.326  0.00  0.00    +0.000 A 
ATOM     10  C   LIG    1       -0.643   3.623  -0.677  0.00  0.00    -0.060 A 
ATOM     11  S   LIG    1        1.115   3.675  -0.698  0.00  0.00    +0.110 S 
ENDBRANCH   6   7
BRANCH   6  13
ATOM     12  C   LIG    1        3.973   3.111   0.059  0.00  0.00    +0.210 C 
ATOM     13  N   LIG    1        3.395   2.007   0.836  0.00  0.00    -0.530 NA
ATOM     14  C   LIG    1        2.726   2.508   2.044  0.00  0.00    +0.200 C 
ENDBRANCH   6  13
ENDBRANCH   5   6
ENDBRANCH   1   5
BRANCH   3  15
ATOM     15  C   LIG    1        6.475  -0.848  -1.937  0.00  0.00    +0.070 C 
BRANCH  15  16
ATOM     16  C   LIG    1        7.073  -1.262  -3.283  0.00  0.00    +0.210 C 
BRANCH  16  17
ATOM     17  C   LIG    1        8.409  -1.923  -3.056  0.00  0.00    +0.200 A 
ATOM     18  N   LIG    1        8.599  -3.197  -2.860  0.00  0.00    -0.470 NA
ATOM     19  C   LIG    1        9.912  -3.421  -2.700  0.00  0.00    +0.170 A 
ATOM     20  C   LIG    1       10.545  -2.224  -2.795  0.00  0.00    -0.000 A 
ATOM     21  O   LIG    1        9.591  -1.294  -3.018  0.00  0.00    -0.190 OA
BRANCH  20  22
ATOM     22  C   LIG    1       11.999  -1.985  -2.678  0.00  0.00    -0.020 A 
ATOM     23  C   LIG    1       12.509  -0.692  -2.805  0.00  0.00    +0.030 A 
ATOM     24  C   LIG    1       13.867  -0.475  -2.689  0.00  0.00    +0.010 A 
ATOM     25  C   LIG    1       14.723  -1.537  -2.458  0.00  0.00    +0.020 A 
ATOM     26  C   LIG    1       14.224  -2.822  -2.336  0.00  0.00    +0.020 A 
ATOM     27  C   LIG    1       12.868  -3.052  -2.445  0.00  0.00    +0.030 A 
ENDBRANCH  20  22
ENDBRANCH  16  17
ENDBRANCH  15  16
ENDBRANCH   3  15
TORSDOF 8
