REMARK  Name = ZINCrH000004sQfs.0
REMARK                            x       y       z     vdW  Elec       q    Type
REMARK                         _______ _______ _______ _____ _____    ______ ____
ROOT
ATOM      1  C   LIG    1        1.162   0.536  -3.454  0.00  0.00    +0.570 C 
ATOM      2  N   LIG    1        0.865   0.736  -2.155  0.00  0.00    -0.590 N 
ATOM      3  C   LIG    1       -0.554   0.830  -1.760  0.00  0.00    +0.270 C 
ATOM      4  C   LIG    1       -0.847   0.063  -0.457  0.00  0.00    +0.020 C 
ATOM      5  C   LIG    1       -0.098  -1.246  -0.448  0.00  0.00    +0.010 C 
ATOM      6  C   LIG    1        1.256  -1.050   0.230  0.00  0.00    +0.010 C 
ATOM      7  C   LIG    1        2.314  -0.556  -0.664  0.00  0.00    +0.040 C 
ATOM      8  C   LIG    1        1.949   0.849  -1.205  0.00  0.00    +0.360 C 
ATOM      9  O   LIG    1        2.323   0.497  -3.813  0.00  0.00    -0.510 OA
ENDROOT
BRANCH   1  17
ATOM     10  C   LIG    1       -0.530  -2.864  -7.897  0.00  0.00    +0.190 C 
ATOM     11  C   LIG    1       -1.297  -1.675  -7.380  0.00  0.00    +0.070 A 
ATOM     12  N   LIG    1       -2.431  -1.214  -7.818  0.00  0.00    -0.310 NA
ATOM     13  O   LIG    1       -2.823  -0.242  -7.216  0.00  0.00    +0.090 OA
ATOM     14  C   LIG    1       -1.992   0.137  -6.230  0.00  0.00    +0.230 A 
ATOM     15  N   LIG    1       -1.989   1.107  -5.330  0.00  0.00    -0.460 NA
ATOM     16  C   LIG    1       -1.012   1.242  -4.460  0.00  0.00    +0.370 A 
ATOM     17  C   LIG    1        0.078   0.364  -4.441  0.00  0.00    -0.200 A 
ATOM     18  C   LIG    1        0.127  -0.676  -5.377  0.00  0.00    +0.210 A 
ATOM     19  C   LIG    1       -0.924  -0.787  -6.273  0.00  0.00    -0.220 A 
ENDBRANCH   1  17
BRANCH   8  20
ATOM     20  C   LIG    1        3.151   1.453  -1.885  0.00  0.00    +0.190 A 
ATOM     21  N   LIG    1        4.389   1.093  -1.722  0.00  0.00    -0.380 NA
ATOM     22  O   LIG    1        5.118   1.772  -2.414  0.00  0.00    +0.070 OA
ATOM     23  C   LIG    1        4.393   2.663  -3.098  0.00  0.00    +0.190 A 
ATOM     24  N   LIG    1        3.139   2.468  -2.768  0.00  0.00    -0.470 NA
BRANCH  23  25
ATOM     25  C   LIG    1        4.917   3.694  -4.064  0.00  0.00    +0.110 C 
ATOM     26  C   LIG    1        5.648   2.993  -5.211  0.00  0.00    +0.060 C 
ATOM     27  C   LIG    1        5.887   4.628  -3.336  0.00  0.00    +0.060 C 
ENDBRANCH  23  25
ENDBRANCH   8  20
TORSDOF 3
