REMARK  Name = ZINC9p0000002o0y.0
REMARK                            x       y       z     vdW  Elec       q    Type
REMARK                         _______ _______ _______ _____ _____    ______ ____
ROOT
ATOM      1  C   LIG    1        0.002  -0.004   0.002  0.00  0.00    -0.010 C 
ATOM      2  C   LIG    1        0.606  -0.499  -1.314  0.00  0.00    +0.050 C 
ATOM      3  C   LIG    1        0.627  -2.029  -1.322  0.00  0.00    +0.020 C 
ATOM      4  C   LIG    1       -0.802  -2.559  -1.186  0.00  0.00    +0.040 C 
ATOM      5  C   LIG    1       -1.406  -2.064   0.130  0.00  0.00    +0.040 C 
ATOM      6  C   LIG    1       -1.427  -0.534   0.139  0.00  0.00    +0.170 C 
ENDROOT
BRANCH   6   7
ATOM      7  N   LIG    1       -2.006  -0.059   1.402  0.00  0.00    -0.640 N 
ATOM      8  H   LIG    1       -1.449  -0.392   2.174  0.00  0.00    +0.430 HD
ATOM      9  H   LIG    1       -2.949  -0.409   1.492  0.00  0.00    +0.440 HD
ATOM     10  H   LIG    1       -2.020   0.950   1.407  0.00  0.00    +0.430 HD
ENDBRANCH   6   7
BRANCH   1  12
ATOM     11  C   LIG    1        1.417   2.055  -0.000  0.00  0.00    +0.040 C 
ATOM     12  C   LIG    1       -0.019   1.526   0.010  0.00  0.00    +0.010 C 
ENDBRANCH   1  12
TORSDOF 2
