REMARK  Name = ZINCqH00000397Gs.0
REMARK                            x       y       z     vdW  Elec       q    Type
REMARK                         _______ _______ _______ _____ _____    ______ ____
ROOT
ATOM      1  C   LIG    1       -1.184  -0.899   0.008  0.00  0.00    +0.170 A 
ATOM      2  C   LIG    1       -1.087  -2.240  -0.005  0.00  0.00    -0.140 A 
ATOM      3  S   LIG    1       -2.718  -2.905   0.011  0.00  0.00    +0.250 S 
ATOM      4  C   LIG    1       -3.376  -1.327   0.025  0.00  0.00    +0.240 A 
ATOM      5  N   LIG    1       -2.430  -0.444   0.021  0.00  0.00    -0.500 NA
ENDROOT
BRANCH   1   8
ATOM      6  C   LIG    1        1.283   1.825  -0.000  0.00  0.00    -0.060 A 
ATOM      7  C   LIG    1       -0.017   1.403   0.010  0.00  0.00    +0.090 A 
ATOM      8  C   LIG    1        0.002  -0.004   0.002  0.00  0.00    -0.120 A 
ATOM      9  C   LIG    1        1.310  -0.397  -0.013  0.00  0.00    +0.240 A 
ATOM     10  N   LIG    1        2.091   0.711  -0.014  0.00  0.00    -0.540 N 
ATOM     11  H   LIG    1        3.061   0.717  -0.023  0.00  0.00    +0.420 HD
BRANCH   6  15
ATOM     12  N   LIG    1        3.056   3.499  -0.009  0.00  0.00    -0.860 N 
ATOM     13  H   LIG    1        3.356   4.422  -0.007  0.00  0.00    +0.410 HD
ATOM     14  H   LIG    1        3.705   2.778  -0.018  0.00  0.00    +0.400 HD
ATOM     15  C   LIG    1        1.738   3.220   0.002  0.00  0.00    +0.590 C 
ATOM     16  O   LIG    1        0.924   4.125   0.015  0.00  0.00    -0.530 OA
ENDBRANCH   6  15
ENDBRANCH   1   8
BRANCH   4  17
ATOM     17  N   LIG    1       -4.734  -1.035   0.038  0.00  0.00    -0.620 N 
ATOM     18  H   LIG    1       -5.031  -0.111   0.045  0.00  0.00    +0.430 HD
ATOM     19  C   LIG    1       -5.639  -2.034   0.041  0.00  0.00    +0.510 C 
ATOM     20  O   LIG    1       -5.268  -3.188   0.032  0.00  0.00    -0.500 OA
BRANCH  19  21
ATOM     21  C   LIG    1       -7.112  -1.716   0.055  0.00  0.00    +0.090 C 
BRANCH  21  22
ATOM     22  C   LIG    1       -7.915  -3.019   0.056  0.00  0.00    +0.090 C 
BRANCH  22  23
ATOM     23  C   LIG    1       -9.410  -2.696   0.070  0.00  0.00    +0.070 C 
BRANCH  23  24
ATOM     24  S   LIG    1      -10.362  -4.241   0.071  0.00  0.00    -0.110 S 
BRANCH  24  25
ATOM     25  C   LIG    1      -12.031  -3.678   0.088  0.00  0.00    -0.090 A 
ATOM     26  C   LIG    1      -12.307  -2.316   0.103  0.00  0.00    -0.020 A 
ATOM     27  C   LIG    1      -13.617  -1.878   0.112  0.00  0.00    +0.030 A 
ATOM     28  C   LIG    1      -14.653  -2.794   0.116  0.00  0.00    +0.010 A 
ATOM     29  C   LIG    1      -14.383  -4.150   0.106  0.00  0.00    +0.030 A 
ATOM     30  C   LIG    1      -13.075  -4.595   0.092  0.00  0.00    +0.030 A 
ENDBRANCH  24  25
ENDBRANCH  23  24
ENDBRANCH  22  23
ENDBRANCH  21  22
ENDBRANCH  19  21
ENDBRANCH   4  17
TORSDOF 8
