REMARK  Name = ZINCrD000002EYPW.0
REMARK                            x       y       z     vdW  Elec       q    Type
REMARK                         _______ _______ _______ _____ _____    ______ ____
ROOT
ATOM      1  C   LIG    1        0.153   1.982  -6.007  0.00  0.00    +0.240 C 
ENDROOT
BRANCH   1   2
ATOM      2  C   LIG    1        0.727   1.061  -7.086  0.00  0.00    -0.020 C 
ATOM      3  C   LIG    1        0.066  -0.330  -7.001  0.00  0.00    +0.020 C 
ATOM      4  C   LIG    1        1.215  -1.317  -7.327  0.00  0.00    +0.020 C 
ATOM      5  C   LIG    1        2.434  -0.665  -6.629  0.00  0.00    +0.010 C 
ATOM      6  C   LIG    1        2.233   0.848  -6.850  0.00  0.00    +0.000 C 
ENDBRANCH   1   2
BRANCH   1   7
ATOM      7  N   LIG    1        0.768   3.306  -6.117  0.00  0.00    -0.720 N 
ATOM      8  H   LIG    1        1.561   3.517  -5.601  0.00  0.00    +0.400 HD
ATOM      9  C   LIG    1        0.232   4.232  -6.936  0.00  0.00    +0.560 C 
ATOM     10  O   LIG    1       -0.813   4.001  -7.514  0.00  0.00    -0.500 OA
BRANCH   9  11
ATOM     11  C   LIG    1        0.911   5.526  -7.132  0.00  0.00    -0.130 A 
ATOM     12  C   LIG    1        2.112   5.796  -6.470  0.00  0.00    +0.070 A 
ATOM     13  C   LIG    1        2.742   7.007  -6.658  0.00  0.00    -0.010 A 
ATOM     14  C   LIG    1        2.193   7.960  -7.500  0.00  0.00    +0.060 A 
ATOM     15  C   LIG    1        1.008   7.709  -8.161  0.00  0.00    -0.020 A 
ATOM     16  C   LIG    1        0.359   6.492  -7.989  0.00  0.00    -0.040 A 
BRANCH  16  17
ATOM     17  S   LIG    1       -1.150   6.165  -8.837  0.00  0.00    -0.000 S 
ATOM     18  C   LIG    1       -1.423   7.686  -9.787  0.00  0.00    +0.070 C 
ENDBRANCH  16  17
ENDBRANCH   9  11
ENDBRANCH   1   7
BRANCH   1  19
ATOM     19  C   LIG    1        0.449   1.395  -4.625  0.00  0.00    +0.270 C 
BRANCH  19  21
ATOM     20  C   LIG    1        0.166   2.025  -2.289  0.00  0.00    +0.490 C 
ATOM     21  N   LIG    1        0.005   2.333  -3.591  0.00  0.00    -0.720 N 
ATOM     22  H   LIG    1       -0.404   3.175  -3.844  0.00  0.00    +0.410 HD
ATOM     23  O   LIG    1        0.678   0.972  -1.973  0.00  0.00    -0.530 OA
BRANCH  20  24
ATOM     24  C   LIG    1       -0.291   2.990  -1.225  0.00  0.00    +0.120 C 
ATOM     25  C   LIG    1       -1.778   2.771  -0.942  0.00  0.00    +0.090 C 
BRANCH  24  26
ATOM     26  O   LIG    1       -0.084   4.330  -1.677  0.00  0.00    -0.550 OA
ATOM     27  H   LIG    1        0.839   4.540  -1.876  0.00  0.00    +0.380 HD
ENDBRANCH  24  26
BRANCH  24  28
ATOM     28  C   LIG    1        0.512   2.755   0.056  0.00  0.00    +0.030 C 
BRANCH  28  30
ATOM     29  C   LIG    1        0.768   3.411   2.453  0.00  0.00    +0.010 C 
ATOM     30  C   LIG    1       -0.035   3.647   1.172  0.00  0.00    +0.020 C 
ENDBRANCH  28  30
ENDBRANCH  24  28
ENDBRANCH  20  24
ENDBRANCH  19  21
ENDBRANCH   1  19
TORSDOF 10
