REMARK  Name = ZINCpk00000xVsky.2
REMARK                            x       y       z     vdW  Elec       q    Type
REMARK                         _______ _______ _______ _____ _____    ______ ____
ROOT
ATOM      1  C   LIG    1        1.878   5.131   2.865  0.00  0.00    +0.270 C 
ENDROOT
BRANCH   1   2
ATOM      2  C   LIG    1        2.541   6.509   2.823  0.00  0.00    +0.000 C 
ATOM      3  C   LIG    1        3.864   6.417   2.058  0.00  0.00    +0.020 C 
ATOM      4  C   LIG    1        4.549   7.786   2.073  0.00  0.00    +0.020 C 
ATOM      5  C   LIG    1        4.764   8.228   3.522  0.00  0.00    +0.170 C 
ATOM      6  N   LIG    1        3.469   8.302   4.210  0.00  0.00    -0.540 NA
ATOM      7  C   LIG    1        3.622   8.856   5.562  0.00  0.00    +0.200 C 
ATOM      8  C   LIG    1        2.813   6.989   4.250  0.00  0.00    +0.240 C 
BRANCH   8   9
ATOM      9  C   LIG    1        1.511   7.100   5.000  0.00  0.00    -0.020 A 
ATOM     10  C   LIG    1        1.180   6.456   6.135  0.00  0.00    +0.140 A 
ATOM     11  N   LIG    1       -0.061   6.830   6.478  0.00  0.00    -0.490 NA
ATOM     12  C   LIG    1       -0.516   7.675   5.594  0.00  0.00    +0.380 A 
ATOM     13  N   LIG    1        0.434   7.871   4.654  0.00  0.00    -0.440 N 
ATOM     14  C   LIG    1        0.331   8.746   3.483  0.00  0.00    +0.330 C 
ENDBRANCH   8   9
ENDBRANCH   1   2
BRANCH   1  16
ATOM     15  C   LIG    1        0.909   3.536   1.298  0.00  0.00    +0.490 C 
ATOM     16  N   LIG    1        1.511   4.724   1.506  0.00  0.00    -0.730 N 
ATOM     17  H   LIG    1        1.701   5.309   0.756  0.00  0.00    +0.400 HD
ATOM     18  O   LIG    1        0.672   2.804   2.235  0.00  0.00    -0.510 OA
BRANCH  15  19
ATOM     19  C   LIG    1        0.532   3.118  -0.100  0.00  0.00    +0.360 C 
BRANCH  19  26
ATOM     20  C   LIG    1        2.012   0.404  -0.331  0.00  0.00    +0.150 C 
ATOM     21  C   LIG    1        0.529   0.610  -0.160  0.00  0.00    +0.090 A 
ATOM     22  C   LIG    1       -0.407  -0.364  -0.077  0.00  0.00    -0.120 A 
ATOM     23  C   LIG    1       -1.654   0.251   0.078  0.00  0.00    +0.080 A 
ATOM     24  N   LIG    1       -1.473   1.546   0.089  0.00  0.00    -0.290 NA
ATOM     25  C   LIG    1       -2.978  -0.458   0.210  0.00  0.00    +0.160 C 
ATOM     26  N   LIG    1       -0.103   1.798  -0.060  0.00  0.00    -0.360 N 
ENDBRANCH  19  26
ENDBRANCH  15  19
ENDBRANCH   1  16
TORSDOF 5
