REMARK  Name = ZINCvU00000004LU.0
REMARK                            x       y       z     vdW  Elec       q    Type
REMARK                         _______ _______ _______ _____ _____    ______ ____
ROOT
ATOM      1  P   LIG    1       -3.726  -0.850  -0.487  0.00  0.00    +2.710 P 
ATOM      2  C   LIG    1       -3.270  -2.610  -0.359  0.00  0.00    -0.940 A 
ATOM      3  C   LIG    1       -1.913  -2.940  -0.234  0.00  0.00    +0.370 A 
ATOM      4  N   LIG    1       -1.865  -4.292  -0.176  0.00  0.00    -0.280 N 
ATOM      5  N   LIG    1       -3.181  -4.778  -0.252  0.00  0.00    -0.290 NA
ATOM      6  N   LIG    1       -0.958  -1.985  -0.204  0.00  0.00    -0.550 NA
ATOM      7  C   LIG    1       -1.163  -0.701  -0.094  0.00  0.00    +0.550 C 
ATOM      8  C   LIG    1       -4.010  -3.759  -0.362  0.00  0.00    +0.170 A 
ATOM      9  C   LIG    1       -5.510  -3.845  -0.472  0.00  0.00    +0.170 C 
ATOM     10  O   LIG    1       -3.972  -0.473  -1.897  0.00  0.00    -1.030 OA
ATOM     11  N   LIG    1       -2.379  -0.070   0.111  0.00  0.00    -1.000 N 
ATOM     12  C   LIG    1       -2.474   1.213   0.811  0.00  0.00    +0.320 C 
ENDROOT
BRANCH   4  13
ATOM     13  C   LIG    1       -0.706  -5.070  -0.061  0.00  0.00    +0.140 A 
ATOM     14  C   LIG    1        0.467  -4.669  -0.689  0.00  0.00    +0.030 A 
ATOM     15  C   LIG    1        1.609  -5.436  -0.570  0.00  0.00    +0.040 A 
ATOM     16  C   LIG    1        1.584  -6.607   0.165  0.00  0.00    +0.020 A 
ATOM     17  C   LIG    1        0.417  -7.011   0.787  0.00  0.00    +0.020 A 
ATOM     18  C   LIG    1       -0.727  -6.247   0.676  0.00  0.00    +0.020 A 
ENDBRANCH   4  13
BRANCH   7  19
ATOM     19  C   LIG    1        0.017   0.164  -0.191  0.00  0.00    -0.230 A 
ATOM     20  C   LIG    1        1.312  -0.267  -0.252  0.00  0.00    +0.120 A 
ATOM     21  C   LIG    1        2.223   0.762  -0.338  0.00  0.00    +0.000 A 
ATOM     22  C   LIG    1        1.694   1.989  -0.346  0.00  0.00    -0.060 A 
ATOM     23  S   LIG    1       -0.008   1.921  -0.245  0.00  0.00    +0.240 S 
ENDBRANCH   7  19
BRANCH   1  24
ATOM     24  N   LIG    1       -5.041  -0.523   0.437  0.00  0.00    -1.110 N 
ATOM     25  H   LIG    1       -5.859  -0.206   0.022  0.00  0.00    +0.430 HD
BRANCH  24  32
ATOM     26  C   LIG    1       -7.254   0.355   1.995  0.00  0.00    +0.090 C 
ATOM     27  C   LIG    1       -6.042  -0.287   2.620  0.00  0.00    -0.120 A 
ATOM     28  C   LIG    1       -5.983  -0.464   3.989  0.00  0.00    +0.050 A 
ATOM     29  C   LIG    1       -4.871  -1.054   4.563  0.00  0.00    -0.010 A 
ATOM     30  C   LIG    1       -3.817  -1.467   3.771  0.00  0.00    +0.050 A 
ATOM     31  C   LIG    1       -3.872  -1.297   2.401  0.00  0.00    -0.080 A 
ATOM     32  C   LIG    1       -4.984  -0.701   1.821  0.00  0.00    +0.170 A 
ENDBRANCH  24  32
ENDBRANCH   1  24
TORSDOF 4
