REMARK  Name = ZINCrH00000No4Qs.0
REMARK                            x       y       z     vdW  Elec       q    Type
REMARK                         _______ _______ _______ _____ _____    ______ ____
ROOT
ATOM      1  O   LIG    1        5.145  -1.542   1.477  0.00  0.00    -0.530 OA
ATOM      2  C   LIG    1        3.963  -1.565   1.749  0.00  0.00    +0.530 C 
ATOM      3  N   LIG    1        3.121  -2.334   1.031  0.00  0.00    -0.600 N 
ENDROOT
BRANCH   2   4
ATOM      4  C   LIG    1        3.436  -0.733   2.890  0.00  0.00    -0.030 C 
ATOM      5  C   LIG    1        3.346   0.768   2.567  0.00  0.00    +0.070 C 
ATOM      6  C   LIG    1        3.853   1.026   3.996  0.00  0.00    +0.050 C 
ATOM      7  C   LIG    1        4.507  -0.364   3.930  0.00  0.00    +0.270 C 
BRANCH   7   8
ATOM      8  N   LIG    1        4.399  -1.124   5.178  0.00  0.00    -0.450 N 
ATOM      9  C   LIG    1        5.353  -1.946   5.714  0.00  0.00    +0.120 A 
ATOM     10  C   LIG    1        4.843  -2.439   6.859  0.00  0.00    +0.140 A 
ATOM     11  N   LIG    1        3.612  -1.932   7.018  0.00  0.00    -0.490 NA
ATOM     12  C   LIG    1        3.341  -1.139   6.017  0.00  0.00    +0.380 A 
ENDBRANCH   7   8
ENDBRANCH   2   4
BRANCH   3  13
ATOM     13  C   LIG    1        1.679  -2.273   1.282  0.00  0.00    +0.280 C 
BRANCH  13  14
ATOM     14  C   LIG    1        1.285  -3.377   2.265  0.00  0.00    -0.030 C 
ATOM     15  C   LIG    1        1.384  -4.768   1.590  0.00  0.00    +0.020 C 
ATOM     16  C   LIG    1        0.421  -5.631   2.443  0.00  0.00    +0.010 C 
ATOM     17  C   LIG    1       -0.752  -4.683   2.765  0.00  0.00    +0.180 C 
ATOM     18  F   LIG    1       -1.789  -4.873   1.845  0.00  0.00    -0.210 F 
ATOM     19  C   LIG    1       -0.203  -3.249   2.652  0.00  0.00    +0.010 C 
ENDBRANCH  13  14
ENDBRANCH   3  13
BRANCH   3  20
ATOM     20  C   LIG    1        3.648  -3.231  -0.000  0.00  0.00    +0.330 C 
BRANCH  20  21
ATOM     21  C   LIG    1        3.704  -2.503  -1.319  0.00  0.00    -0.090 A 
ATOM     22  C   LIG    1        4.843  -1.804  -1.673  0.00  0.00    +0.030 A 
ATOM     23  C   LIG    1        4.898  -1.134  -2.881  0.00  0.00    +0.020 A 
ATOM     24  C   LIG    1        3.816  -1.164  -3.739  0.00  0.00    -0.010 A 
ATOM     25  C   LIG    1        2.672  -1.866  -3.386  0.00  0.00    +0.100 A 
ATOM     26  C   LIG    1        2.621  -2.540  -2.175  0.00  0.00    +0.000 A 
BRANCH  25  27
ATOM     27  O   LIG    1        1.606  -1.897  -4.228  0.00  0.00    -0.500 OA
ATOM     28  H   LIG    1        1.623  -2.631  -4.857  0.00  0.00    +0.390 HD
ENDBRANCH  25  27
ENDBRANCH  20  21
ENDBRANCH   3  20
TORSDOF 7
