REMARK  Name = ZINCrD000006VoTJ.0
REMARK                            x       y       z     vdW  Elec       q    Type
REMARK                         _______ _______ _______ _____ _____    ______ ____
ROOT
ATOM      1  C   LIG    1       -4.843   0.580  -0.098  0.00  0.00    -0.110 A 
ATOM      2  C   LIG    1       -4.649  -0.800  -0.211  0.00  0.00    +0.180 A 
ATOM      3  C   LIG    1       -5.720  -1.657  -0.084  0.00  0.00    -0.060 A 
ATOM      4  C   LIG    1       -6.991  -1.159   0.155  0.00  0.00    +0.150 A 
ATOM      5  C   LIG    1       -7.199   0.200   0.268  0.00  0.00    +0.000 A 
ATOM      6  C   LIG    1       -6.131   1.080   0.149  0.00  0.00    +0.200 A 
ENDROOT
BRANCH   6   7
ATOM      7  N   LIG    1       -6.338   2.448   0.268  0.00  0.00    -0.480 N 
ATOM      8  C   LIG    1       -7.402   2.909  -0.660  0.00  0.00    +0.190 C 
ATOM      9  C   LIG    1       -7.852   4.257  -0.043  0.00  0.00    +0.040 C 
ATOM     10  C   LIG    1       -7.780   3.982   1.477  0.00  0.00    +0.020 C 
ATOM     11  C   LIG    1       -6.808   2.797   1.626  0.00  0.00    +0.180 C 
ENDBRANCH   6   7
BRANCH   3  12
ATOM     12  N   LIG    1       -5.511  -3.118  -0.203  0.00  0.00    +0.030 N 
ATOM     13  O   LIG    1       -6.456  -3.878  -0.091  0.00  0.00    -0.150 OA
ATOM     14  O   LIG    1       -4.396  -3.559  -0.413  0.00  0.00    -0.150 OA
ENDBRANCH   3  12
BRANCH   1  15
ATOM     15  C   LIG    1       -3.702   1.502  -0.232  0.00  0.00    +0.510 C 
ATOM     16  O   LIG    1       -3.889   2.703  -0.231  0.00  0.00    -0.450 OA
BRANCH  15  17
ATOM     17  O   LIG    1       -2.452   1.014  -0.357  0.00  0.00    -0.340 OA
BRANCH  17  18
ATOM     18  C   LIG    1       -1.377   1.981  -0.484  0.00  0.00    +0.250 C 
BRANCH  18  20
ATOM     19  O   LIG    1       -0.034   0.044  -0.597  0.00  0.00    -0.420 OA
ATOM     20  C   LIG    1       -0.062   1.256  -0.612  0.00  0.00    +0.400 C 
BRANCH  20  21
ATOM     21  C   LIG    1        1.186   2.019  -0.761  0.00  0.00    -0.180 A 
ATOM     22  C   LIG    1        1.157   3.418  -0.785  0.00  0.00    +0.100 A 
ATOM     23  C   LIG    1        2.330   4.126  -0.919  0.00  0.00    -0.010 A 
ATOM     24  C   LIG    1        3.539   3.456  -1.042  0.00  0.00    +0.140 A 
ATOM     25  C   LIG    1        3.575   2.069  -1.025  0.00  0.00    -0.010 A 
ATOM     26  F   LIG    1        4.686   4.156  -1.180  0.00  0.00    -0.130 F 
ATOM     27  C   LIG    1        2.409   1.349  -0.885  0.00  0.00    +0.120 A 
ENDBRANCH  20  21
ENDBRANCH  18  20
ENDBRANCH  17  18
ENDBRANCH  15  17
ENDBRANCH   1  15
TORSDOF 7
