REMARK  Name = ZINCpk00001AZiTg.0
REMARK                            x       y       z     vdW  Elec       q    Type
REMARK                         _______ _______ _______ _____ _____    ______ ____
ROOT
ATOM      1  C   LIG    1       -6.885   4.799  -3.893  0.00  0.00    +0.080 C 
ATOM      2  C   LIG    1       -7.383   5.126  -2.483  0.00  0.00    +0.020 C 
ATOM      3  C   LIG    1       -7.438   3.839  -1.655  0.00  0.00    +0.270 C 
ATOM      4  N   LIG    1       -6.119   3.194  -1.694  0.00  0.00    -0.600 N 
ATOM      5  C   LIG    1       -5.504   2.922  -3.001  0.00  0.00    +0.270 C 
ATOM      6  C   LIG    1       -5.482   2.863  -0.553  0.00  0.00    +0.530 C 
ATOM      7  O   LIG    1       -4.442   2.240  -0.598  0.00  0.00    -0.530 OA
ATOM      8  C   LIG    1       -5.473   4.215  -3.814  0.00  0.00    +0.030 C 
ENDROOT
BRANCH   6   9
ATOM      9  C   LIG    1       -6.062   3.266   0.778  0.00  0.00    -0.010 C 
ATOM     10  C   LIG    1       -7.267   2.378   1.101  0.00  0.00    +0.050 C 
ATOM     11  C   LIG    1       -7.801   2.744   2.489  0.00  0.00    +0.080 C 
ATOM     12  C   LIG    1       -6.678   2.593   3.517  0.00  0.00    +0.080 C 
ATOM     13  N   LIG    1       -5.566   3.486   3.167  0.00  0.00    -0.350 N 
ATOM     14  C   LIG    1       -6.057   4.868   3.090  0.00  0.00    +0.320 C 
ATOM     15  H   LIG    1       -4.850   3.423   3.876  0.00  0.00    +0.430 HD
ATOM     16  C   LIG    1       -5.003   3.096   1.869  0.00  0.00    +0.270 C 
BRANCH  12  17
ATOM     17  C   LIG    1       -7.198   2.951   4.885  0.00  0.00    +0.490 C 
ATOM     18  O   LIG    1       -8.124   2.322   5.369  0.00  0.00    -0.640 OA
ATOM     19  O   LIG    1       -6.697   3.873   5.506  0.00  0.00    -0.670 OA
ENDBRANCH  12  17
ENDBRANCH   6   9
BRANCH   1  22
ATOM     20  N   LIG    1       -7.261   7.517  -6.295  0.00  0.00    -0.370 N 
ATOM     21  C   LIG    1       -7.550   6.271  -5.866  0.00  0.00    +0.230 A 
ATOM     22  C   LIG    1       -6.861   6.058  -4.721  0.00  0.00    -0.240 A 
ATOM     23  C   LIG    1       -6.119   7.211  -4.445  0.00  0.00    +0.230 A 
ATOM     24  N   LIG    1       -6.357   8.086  -5.388  0.00  0.00    -0.290 NA
BRANCH  20  26
ATOM     25  C   LIG    1       -8.439   9.494  -7.123  0.00  0.00    +0.040 C 
ATOM     26  C   LIG    1       -7.792   8.159  -7.500  0.00  0.00    +0.320 C 
ENDBRANCH  20  26
ENDBRANCH   1  22
TORSDOF 4
