REMARK  Name = ZINCpk00001AZiTg.1
REMARK                            x       y       z     vdW  Elec       q    Type
REMARK                         _______ _______ _______ _____ _____    ______ ____
ROOT
ATOM      1  C   LIG    1        1.667   0.070   2.134  0.00  0.00    +0.080 C 
ATOM      2  C   LIG    1        0.310  -0.540   1.773  0.00  0.00    +0.030 C 
ATOM      3  C   LIG    1       -0.120  -0.036   0.392  0.00  0.00    +0.270 C 
ATOM      4  N   LIG    1       -0.100   1.433   0.397  0.00  0.00    -0.600 N 
ATOM      5  C   LIG    1        1.128   2.122   0.816  0.00  0.00    +0.270 C 
ATOM      6  C   LIG    1       -1.187   2.136   0.019  0.00  0.00    +0.530 C 
ATOM      7  O   LIG    1       -2.160   1.559  -0.419  0.00  0.00    -0.530 OA
ATOM      8  C   LIG    1        1.544   1.594   2.192  0.00  0.00    +0.020 C 
ENDROOT
BRANCH   6   9
ATOM      9  C   LIG    1       -1.192   3.638   0.141  0.00  0.00    -0.020 C 
ATOM     10  C   LIG    1       -0.539   4.254  -1.099  0.00  0.00    +0.060 C 
ATOM     11  C   LIG    1       -0.621   5.780  -1.002  0.00  0.00    +0.080 C 
ATOM     12  C   LIG    1       -2.084   6.199  -0.849  0.00  0.00    +0.080 C 
ATOM     13  N   LIG    1       -2.644   5.599   0.368  0.00  0.00    -0.360 N 
ATOM     14  C   LIG    1       -4.024   6.066   0.553  0.00  0.00    +0.320 C 
ATOM     15  H   LIG    1       -2.088   5.875   1.164  0.00  0.00    +0.420 HD
ATOM     16  C   LIG    1       -2.635   4.136   0.252  0.00  0.00    +0.270 C 
BRANCH  12  17
ATOM     17  C   LIG    1       -2.169   7.701  -0.753  0.00  0.00    +0.490 C 
ATOM     18  O   LIG    1       -2.293   8.370  -1.764  0.00  0.00    -0.640 OA
ATOM     19  O   LIG    1       -2.114   8.246   0.336  0.00  0.00    -0.670 OA
ENDBRANCH  12  17
ENDBRANCH   6   9
BRANCH   1  22
ATOM     20  N   LIG    1        3.268  -1.429   5.047  0.00  0.00    -0.370 N 
ATOM     21  C   LIG    1        3.236  -1.157   3.726  0.00  0.00    +0.230 A 
ATOM     22  C   LIG    1        2.109  -0.451   3.478  0.00  0.00    -0.240 A 
ATOM     23  C   LIG    1        1.424  -0.293   4.687  0.00  0.00    +0.230 A 
ATOM     24  N   LIG    1        2.118  -0.880   5.628  0.00  0.00    -0.290 NA
BRANCH  20  26
ATOM     25  C   LIG    1        4.855  -1.329   6.905  0.00  0.00    +0.040 C 
ATOM     26  C   LIG    1        4.317  -2.174   5.749  0.00  0.00    +0.320 C 
ENDBRANCH  20  26
ENDBRANCH   1  22
TORSDOF 4
