REMARK  Name = ZINCrH000004n5TE.0
REMARK                            x       y       z     vdW  Elec       q    Type
REMARK                         _______ _______ _______ _____ _____    ______ ____
ROOT
ATOM      1  C   LIG    1       -1.514  -0.645  -0.012  0.00  0.00    +0.030 C 
ATOM      2  C   LIG    1       -1.435  -1.629  -1.209  0.00  0.00    +0.050 C 
ATOM      3  C   LIG    1       -2.316  -2.808  -0.746  0.00  0.00    +0.230 C 
ATOM      4  N   LIG    1       -2.379  -2.755   0.723  0.00  0.00    -0.630 N 
ATOM      5  C   LIG    1       -3.070  -3.603   1.510  0.00  0.00    +0.720 C 
ATOM      6  N   LIG    1       -3.782  -4.606   0.959  0.00  0.00    -0.680 N 
ATOM      7  H   LIG    1       -3.861  -4.671  -0.006  0.00  0.00    +0.410 HD
ATOM      8  O   LIG    1       -3.050  -3.464   2.718  0.00  0.00    -0.570 OA
ATOM      9  C   LIG    1       -1.562  -1.621   1.190  0.00  0.00    +0.280 C 
ENDROOT
BRANCH   6  10
ATOM     10  C   LIG    1       -4.408  -5.552   1.778  0.00  0.00    +0.170 A 
ATOM     11  C   LIG    1       -5.614  -6.120   1.388  0.00  0.00    -0.010 A 
ATOM     12  C   LIG    1       -6.230  -7.055   2.198  0.00  0.00    +0.060 A 
ATOM     13  C   LIG    1       -5.648  -7.424   3.394  0.00  0.00    -0.150 A 
ATOM     14  C   LIG    1       -6.060  -8.394   4.476  0.00  0.00    +0.270 C 
ATOM     15  O   LIG    1       -4.872  -8.656   5.246  0.00  0.00    -0.360 OA
ATOM     16  C   LIG    1       -4.077  -7.463   5.121  0.00  0.00    +0.270 C 
ATOM     17  C   LIG    1       -4.444  -6.858   3.785  0.00  0.00    -0.110 A 
ATOM     18  C   LIG    1       -3.821  -5.929   2.980  0.00  0.00    +0.050 A 
ENDBRANCH   6  10
BRANCH   1  22
ATOM     19  C   LIG    1        1.970   1.830   0.168  0.00  0.00    +0.100 A 
ATOM     20  C   LIG    1        2.089   0.453   0.260  0.00  0.00    -0.030 A 
ATOM     21  C   LIG    1        0.961  -0.345   0.201  0.00  0.00    +0.020 A 
ATOM     22  C   LIG    1       -0.287   0.229   0.051  0.00  0.00    -0.070 A 
ATOM     23  C   LIG    1       -0.414   1.603  -0.041  0.00  0.00    -0.020 A 
ATOM     24  C   LIG    1        0.712   2.408   0.017  0.00  0.00    +0.100 A 
BRANCH  19  26
ATOM     25  C   LIG    1        4.335   1.954   0.383  0.00  0.00    +0.250 C 
ATOM     26  O   LIG    1        3.078   2.615   0.227  0.00  0.00    -0.310 OA
ENDBRANCH  19  26
BRANCH  24  27
ATOM     27  O   LIG    1        0.590   3.759  -0.073  0.00  0.00    -0.310 OA
ATOM     28  C   LIG    1       -0.731   4.282  -0.227  0.00  0.00    +0.250 C 
ENDBRANCH  24  27
ENDBRANCH   1  22
TORSDOF 4
