REMARK  Name = ZINCvU00000009Xx.0
REMARK                            x       y       z     vdW  Elec       q    Type
REMARK                         _______ _______ _______ _____ _____    ______ ____
ROOT
ATOM      1  C   LIG    1        1.192   1.772  -0.197  0.00  0.00    +0.210 A 
ATOM      2  N   LIG    1        1.247   3.069   0.036  0.00  0.00    -0.460 NA
ATOM      3  C   LIG    1        0.155   3.796   0.276  0.00  0.00    +0.150 A 
ATOM      4  C   LIG    1        0.245   5.180   0.520  0.00  0.00    +0.070 A 
ATOM      5  C   LIG    1       -0.887   5.897   0.761  0.00  0.00    +0.060 A 
ATOM      6  C   LIG    1       -2.138   5.284   0.772  0.00  0.00    -0.090 A 
ATOM      7  C   LIG    1       -2.263   3.945   0.540  0.00  0.00    +0.090 A 
ATOM      8 BR   LIG    1       -3.683   6.321   1.113  0.00  0.00    -0.040 Br
ATOM      9  C   LIG    1       -1.121   3.178   0.288  0.00  0.00    -0.070 A 
ATOM     10  C   LIG    1       -1.208   1.740   0.027  0.00  0.00    -0.050 A 
ATOM     11  C   LIG    1       -0.023   1.062  -0.208  0.00  0.00    +0.020 A 
ENDROOT
BRANCH  10  12
ATOM     12  C   LIG    1       -2.510   1.038   0.019  0.00  0.00    +0.560 C 
ATOM     13  N   LIG    1       -2.863   0.285  -1.042  0.00  0.00    -0.600 N 
ATOM     14  C   LIG    1       -1.931   0.082  -2.159  0.00  0.00    +0.270 C 
ATOM     15  C   LIG    1       -2.632   0.473  -3.463  0.00  0.00    -0.010 C 
ATOM     16  C   LIG    1       -3.942  -0.309  -3.588  0.00  0.00    +0.030 C 
ATOM     17  C   LIG    1       -4.863   0.047  -2.419  0.00  0.00    -0.010 C 
ATOM     18  C   LIG    1       -2.931   1.973  -3.453  0.00  0.00    +0.020 C 
ATOM     19  C   LIG    1       -4.185  -0.353  -1.100  0.00  0.00    +0.290 C 
ATOM     20  O   LIG    1       -3.261   1.140   0.969  0.00  0.00    -0.520 OA
BRANCH  17  21
ATOM     21  C   LIG    1       -6.185  -0.709  -2.562  0.00  0.00    +0.180 C 
BRANCH  21  22
ATOM     22  O   LIG    1       -7.088  -0.289  -1.537  0.00  0.00    -0.570 OA
ATOM     23  H   LIG    1       -7.949  -0.729  -1.566  0.00  0.00    +0.380 HD
ENDBRANCH  21  22
ENDBRANCH  17  21
ENDBRANCH  10  12
BRANCH   1  25
ATOM     24  C   LIG    1        3.618   1.697  -0.448  0.00  0.00    +0.100 C 
ATOM     25  C   LIG    1        2.445   1.042  -0.453  0.00  0.00    +0.000 C 
BRANCH  24  31
ATOM     26  C   LIG    1        8.581   1.684  -0.937  0.00  0.00    +0.090 C 
ATOM     27  C   LIG    1        7.262   0.954  -0.942  0.00  0.00    -0.090 A 
ATOM     28  C   LIG    1        7.227  -0.407  -1.188  0.00  0.00    +0.010 A 
ATOM     29  C   LIG    1        6.021  -1.085  -1.194  0.00  0.00    +0.010 A 
ATOM     30  C   LIG    1        4.845  -0.409  -0.949  0.00  0.00    +0.020 A 
ATOM     31  C   LIG    1        4.871   0.967  -0.705  0.00  0.00    -0.070 A 
ATOM     32  C   LIG    1        6.093   1.645  -0.701  0.00  0.00    +0.030 A 
ENDBRANCH  24  31
ENDBRANCH   1  25
TORSDOF 5
