REMARK  Name = ZINCrH000004rLVX.1
REMARK                            x       y       z     vdW  Elec       q    Type
REMARK                         _______ _______ _______ _____ _____    ______ ____
ROOT
ATOM      1  N   LIG    1       -2.993   4.249  -1.243  0.00  0.00    -0.740 N 
ATOM      2  H   LIG    1       -2.425   3.974  -1.980  0.00  0.00    +0.400 HD
ATOM      3  C   LIG    1       -4.165   4.865  -1.489  0.00  0.00    +0.700 C 
ATOM      4  N   LIG    1       -4.550   5.099  -2.759  0.00  0.00    -0.740 N 
ATOM      5  H   LIG    1       -3.983   4.824  -3.496  0.00  0.00    +0.400 HD
ATOM      6  O   LIG    1       -4.876   5.211  -0.565  0.00  0.00    -0.590 OA
ENDROOT
BRANCH   4   7
ATOM      7  C   LIG    1       -5.825   5.770  -3.027  0.00  0.00    +0.250 C 
ATOM      8  C   LIG    1       -6.954   4.736  -3.038  0.00  0.00    +0.020 C 
ATOM      9  C   LIG    1       -8.274   5.432  -3.378  0.00  0.00    +0.180 C 
ATOM     10  N   LIG    1       -8.164   6.078  -4.693  0.00  0.00    -0.530 NA
ATOM     11  C   LIG    1       -7.117   7.108  -4.692  0.00  0.00    +0.180 C 
ATOM     12  C   LIG    1       -5.763   6.462  -4.391  0.00  0.00    +0.030 C 
BRANCH  10  13
ATOM     13  C   LIG    1       -9.454   6.639  -5.114  0.00  0.00    +0.170 C 
ATOM     14  C   LIG    1      -10.495   5.520  -5.193  0.00  0.00    +0.060 C 
BRANCH  13  15
ATOM     15  C   LIG    1       -9.305   7.282  -6.468  0.00  0.00    -0.040 A 
ATOM     16  C   LIG    1       -8.640   6.629  -7.494  0.00  0.00    -0.010 A 
ATOM     17  C   LIG    1       -8.526   7.249  -8.724  0.00  0.00    +0.240 A 
ATOM     18  N   LIG    1       -9.032   8.450  -8.924  0.00  0.00    -0.490 NA
ATOM     19  C   LIG    1       -9.667   9.102  -7.970  0.00  0.00    +0.260 A 
ATOM     20  C   LIG    1       -9.824   8.544  -6.716  0.00  0.00    -0.040 A 
ENDBRANCH  13  15
ENDBRANCH  10  13
ENDBRANCH   4   7
BRANCH   1  21
ATOM     21  C   LIG    1       -2.574   3.995   0.138  0.00  0.00    +0.340 C 
BRANCH  21  29
ATOM     22  C   LIG    1       -2.447   1.109   0.069  0.00  0.00    +0.090 C 
ATOM     23  C   LIG    1       -1.176   1.919   0.105  0.00  0.00    -0.060 A 
ATOM     24  C   LIG    1        0.050   1.280   0.110  0.00  0.00    -0.010 A 
ATOM     25  C   LIG    1        1.215   2.023   0.137  0.00  0.00    +0.020 A 
ATOM     26  C   LIG    1        1.155   3.404   0.166  0.00  0.00    -0.010 A 
ATOM     27  C   LIG    1       -0.072   4.042   0.166  0.00  0.00    -0.060 A 
ATOM     28  C   LIG    1       -0.138   5.547   0.197  0.00  0.00    +0.090 C 
ATOM     29  C   LIG    1       -1.237   3.299   0.138  0.00  0.00    -0.120 A 
ENDBRANCH  21  29
ENDBRANCH   1  21
TORSDOF 5
