REMARK  Name = ZINCvU0000000Bvg.0
REMARK                            x       y       z     vdW  Elec       q    Type
REMARK                         _______ _______ _______ _____ _____    ______ ____
ROOT
ATOM      1  C   LIG    1       -4.154   4.305  -0.122  0.00  0.00    +0.560 C 
ATOM      2  N   LIG    1       -5.490   4.318   0.053  0.00  0.00    -0.670 N 
ATOM      3  H   LIG    1       -5.981   3.482   0.099  0.00  0.00    +0.410 HD
ATOM      4  O   LIG    1       -3.551   5.350  -0.276  0.00  0.00    -0.520 OA
ENDROOT
BRANCH   1  13
ATOM      5  C   LIG    1        3.640   2.200  -1.193  0.00  0.00    +0.030 C 
ATOM      6  C   LIG    1        2.341   1.393  -1.200  0.00  0.00    -0.020 C 
ATOM      7  C   LIG    1        2.492   0.172  -0.287  0.00  0.00    +0.030 C 
ATOM      8  C   LIG    1        1.295  -0.764  -0.484  0.00  0.00    +0.100 C 
ATOM      9  C   LIG    1        0.025   0.046  -0.370  0.00  0.00    +0.070 A 
ATOM     10  C   LIG    1       -0.015   1.392  -0.461  0.00  0.00    -0.150 A 
ATOM     11  C   LIG    1       -1.401   1.788  -0.306  0.00  0.00    -0.110 A 
ATOM     12  C   LIG    1       -2.035   3.029  -0.310  0.00  0.00    +0.150 A 
ATOM     13  C   LIG    1       -3.422   3.023  -0.127  0.00  0.00    -0.180 A 
ATOM     14  C   LIG    1       -4.132   1.831   0.051  0.00  0.00    +0.050 A 
ATOM     15  C   LIG    1       -3.515   0.608   0.071  0.00  0.00    +0.000 A 
ATOM     16  C   LIG    1       -2.132   0.584  -0.116  0.00  0.00    +0.120 A 
ATOM     17  N   LIG    1       -1.238  -0.443  -0.164  0.00  0.00    -0.580 N 
ATOM     18  H   LIG    1       -1.463  -1.382  -0.067  0.00  0.00    +0.420 HD
ATOM     19  C   LIG    1        1.191   2.268  -0.689  0.00  0.00    +0.100 C 
ENDBRANCH   1  13
BRANCH   2  20
ATOM     20  C   LIG    1       -6.168   5.535   0.169  0.00  0.00    +0.160 A 
ATOM     21  C   LIG    1       -5.551   6.617   0.784  0.00  0.00    +0.020 A 
ATOM     22  C   LIG    1       -6.216   7.820   0.894  0.00  0.00    +0.050 A 
ATOM     23  C   LIG    1       -7.513   7.947   0.398  0.00  0.00    -0.030 A 
ATOM     24  C   LIG    1       -8.132   6.858  -0.214  0.00  0.00    +0.070 A 
ATOM     25  C   LIG    1       -7.461   5.659  -0.326  0.00  0.00    -0.020 A 
BRANCH  23  26
ATOM     26  C   LIG    1       -8.232   9.238   0.521  0.00  0.00    +0.090 A 
ATOM     27  C   LIG    1       -7.748  10.368   1.090  0.00  0.00    +0.160 A 
ATOM     28  N   LIG    1       -8.739  11.337   0.995  0.00  0.00    -0.420 N 
ATOM     29  C   LIG    1       -8.934  12.655   1.344  0.00  0.00    +0.220 A 
ATOM     30  C   LIG    1      -10.090  13.225   1.051  0.00  0.00    +0.010 A 
ATOM     31  S   LIG    1      -11.049  11.971   0.245  0.00  0.00    +0.160 S 
ATOM     32  C   LIG    1       -9.786  10.736   0.365  0.00  0.00    +0.160 A 
ATOM     33  N   LIG    1       -9.480   9.493   0.080  0.00  0.00    -0.440 NA
ENDBRANCH  23  26
ENDBRANCH   2  20
TORSDOF 3
