REMARK  Name = ZINCrD000000CAUo.0
REMARK                            x       y       z     vdW  Elec       q    Type
REMARK                         _______ _______ _______ _____ _____    ______ ____
ROOT
ATOM      1  O   LIG    1       -2.350   1.499  -0.048  0.00  0.00    -0.520 OA
ATOM      2  C   LIG    1       -1.305   2.116   0.020  0.00  0.00    +0.560 C 
ATOM      3  N   LIG    1       -1.322   3.460   0.129  0.00  0.00    -0.610 N 
ATOM      4  C   LIG    1       -0.068   4.226   0.135  0.00  0.00    +0.270 C 
ATOM      5  C   LIG    1       -0.038   5.120   1.373  0.00  0.00    +0.020 C 
ATOM      6  C   LIG    1       -1.302   5.982   1.408  0.00  0.00    +0.240 C 
ATOM      7  C   LIG    1       -2.535   5.080   1.492  0.00  0.00    +0.030 C 
ATOM      8  C   LIG    1       -2.594   4.185   0.250  0.00  0.00    +0.290 C 
ENDROOT
BRANCH   2   9
ATOM      9  C   LIG    1       -0.016   1.394  -0.017  0.00  0.00    -0.090 A 
ATOM     10  C   LIG    1        0.986   1.792  -0.904  0.00  0.00    +0.050 A 
ATOM     11  C   LIG    1        2.185   1.110  -0.936  0.00  0.00    +0.080 A 
ATOM     12  C   LIG    1        2.394   0.033  -0.094  0.00  0.00    -0.160 A 
ATOM     13  C   LIG    1        1.405  -0.367   0.787  0.00  0.00    +0.080 A 
ATOM     14  C   LIG    1        0.202   0.306   0.830  0.00  0.00    +0.070 A 
BRANCH  12  15
ATOM     15  C   LIG    1        3.707  -0.707  -0.136  0.00  0.00    +0.510 C 
ATOM     16  F   LIG    1        3.986  -1.233   1.131  0.00  0.00    -0.170 F 
ATOM     17  F   LIG    1        4.727   0.173  -0.510  0.00  0.00    -0.170 F 
ATOM     18  F   LIG    1        3.625  -1.749  -1.066  0.00  0.00    -0.170 F 
ENDBRANCH  12  15
ENDBRANCH   2   9
BRANCH   6  19
ATOM     19  N   LIG    1       -1.260   6.862   2.579  0.00  0.00    -1.110 NA
ATOM     20  H   LIG    1       -1.569   6.540   3.439  0.00  0.00    +0.420 HD
BRANCH  19  21
ATOM     21  S   LIG    1       -0.684   8.408   2.432  0.00  0.00    +2.720 S 
ATOM     22  O   LIG    1        0.549   8.313   1.733  0.00  0.00    -0.950 OA
ATOM     23  O   LIG    1       -0.805   9.005   3.716  0.00  0.00    -0.950 OA
BRANCH  21  24
ATOM     24  C   LIG    1       -1.791   9.279   1.373  0.00  0.00    -0.800 A 
ATOM     25  C   LIG    1       -2.865   9.960   1.775  0.00  0.00    +0.170 A 
ATOM     26  C   LIG    1       -3.586  10.565   0.760  0.00  0.00    -0.010 A 
ATOM     27  C   LIG    1       -3.098  10.375  -0.466  0.00  0.00    +0.010 A 
ATOM     28  S   LIG    1       -1.645   9.388  -0.377  0.00  0.00    +0.210 S 
ENDBRANCH  21  24
ENDBRANCH  19  21
ENDBRANCH   6  19
TORSDOF 5
