REMARK  Name = ZINCqH0000050rqS.0
REMARK                            x       y       z     vdW  Elec       q    Type
REMARK                         _______ _______ _______ _____ _____    ______ ____
ROOT
ATOM      1  O   LIG    1       -2.426  -4.228   0.003  0.00  0.00    -0.330 OA
ENDROOT
BRANCH   1   2
ATOM      2  C   LIG    1       -2.374  -2.886   0.009  0.00  0.00    +0.470 C 
ATOM      3  O   LIG    1       -3.397  -2.242   0.022  0.00  0.00    -0.510 OA
BRANCH   2   4
ATOM      4  C   LIG    1       -1.041  -2.184   0.000  0.00  0.00    +0.130 C 
BRANCH   4   5
ATOM      5  C   LIG    1       -1.262  -0.670   0.011  0.00  0.00    +0.210 C 
BRANCH   5   6
ATOM      6  O   LIG    1        0.002  -0.004   0.002  0.00  0.00    -0.310 OA
BRANCH   6  11
ATOM      7  C   LIG    1       -0.074   5.628   0.032  0.00  0.00    +0.100 C 
ATOM      8  C   LIG    1       -0.054   4.121   0.024  0.00  0.00    -0.120 A 
ATOM      9  C   LIG    1        1.153   3.447   0.009  0.00  0.00    +0.050 A 
ATOM     10  C   LIG    1        1.175   2.066   0.002  0.00  0.00    -0.020 A 
ATOM     11  C   LIG    1       -0.016   1.355   0.009  0.00  0.00    +0.120 A 
ATOM     12  C   LIG    1       -1.226   2.033   0.019  0.00  0.00    -0.070 A 
ATOM     13  C   LIG    1       -1.242   3.414   0.031  0.00  0.00    +0.050 A 
ENDBRANCH   6  11
ENDBRANCH   5   6
ENDBRANCH   4   5
ENDBRANCH   2   4
ENDBRANCH   1   2
BRANCH   1  14
ATOM     14  C   LIG    1       -3.745  -4.836   0.012  0.00  0.00    +0.240 C 
BRANCH  14  15
ATOM     15  C   LIG    1       -3.606  -6.337   0.003  0.00  0.00    +0.400 C 
ATOM     16  O   LIG    1       -2.503  -6.843  -0.011  0.00  0.00    -0.420 OA
BRANCH  15  17
ATOM     17  C   LIG    1       -4.804  -7.186   0.009  0.00  0.00    -0.200 A 
ATOM     18  C   LIG    1       -6.077  -6.603   0.030  0.00  0.00    +0.110 A 
ATOM     19  C   LIG    1       -7.193  -7.400   0.031  0.00  0.00    -0.060 A 
ATOM     20  C   LIG    1       -7.062  -8.785   0.023  0.00  0.00    +0.140 A 
ATOM     21  C   LIG    1       -5.799  -9.368   0.007  0.00  0.00    +0.000 A 
ATOM     22  C   LIG    1       -4.677  -8.580   0.001  0.00  0.00    +0.130 A 
BRANCH  20  23
ATOM     23  O   LIG    1       -8.169  -9.569   0.030  0.00  0.00    -0.320 OA
BRANCH  23  24
ATOM     24  C   LIG    1       -9.434  -8.905   0.046  0.00  0.00    +0.600 C 
ATOM     25  F   LIG    1       -9.552  -8.098  -1.091  0.00  0.00    -0.200 F 
ATOM     26  F   LIG    1       -9.529  -8.110   1.193  0.00  0.00    -0.200 F 
ENDBRANCH  23  24
ENDBRANCH  20  23
ENDBRANCH  15  17
ENDBRANCH  14  15
ENDBRANCH   1  14
TORSDOF 10
