REMARK  Name = ZINCpe00000MJIPj.0
REMARK                            x       y       z     vdW  Elec       q    Type
REMARK                         _______ _______ _______ _____ _____    ______ ____
ROOT
ATOM      1  C   LIG    1       -1.061  -0.293  -0.948  0.00  0.00    +0.110 C 
ATOM      2  C   LIG    1        0.303   0.346  -0.921  0.00  0.00    -0.050 A 
ATOM      3  C   LIG    1        0.427   1.704  -1.129  0.00  0.00    -0.020 A 
ATOM      4  C   LIG    1        1.681   2.290  -1.103  0.00  0.00    +0.110 A 
ATOM      5  C   LIG    1        2.798   1.510  -0.873  0.00  0.00    -0.020 A 
ATOM      6  C   LIG    1        2.675   0.142  -0.667  0.00  0.00    -0.040 A 
ATOM      7  C   LIG    1        3.937  -0.646  -0.438  0.00  0.00    +0.080 C 
ATOM      8  C   LIG    1        3.631  -1.980   0.242  0.00  0.00    +0.290 C 
ATOM      9  N   LIG    1        2.507  -2.606  -0.475  0.00  0.00    -0.600 N 
ATOM     10  C   LIG    1        2.659  -3.770  -1.136  0.00  0.00    +0.610 C 
ATOM     11  O   LIG    1        3.763  -4.268  -1.245  0.00  0.00    -0.530 OA
ATOM     12  C   LIG    1        1.216  -1.911  -0.441  0.00  0.00    +0.360 C 
ATOM     13  F   LIG    1        1.812   3.620  -1.302  0.00  0.00    -0.140 F 
ATOM     14  C   LIG    1        1.426  -0.437  -0.685  0.00  0.00    -0.110 A 
ENDROOT
BRANCH  10  15
ATOM     15  C   LIG    1        1.485  -4.442  -1.726  0.00  0.00    -0.100 A 
ATOM     16  C   LIG    1        1.517  -5.548  -2.527  0.00  0.00    +0.300 A 
ATOM     17  N   LIG    1        0.240  -5.835  -2.846  0.00  0.00    -0.350 N 
ATOM     18  N   LIG    1       -0.562  -4.873  -2.217  0.00  0.00    -0.050 NA
ATOM     19  N   LIG    1        0.204  -4.072  -1.562  0.00  0.00    -0.200 NA
BRANCH  17  20
ATOM     20  C   LIG    1       -0.222  -6.941  -3.690  0.00  0.00    +0.260 C 
ATOM     21  C   LIG    1        0.748  -8.139  -3.590  0.00  0.00    +0.240 C 
ATOM     22  O   LIG    1        0.794  -8.689  -4.924  0.00  0.00    -0.350 OA
ATOM     23  C   LIG    1        0.821  -7.546  -5.806  0.00  0.00    +0.200 C 
ATOM     24  C   LIG    1       -0.172  -6.542  -5.181  0.00  0.00    +0.140 C 
BRANCH  24  25
ATOM     25  O   LIG    1       -1.464  -6.674  -5.778  0.00  0.00    -0.550 OA
ATOM     26  H   LIG    1       -1.490  -6.436  -6.715  0.00  0.00    +0.390 HD
ENDBRANCH  24  25
ENDBRANCH  17  20
ENDBRANCH  10  15
TORSDOF 3
