REMARK  Name = ZINCrD000000BZfT.0
REMARK                            x       y       z     vdW  Elec       q    Type
REMARK                         _______ _______ _______ _____ _____    ______ ____
ROOT
ATOM      1  O   LIG    1        1.159   4.663   2.361  0.00  0.00    -0.480 OA
ATOM      2  C   LIG    1        0.503   4.076   1.526  0.00  0.00    +0.520 C 
ATOM      3  N   LIG    1       -0.746   3.661   1.820  0.00  0.00    -0.670 N 
ATOM      4  H   LIG    1       -1.293   3.247   1.135  0.00  0.00    +0.420 HD
ENDROOT
BRANCH   3   5
ATOM      5  C   LIG    1       -1.252   3.828   3.114  0.00  0.00    +0.160 A 
ATOM      6  C   LIG    1       -2.604   4.077   3.305  0.00  0.00    +0.080 A 
ATOM      7  C   LIG    1       -3.102   4.241   4.583  0.00  0.00    +0.070 A 
ATOM      8  C   LIG    1       -2.253   4.158   5.673  0.00  0.00    -0.000 A 
ATOM      9  C   LIG    1       -0.905   3.909   5.486  0.00  0.00    -0.020 A 
ATOM     10 CL   LIG    1       -2.882   4.364   7.278  0.00  0.00    -0.000 Cl
ATOM     11  C   LIG    1       -0.404   3.739   4.210  0.00  0.00    +0.120 A 
BRANCH   9  12
ATOM     12  N   LIG    1       -0.000   3.820   6.654  0.00  0.00    +0.020 N 
ATOM     13  O   LIG    1       -0.443   3.966   7.779  0.00  0.00    -0.130 OA
ATOM     14  O   LIG    1        1.187   3.601   6.489  0.00  0.00    -0.150 OA
ENDBRANCH   9  12
ENDBRANCH   3   5
BRANCH   2  15
ATOM     15  C   LIG    1        1.083   3.812   0.161  0.00  0.00    +0.200 C 
BRANCH  15  16
ATOM     16  C   LIG    1        1.772   2.472   0.159  0.00  0.00    -0.130 A 
ATOM     17  C   LIG    1        3.124   2.390   0.432  0.00  0.00    +0.100 A 
ATOM     18  C   LIG    1        3.758   1.161   0.430  0.00  0.00    +0.010 A 
ATOM     19  C   LIG    1        3.039   0.013   0.155  0.00  0.00    +0.060 A 
ATOM     20  C   LIG    1        1.686   0.092  -0.118  0.00  0.00    -0.010 A 
ATOM     21  C   LIG    1        1.051   1.322  -0.116  0.00  0.00    +0.110 A 
ATOM     22  F   LIG    1       -0.270   1.401  -0.388  0.00  0.00    -0.140 F 
ENDBRANCH  15  16
BRANCH  15  23
ATOM     23  N   LIG    1        2.054   4.863  -0.170  0.00  0.00    -0.510 NA
ATOM     24  C   LIG    1        1.446   6.197  -0.058  0.00  0.00    +0.160 C 
ATOM     25  C   LIG    1        2.506   7.261  -0.353  0.00  0.00    +0.240 C 
ATOM     26  O   LIG    1        3.062   7.027  -1.650  0.00  0.00    -0.380 OA
ATOM     27  C   LIG    1        3.663   5.738  -1.794  0.00  0.00    +0.230 C 
ATOM     28  C   LIG    1        2.615   4.657  -1.514  0.00  0.00    +0.150 C 
ENDBRANCH  15  23
ENDBRANCH   2  15
TORSDOF 5
