REMARK  Name = ZINCrD000000CFwo.0
REMARK                            x       y       z     vdW  Elec       q    Type
REMARK                         _______ _______ _______ _____ _____    ______ ____
ROOT
ATOM      1  O   LIG    1        3.732  -1.886   0.034  0.00  0.00    -0.520 OA
ATOM      2  C   LIG    1        3.705  -0.672  -0.036  0.00  0.00    +0.570 C 
ATOM      3  N   LIG    1        4.855   0.022  -0.145  0.00  0.00    -0.610 N 
ATOM      4  C   LIG    1        4.845   1.492  -0.146  0.00  0.00    +0.280 C 
ATOM      5  C   LIG    1        5.586   1.994  -1.383  0.00  0.00    +0.030 C 
ATOM      6  C   LIG    1        6.985   1.375  -1.424  0.00  0.00    +0.100 C 
ATOM      7  C   LIG    1        6.868  -0.148  -1.514  0.00  0.00    +0.040 C 
ATOM      8  C   LIG    1        6.142  -0.675  -0.272  0.00  0.00    +0.290 C 
ENDROOT
BRANCH   6   9
ATOM      9  C   LIG    1        7.729   1.893  -2.628  0.00  0.00    +0.150 A 
ATOM     10  N   LIG    1        7.370   1.754  -3.878  0.00  0.00    -0.240 NA
ATOM     11  N   LIG    1        8.229   2.316  -4.654  0.00  0.00    -0.290 NA
ATOM     12  C   LIG    1        9.196   2.851  -3.928  0.00  0.00    +0.190 A 
ATOM     13  C   LIG    1       10.364   3.571  -4.248  0.00  0.00    +0.080 A 
ATOM     14  C   LIG    1       11.170   4.010  -3.244  0.00  0.00    +0.060 A 
ATOM     15  C   LIG    1       10.835   3.730  -1.908  0.00  0.00    +0.030 A 
ATOM     16  C   LIG    1        9.715   3.036  -1.616  0.00  0.00    +0.230 A 
ATOM     17  N   LIG    1        8.894   2.596  -2.612  0.00  0.00    -0.390 N 
ENDBRANCH   6   9
BRANCH   2  18
ATOM     18  C   LIG    1        2.414   0.040  -0.002  0.00  0.00    -0.150 A 
ATOM     19  C   LIG    1        2.196   1.055   0.933  0.00  0.00    +0.080 A 
ATOM     20  C   LIG    1        0.987   1.716   0.960  0.00  0.00    -0.010 A 
ATOM     21  C   LIG    1       -0.014   1.379   0.064  0.00  0.00    +0.080 A 
ATOM     22  C   LIG    1        0.188   0.378  -0.866  0.00  0.00    -0.050 A 
ATOM     23  C   LIG    1        1.398  -0.297  -0.907  0.00  0.00    +0.150 A 
BRANCH  23  24
ATOM     24  O   LIG    1        1.598  -1.281  -1.820  0.00  0.00    -0.310 OA
BRANCH  24  25
ATOM     25  C   LIG    1        0.518  -1.570  -2.709  0.00  0.00    +0.600 C 
ATOM     26  F   LIG    1        0.207  -0.426  -3.452  0.00  0.00    -0.200 F 
ATOM     27  F   LIG    1       -0.602  -1.965  -1.970  0.00  0.00    -0.200 F 
ENDBRANCH  24  25
ENDBRANCH  23  24
ENDBRANCH   2  18
TORSDOF 4
