REMARK  Name = ZINCvU0000000DCk.0
REMARK                            x       y       z     vdW  Elec       q    Type
REMARK                         _______ _______ _______ _____ _____    ______ ____
ROOT
ATOM      1  C   LIG    1        2.247  12.373   0.027  0.00  0.00    +0.110 C 
ENDROOT
BRANCH   1   2
ATOM      2  C   LIG    1        1.794  13.810   0.049  0.00  0.00    +0.540 C 
ATOM      3  N   LIG    1        2.704  14.803   0.048  0.00  0.00    -0.660 N 
ATOM      4  H   LIG    1        3.650  14.595   0.114  0.00  0.00    +0.420 HD
ATOM      5  O   LIG    1        0.610  14.072   0.068  0.00  0.00    -0.500 OA
BRANCH   3   6
ATOM      6  C   LIG    1        2.287  16.134  -0.048  0.00  0.00    +0.160 A 
ATOM      7  C   LIG    1        1.071  16.441  -0.640  0.00  0.00    +0.020 A 
ATOM      8  C   LIG    1        0.657  17.756  -0.728  0.00  0.00    +0.040 A 
ATOM      9  C   LIG    1        1.456  18.774  -0.239  0.00  0.00    +0.000 A 
ATOM     10  C   LIG    1        2.671  18.484   0.349  0.00  0.00    +0.040 A 
ATOM     11  C   LIG    1        3.096  17.162   0.449  0.00  0.00    -0.080 A 
BRANCH  11  12
ATOM     12  C   LIG    1        4.401  16.845   1.078  0.00  0.00    -0.050 A 
ATOM     13  C   LIG    1        4.479  15.873   2.075  0.00  0.00    +0.000 A 
ATOM     14  C   LIG    1        5.697  15.579   2.654  0.00  0.00    +0.010 A 
ATOM     15  C   LIG    1        6.837  16.253   2.253  0.00  0.00    +0.000 A 
ATOM     16  C   LIG    1        6.764  17.221   1.269  0.00  0.00    +0.010 A 
ATOM     17  C   LIG    1        5.553  17.521   0.680  0.00  0.00    +0.030 A 
ENDBRANCH  11  12
ENDBRANCH   3   6
ENDBRANCH   1   2
BRANCH   1  18
ATOM     18  S   LIG    1        0.801  11.284   0.035  0.00  0.00    +0.160 S 
BRANCH  18  22
ATOM     19  C   LIG    1        1.982   7.588  -0.023  0.00  0.00    +0.230 A 
ATOM     20  N   LIG    1        3.122   8.235  -0.026  0.00  0.00    -0.270 NA
ATOM     21  N   LIG    1        2.896   9.502  -0.014  0.00  0.00    -0.280 NA
ATOM     22  C   LIG    1        1.600   9.714   0.006  0.00  0.00    +0.110 A 
ATOM     23  O   LIG    1        0.994   8.511   0.001  0.00  0.00    -0.200 OA
BRANCH  19  27
ATOM     24  C   LIG    1        1.483   3.370  -0.065  0.00  0.00    +0.160 A 
ATOM     25  C   LIG    1        0.369   4.199  -0.045  0.00  0.00    -0.070 A 
ATOM     26  C   LIG    1        0.526   5.568  -0.026  0.00  0.00    +0.100 A 
ATOM     27  C   LIG    1        1.808   6.122  -0.037  0.00  0.00    -0.070 A 
ATOM     28  C   LIG    1        2.926   5.285  -0.063  0.00  0.00    +0.130 A 
ATOM     29  C   LIG    1        2.760   3.916  -0.076  0.00  0.00    +0.000 A 
BRANCH  24  30
ATOM     30  O   LIG    1        1.323   2.021  -0.079  0.00  0.00    -0.310 OA
BRANCH  30  32
ATOM     31  C   LIG    1        0.004  -0.004  -0.085  0.00  0.00    +0.070 C 
ATOM     32  C   LIG    1       -0.017   1.526  -0.067  0.00  0.00    +0.190 C 
ENDBRANCH  30  32
ENDBRANCH  24  30
ENDBRANCH  19  27
ENDBRANCH  18  22
ENDBRANCH   1  18
TORSDOF 8
