REMARK  Name = ZINCqH0000007bTZ.0
REMARK                            x       y       z     vdW  Elec       q    Type
REMARK                         _______ _______ _______ _____ _____    ______ ____
ROOT
ATOM      1  C   LIG    1        1.096   2.482  -0.024  0.00  0.00    -0.240 A 
ATOM      2  C   LIG    1        0.116   1.522  -0.013  0.00  0.00    +0.030 A 
ATOM      3  O   LIG    1       -1.050   2.168   0.032  0.00  0.00    +0.110 OA
ATOM      4  N   LIG    1       -0.932   3.369   0.058  0.00  0.00    -0.320 NA
ATOM      5  C   LIG    1        0.318   0.029  -0.050  0.00  0.00    +0.220 C 
ATOM      6  C   LIG    1        0.323   3.741   0.026  0.00  0.00    +0.080 A 
ENDROOT
BRANCH   6   7
ATOM      7  C   LIG    1        0.853   5.125   0.038  0.00  0.00    -0.060 A 
ATOM      8  C   LIG    1        1.814   5.515  -0.896  0.00  0.00    +0.140 A 
ATOM      9  C   LIG    1        2.305   6.808  -0.879  0.00  0.00    +0.000 A 
ATOM     10  C   LIG    1        1.845   7.712   0.060  0.00  0.00    +0.090 A 
ATOM     11  C   LIG    1        0.892   7.331   0.988  0.00  0.00    +0.030 A 
ATOM     12  F   LIG    1        2.264   4.632  -1.815  0.00  0.00    -0.110 F 
ATOM     13  C   LIG    1        0.391   6.045   0.979  0.00  0.00    +0.020 A 
ATOM     14 CL   LIG    1       -0.809   5.571   2.141  0.00  0.00    -0.040 Cl
ENDBRANCH   6   7
BRANCH   1  17
ATOM     15  N   LIG    1        3.276   2.312   1.066  0.00  0.00    -0.720 N 
ATOM     16  H   LIG    1        2.832   2.437   1.919  0.00  0.00    +0.400 HD
ATOM     17  C   LIG    1        2.557   2.303  -0.074  0.00  0.00    +0.600 C 
ATOM     18  O   LIG    1        3.115   2.147  -1.143  0.00  0.00    -0.510 OA
BRANCH  15  19
ATOM     19  C   LIG    1        4.730   2.134   1.016  0.00  0.00    +0.330 C 
BRANCH  19  23
ATOM     20  C   LIG    1        6.311   2.355   4.932  0.00  0.00    +0.330 A 
ATOM     21  C   LIG    1        5.929   1.112   4.444  0.00  0.00    -0.040 A 
ATOM     22  C   LIG    1        5.409   1.022   3.164  0.00  0.00    +0.130 A 
ATOM     23  C   LIG    1        5.290   2.184   2.415  0.00  0.00    -0.210 A 
ATOM     24  C   LIG    1        5.695   3.385   2.962  0.00  0.00    +0.320 A 
ATOM     25  N   LIG    1        6.183   3.440   4.186  0.00  0.00    -0.540 NA
BRANCH  20  27
ATOM     26  C   LIG    1        7.197   3.763   6.628  0.00  0.00    +0.260 C 
ATOM     27  O   LIG    1        6.822   2.457   6.184  0.00  0.00    -0.310 OA
ENDBRANCH  20  27
ENDBRANCH  19  23
ENDBRANCH  15  19
ENDBRANCH   1  17
TORSDOF 5
