REMARK  Name = ZINCrH000004nb78.0
REMARK                            x       y       z     vdW  Elec       q    Type
REMARK                         _______ _______ _______ _____ _____    ______ ____
ROOT
ATOM      1  C   LIG    1        1.288   6.200   5.664  0.00  0.00    +0.130 A 
ATOM      2  C   LIG    1        0.782   4.915   5.790  0.00  0.00    -0.080 A 
ATOM      3  C   LIG    1       -0.073   4.420   4.828  0.00  0.00    +0.060 A 
ATOM      4  C   LIG    1       -0.438   5.200   3.739  0.00  0.00    -0.130 A 
ATOM      5  C   LIG    1        0.056   6.480   3.614  0.00  0.00    -0.030 A 
ATOM      6  C   LIG    1       -0.307   7.388   2.469  0.00  0.00    +0.080 C 
ATOM      7  C   LIG    1       -0.842   6.583   1.285  0.00  0.00    +0.220 C 
ATOM      8  N   LIG    1       -1.840   5.631   1.798  0.00  0.00    -0.600 N 
ATOM      9  C   LIG    1       -3.136   5.711   1.438  0.00  0.00    +0.570 C 
ATOM     10  O   LIG    1       -3.488   6.536   0.617  0.00  0.00    -0.520 OA
ATOM     11  C   LIG    1       -1.497   7.525   0.273  0.00  0.00    +0.060 C 
ATOM     12  C   LIG    1       -1.367   4.591   2.719  0.00  0.00    +0.280 C 
ATOM     13  C   LIG    1       -2.564   3.961   3.433  0.00  0.00    +0.040 C 
ATOM     14  C   LIG    1        0.922   6.978   4.579  0.00  0.00    -0.020 A 
ENDROOT
BRANCH   9  15
ATOM     15  C   LIG    1       -4.127   4.798   2.039  0.00  0.00    -0.120 A 
ATOM     16  C   LIG    1       -4.295   3.510   1.525  0.00  0.00    +0.080 A 
ATOM     17  C   LIG    1       -5.221   2.660   2.088  0.00  0.00    -0.020 A 
ATOM     18  C   LIG    1       -5.988   3.082   3.169  0.00  0.00    +0.180 A 
ATOM     19  N   LIG    1       -6.924   2.221   3.739  0.00  0.00    -0.660 N 
ATOM     20  H   LIG    1       -6.861   1.267   3.576  0.00  0.00    +0.410 HD
ATOM     21  C   LIG    1       -7.913   2.701   4.513  0.00  0.00    +0.520 C 
ATOM     22  C   LIG    1       -8.044   4.179   4.768  0.00  0.00    +0.080 C 
ATOM     23  C   LIG    1       -6.657   4.816   4.855  0.00  0.00    +0.100 C 
ATOM     24  O   LIG    1       -8.710   1.935   5.012  0.00  0.00    -0.520 OA
ATOM     25  C   LIG    1       -5.823   4.365   3.684  0.00  0.00    -0.120 A 
ATOM     26  C   LIG    1       -4.896   5.218   3.129  0.00  0.00    +0.090 A 
ENDBRANCH   9  15
BRANCH   1  28
ATOM     27  C   LIG    1        2.470   5.835   7.694  0.00  0.00    +0.250 C 
ATOM     28  O   LIG    1        2.138   6.695   6.602  0.00  0.00    -0.320 OA
ENDBRANCH   1  28
TORSDOF 2
