REMARK  Name = ZINCwl0000000i4u.0
REMARK                            x       y       z     vdW  Elec       q    Type
REMARK                         _______ _______ _______ _____ _____    ______ ____
ROOT
ATOM      1  C   LIG    1        0.072  -3.671  -1.904  0.00  0.00    +0.510 C 
ATOM      2  N   LIG    1        0.739  -2.686  -1.270  0.00  0.00    -0.610 N 
ATOM      3  C   LIG    1        1.339  -2.783   0.070  0.00  0.00    +0.260 C 
ATOM      4  C   LIG    1        1.972  -1.410   0.389  0.00  0.00    +0.060 C 
ATOM      5  C   LIG    1        1.224  -0.457  -0.563  0.00  0.00    +0.100 C 
ATOM      6  C   LIG    1        2.092   0.759  -0.908  0.00  0.00    +0.040 C 
ATOM      7  C   LIG    1        1.473   1.862  -0.002  0.00  0.00    +0.240 C 
ATOM      8  C   LIG    1       -0.018   1.436   0.010  0.00  0.00    +0.210 C 
ATOM      9  O   LIG    1        0.002  -0.004   0.002  0.00  0.00    -0.350 OA
ATOM     10  C   LIG    1        0.988  -1.333  -1.806  0.00  0.00    +0.280 C 
ATOM     11  O   LIG    1       -0.383  -3.480  -3.012  0.00  0.00    -0.530 OA
ENDROOT
BRANCH   7  12
ATOM     12  N   LIG    1        1.638   3.189  -0.599  0.00  0.00    -0.720 N 
ATOM     13  H   LIG    1        1.838   3.274  -1.545  0.00  0.00    +0.400 HD
ATOM     14  C   LIG    1        1.511   4.292   0.164  0.00  0.00    +0.600 C 
ATOM     15  O   LIG    1        1.260   4.186   1.351  0.00  0.00    -0.510 OA
BRANCH  14  16
ATOM     16  C   LIG    1        1.675   5.619  -0.433  0.00  0.00    -0.050 A 
ATOM     17  C   LIG    1        1.575   6.854   0.222  0.00  0.00    -0.080 A 
ATOM     18  C   LIG    1        1.315   7.291   1.527  0.00  0.00    +0.070 A 
ATOM     19  C   LIG    1        1.299   8.625   1.796  0.00  0.00    +0.020 A 
ATOM     20  C   LIG    1        1.536   9.573   0.800  0.00  0.00    +0.030 A 
ATOM     21  C   LIG    1        1.793   9.214  -0.484  0.00  0.00    +0.070 A 
ATOM     22  C   LIG    1        1.825   7.849  -0.832  0.00  0.00    +0.050 A 
ATOM     23  N   LIG    1        2.037   7.165  -1.942  0.00  0.00    -0.250 NA
ATOM     24  N   LIG    1        1.962   5.899  -1.734  0.00  0.00    -0.320 N 
ATOM     25  H   LIG    1        2.091   5.226  -2.421  0.00  0.00    +0.450 HD
ENDBRANCH  14  16
ENDBRANCH   7  12
BRANCH   1  26
ATOM     26  C   LIG    1       -0.108  -5.010  -1.236  0.00  0.00    +0.330 C 
BRANCH  26  28
ATOM     27  C   LIG    1       -0.151  -6.750  -3.083  0.00  0.00    +0.330 C 
ATOM     28  N   LIG    1       -0.861  -5.901  -2.123  0.00  0.00    -0.550 NA
BRANCH  28  29
ATOM     29  C   LIG    1       -2.250  -5.940  -2.054  0.00  0.00    +0.320 C 
ATOM     30  C   LIG    1       -2.944  -5.144  -1.143  0.00  0.00    -0.040 C 
ATOM     31  C   LIG    1       -4.321  -5.208  -1.110  0.00  0.00    +0.370 C 
ATOM     32  N   LIG    1       -4.980  -6.018  -1.918  0.00  0.00    -0.500 NA
ATOM     33  C   LIG    1       -4.360  -6.790  -2.790  0.00  0.00    +0.380 C 
ATOM     34  H   LIG    1       -5.949  -6.045  -1.870  0.00  0.00    +0.450 HD
ATOM     35  C   LIG    1       -2.985  -6.781  -2.890  0.00  0.00    -0.030 C 
ENDBRANCH  28  29
ENDBRANCH  26  28
ENDBRANCH   1  26
TORSDOF 5
