REMARK  Name = ZINCwl0000000i4u.1
REMARK                            x       y       z     vdW  Elec       q    Type
REMARK                         _______ _______ _______ _____ _____    ______ ____
ROOT
ATOM      1  C   LIG    1      -10.280   9.069  -1.450  0.00  0.00    +0.510 C 
ATOM      2  N   LIG    1       -9.204   8.738  -0.709  0.00  0.00    -0.610 N 
ATOM      3  C   LIG    1       -8.442   9.656   0.152  0.00  0.00    +0.260 C 
ATOM      4  C   LIG    1       -7.288   8.843   0.782  0.00  0.00    +0.060 C 
ATOM      5  C   LIG    1       -7.147   7.648  -0.180  0.00  0.00    +0.100 C 
ATOM      6  C   LIG    1       -6.579   6.426   0.551  0.00  0.00    +0.040 C 
ATOM      7  C   LIG    1       -5.095   6.434   0.085  0.00  0.00    +0.230 C 
ATOM      8  C   LIG    1       -5.238   6.991  -1.355  0.00  0.00    +0.210 C 
ATOM      9  O   LIG    1       -6.303   7.958  -1.280  0.00  0.00    -0.350 OA
ATOM     10  C   LIG    1       -8.597   7.396  -0.627  0.00  0.00    +0.280 C 
ATOM     11  O   LIG    1      -10.833   8.228  -2.126  0.00  0.00    -0.530 OA
ENDROOT
BRANCH   7  12
ATOM     12  N   LIG    1       -4.538   5.079   0.073  0.00  0.00    -0.710 N 
ATOM     13  H   LIG    1       -5.131   4.311   0.074  0.00  0.00    +0.410 HD
ATOM     14  C   LIG    1       -3.203   4.898   0.059  0.00  0.00    +0.610 C 
ATOM     15  O   LIG    1       -2.459   5.861   0.056  0.00  0.00    -0.520 OA
BRANCH  14  16
ATOM     16  C   LIG    1       -2.643   3.535   0.046  0.00  0.00    -0.010 A 
ATOM     17  N   LIG    1       -3.318   2.406   0.047  0.00  0.00    -0.200 NA
ATOM     18  N   LIG    1       -2.542   1.383   0.034  0.00  0.00    -0.410 N 
ATOM     19  H   LIG    1       -2.850   0.463   0.032  0.00  0.00    +0.450 HD
ATOM     20  C   LIG    1       -1.224   1.758   0.017  0.00  0.00    +0.060 A 
ATOM     21  C   LIG    1       -0.013   1.076   0.008  0.00  0.00    +0.010 A 
ATOM     22  C   LIG    1        1.169   1.784   0.001  0.00  0.00    +0.060 A 
ATOM     23  C   LIG    1        1.164   3.173   0.008  0.00  0.00    +0.000 A 
ATOM     24  C   LIG    1       -0.016   3.863   0.023  0.00  0.00    +0.090 A 
ATOM     25  C   LIG    1       -1.221   3.167   0.031  0.00  0.00    -0.110 A 
ENDBRANCH  14  16
ENDBRANCH   7  12
BRANCH   1  26
ATOM     26  C   LIG    1      -10.796  10.485  -1.439  0.00  0.00    +0.330 C 
BRANCH  26  28
ATOM     27  C   LIG    1      -13.307  10.353  -1.784  0.00  0.00    +0.330 C 
ATOM     28  N   LIG    1      -11.963  10.587  -2.319  0.00  0.00    -0.550 NA
BRANCH  28  29
ATOM     29  C   LIG    1      -11.796  10.905  -3.663  0.00  0.00    +0.320 C 
ATOM     30  C   LIG    1      -10.526  11.137  -4.191  0.00  0.00    -0.040 C 
ATOM     31  C   LIG    1      -10.402  11.444  -5.530  0.00  0.00    +0.370 C 
ATOM     32  N   LIG    1      -11.467  11.531  -6.305  0.00  0.00    -0.500 NA
ATOM     33  C   LIG    1      -12.686  11.323  -5.843  0.00  0.00    +0.380 C 
ATOM     34  H   LIG    1      -11.350  11.752  -7.242  0.00  0.00    +0.450 HD
ATOM     35  C   LIG    1      -12.894  11.006  -4.517  0.00  0.00    -0.030 C 
ENDBRANCH  28  29
ENDBRANCH  26  28
ENDBRANCH   1  26
TORSDOF 5
