REMARK  Name = ZINCpe000000Uh4W.0
REMARK                            x       y       z     vdW  Elec       q    Type
REMARK                         _______ _______ _______ _____ _____    ______ ____
ROOT
ATOM      1  N   LIG    1        1.221   3.329   0.008  0.00  0.00    -0.530 N 
ATOM      2  C   LIG    1        1.262   1.982   0.001  0.00  0.00    +0.510 A 
ATOM      3  C   LIG    1       -0.014   1.210   0.009  0.00  0.00    +0.510 A 
ATOM      4  N   LIG    1       -1.187   1.876   0.018  0.00  0.00    -0.630 N 
ATOM      5  H   LIG    1       -2.023   1.384   0.019  0.00  0.00    +0.430 HD
ATOM      6  C   LIG    1       -1.199   3.269   0.029  0.00  0.00    +0.110 A 
ATOM      7  C   LIG    1       -2.410   3.943   0.044  0.00  0.00    +0.110 A 
ATOM      8  C   LIG    1       -2.430   5.338   0.051  0.00  0.00    -0.120 A 
ATOM      9  C   LIG    1       -1.228   6.053   0.043  0.00  0.00    +0.070 A 
ATOM     10  C   LIG    1       -0.027   5.383   0.029  0.00  0.00    +0.020 A 
ATOM     11  O   LIG    1        0.002  -0.004   0.002  0.00  0.00    -0.460 OA
ATOM     12  O   LIG    1        2.329   1.401  -0.013  0.00  0.00    -0.460 OA
ATOM     13  C   LIG    1       -0.001   3.990   0.022  0.00  0.00    +0.160 A 
ENDROOT
BRANCH   8  14
ATOM     14  C   LIG    1       -3.719   6.059   0.066  0.00  0.00    +0.570 C 
ATOM     15  N   LIG    1       -3.737   7.406   0.073  0.00  0.00    -0.510 N 
ATOM     16  H   LIG    1       -2.904   7.903   0.067  0.00  0.00    +0.430 HD
ATOM     17  O   LIG    1       -4.763   5.436   0.073  0.00  0.00    -0.530 OA
BRANCH  15  18
ATOM     18  N   LIG    1       -4.960   8.090   0.087  0.00  0.00    -0.520 N 
ATOM     19  H   LIG    1       -5.793   7.593   0.092  0.00  0.00    +0.430 HD
ATOM     20  C   LIG    1       -4.978   9.438   0.094  0.00  0.00    +0.600 C 
ATOM     21  O   LIG    1       -3.933  10.060   0.087  0.00  0.00    -0.530 OA
BRANCH  20  22
ATOM     22  C   LIG    1       -6.258  10.153   0.109  0.00  0.00    -0.280 A 
ATOM     23  C   LIG    1       -6.406  11.511   0.116  0.00  0.00    +0.120 A 
ATOM     24  C   LIG    1       -7.720  11.915   0.130  0.00  0.00    +0.000 A 
ATOM     25  C   LIG    1       -8.618  10.922   0.134  0.00  0.00    -0.050 A 
ATOM     26  S   LIG    1       -7.847   9.401   0.112  0.00  0.00    +0.210 S 
ENDBRANCH  20  22
ENDBRANCH  15  18
ENDBRANCH   8  14
BRANCH   1  28
ATOM     27  C   LIG    1        2.888   4.374  -1.445  0.00  0.00    +0.030 C 
ATOM     28  C   LIG    1        2.467   4.099   0.000  0.00  0.00    +0.290 C 
ENDBRANCH   1  28
TORSDOF 4
