REMARK  Name = ZINCqH00000073Wo.0
REMARK                            x       y       z     vdW  Elec       q    Type
REMARK                         _______ _______ _______ _____ _____    ______ ____
ROOT
ATOM      1  C   LIG    1        3.744  -0.963   0.175  0.00  0.00    +0.250 C 
ENDROOT
BRANCH   1   3
ATOM      2  C   LIG    1        4.416  -3.206   0.848  0.00  0.00    +0.570 C 
ATOM      3  N   LIG    1        3.502  -2.405   0.266  0.00  0.00    -0.710 N 
ATOM      4  H   LIG    1        2.684  -2.783  -0.093  0.00  0.00    +0.410 HD
ATOM      5  O   LIG    1        5.441  -2.732   1.298  0.00  0.00    -0.530 OA
BRANCH   2   9
ATOM      6  C   LIG    1        3.714  -7.386   1.113  0.00  0.00    +0.160 A 
ATOM      7  C   LIG    1        4.887  -6.846   1.627  0.00  0.00    -0.020 A 
ATOM      8  C   LIG    1        5.118  -5.492   1.544  0.00  0.00    +0.130 A 
ATOM      9  C   LIG    1        4.172  -4.659   0.940  0.00  0.00    -0.180 A 
ATOM     10  C   LIG    1        2.992  -5.205   0.429  0.00  0.00    +0.090 A 
ATOM     11  C   LIG    1        2.770  -6.562   0.512  0.00  0.00    -0.080 A 
BRANCH   6  13
ATOM     12  C   LIG    1        2.264  -9.210   0.649  0.00  0.00    +0.240 C 
ATOM     13  O   LIG    1        3.490  -8.722   1.198  0.00  0.00    -0.310 OA
ENDBRANCH   6  13
ENDBRANCH   2   9
ENDBRANCH   1   3
BRANCH   1  14
ATOM     14  C   LIG    1        2.426  -0.238   0.078  0.00  0.00    +0.520 C 
ATOM     15  N   LIG    1        2.402   1.106  -0.015  0.00  0.00    -0.660 N 
ATOM     16  H   LIG    1        3.233   1.602  -0.086  0.00  0.00    +0.410 HD
ATOM     17  O   LIG    1        1.387  -0.864   0.085  0.00  0.00    -0.510 OA
BRANCH  15  18
ATOM     18  C   LIG    1        1.179   1.786  -0.010  0.00  0.00    +0.130 A 
ATOM     19  C   LIG    1        0.064   1.216  -0.608  0.00  0.00    +0.030 A 
ATOM     20  C   LIG    1       -1.141   1.893  -0.607  0.00  0.00    +0.020 A 
ATOM     21  C   LIG    1       -1.239   3.131  -0.001  0.00  0.00    -0.090 A 
ATOM     22  C   LIG    1       -0.129   3.702   0.595  0.00  0.00    +0.030 A 
ATOM     23  C   LIG    1       -2.556   3.863   0.005  0.00  0.00    +0.100 C 
ATOM     24  C   LIG    1        1.079   3.034   0.593  0.00  0.00    -0.100 A 
ATOM     25  C   LIG    1        2.288   3.657   1.242  0.00  0.00    +0.080 C 
ENDBRANCH  15  18
ENDBRANCH   1  14
BRANCH   1  26
ATOM     26  C   LIG    1        4.583  -0.665  -1.069  0.00  0.00    -0.020 C 
ATOM     27  C   LIG    1        3.831  -1.135  -2.316  0.00  0.00    +0.020 C 
ATOM     28  C   LIG    1        5.920  -1.401  -0.971  0.00  0.00    +0.040 C 
ENDBRANCH   1  26
TORSDOF 6
