REMARK  Name = ZINCtV00000L6kfy.0
REMARK                            x       y       z     vdW  Elec       q    Type
REMARK                         _______ _______ _______ _____ _____    ______ ____
ROOT
ATOM      1  C   LIG    1        3.995   2.620  -0.028  0.00  0.00    +0.160 A 
ATOM      2  C   LIG    1        4.456   1.316   0.136  0.00  0.00    +0.020 A 
ATOM      3  C   LIG    1        3.589   0.267   0.135  0.00  0.00    +0.100 A 
ATOM      4  C   LIG    1        2.204   0.479  -0.031  0.00  0.00    +0.100 A 
ATOM      5  N   LIG    1        1.208  -0.430  -0.057  0.00  0.00    -0.460 NA
ATOM      6  C   LIG    1        0.005  -0.003  -0.223  0.00  0.00    +0.330 A 
ATOM      7  S   LIG    1       -0.007   1.748  -0.378  0.00  0.00    +0.080 S 
ATOM      8  C   LIG    1        1.745   1.790  -0.195  0.00  0.00    -0.160 A 
ATOM      9  C   LIG    1        2.641   2.855  -0.192  0.00  0.00    +0.070 A 
ENDROOT
BRANCH   1  12
ATOM     10  O   LIG    1        3.444   5.007   1.016  0.00  0.00    -0.510 OA
ATOM     11  C   LIG    1        4.527   4.884   0.477  0.00  0.00    +0.560 C 
ATOM     12  N   LIG    1        4.898   3.690  -0.025  0.00  0.00    -0.660 N 
ATOM     13  H   LIG    1        5.791   3.571  -0.386  0.00  0.00    +0.410 HD
BRANCH  11  14
ATOM     14  C   LIG    1        5.437   6.044   0.374  0.00  0.00    -0.130 A 
ATOM     15  C   LIG    1        6.684   5.905  -0.238  0.00  0.00    +0.060 A 
ATOM     16  C   LIG    1        7.527   6.993  -0.336  0.00  0.00    +0.020 A 
ATOM     17  C   LIG    1        7.144   8.217   0.181  0.00  0.00    +0.080 A 
ATOM     18  C   LIG    1        5.911   8.361   0.795  0.00  0.00    -0.100 A 
ATOM     19 BR   LIG    1        5.397  10.040   1.498  0.00  0.00    -0.030 Br
ATOM     20  C   LIG    1        5.056   7.282   0.894  0.00  0.00    +0.120 A 
ENDBRANCH  11  14
ENDBRANCH   1  12
BRANCH   6  21
ATOM     21  N   LIG    1       -1.120  -0.809  -0.273  0.00  0.00    -0.630 N 
ATOM     22  H   LIG    1       -1.995  -0.412  -0.402  0.00  0.00    +0.420 HD
ATOM     23  C   LIG    1       -0.998  -2.145  -0.143  0.00  0.00    +0.560 C 
ATOM     24  O   LIG    1        0.099  -2.643   0.018  0.00  0.00    -0.460 OA
BRANCH  23  25
ATOM     25  C   LIG    1       -2.199  -3.005  -0.197  0.00  0.00    -0.130 A 
ATOM     26  C   LIG    1       -3.461  -2.436  -0.376  0.00  0.00    +0.060 A 
ATOM     27  C   LIG    1       -4.578  -3.245  -0.431  0.00  0.00    +0.020 A 
ATOM     28  C   LIG    1       -4.450  -4.616  -0.296  0.00  0.00    +0.080 A 
ATOM     29  C   LIG    1       -3.202  -5.186  -0.113  0.00  0.00    -0.100 A 
ATOM     30 BR   LIG    1       -3.039  -7.061   0.069  0.00  0.00    -0.030 Br
ATOM     31  C   LIG    1       -2.076  -4.389  -0.062  0.00  0.00    +0.120 A 
ENDBRANCH  23  25
ENDBRANCH   6  21
TORSDOF 4
