REMARK  Name = ZINCqH0000007sco.0
REMARK                            x       y       z     vdW  Elec       q    Type
REMARK                         _______ _______ _______ _____ _____    ______ ____
ROOT
ATOM      1  C   LIG    1        2.542  -2.270  -2.758  0.00  0.00    +0.320 C 
ENDROOT
BRANCH   1   5
ATOM      2  C   LIG    1        1.237  -2.163  -6.827  0.00  0.00    +0.140 A 
ATOM      3  C   LIG    1        1.939  -1.092  -6.293  0.00  0.00    -0.020 A 
ATOM      4  C   LIG    1        2.359  -1.129  -4.978  0.00  0.00    +0.100 A 
ATOM      5  C   LIG    1        2.082  -2.232  -4.193  0.00  0.00    -0.140 A 
ATOM      6  C   LIG    1        1.387  -3.304  -4.724  0.00  0.00    +0.060 A 
ATOM      7  C   LIG    1        0.960  -3.270  -6.037  0.00  0.00    -0.080 A 
BRANCH   2   9
ATOM      8  C   LIG    1        0.105  -3.268  -8.602  0.00  0.00    +0.250 C 
ATOM      9  O   LIG    1        0.822  -2.129  -8.120  0.00  0.00    -0.320 OA
ENDBRANCH   2   9
ENDBRANCH   1   5
BRANCH   1  10
ATOM     10  N   LIG    1        1.495  -2.869  -1.926  0.00  0.00    -1.110 NA
ATOM     11  H   LIG    1        0.942  -3.582  -2.281  0.00  0.00    +0.420 HD
BRANCH  10  12
ATOM     12  S   LIG    1        1.258  -2.328  -0.379  0.00  0.00    +2.720 S 
ATOM     13  O   LIG    1        0.175  -3.082   0.148  0.00  0.00    -0.940 OA
ATOM     14  O   LIG    1        2.541  -2.279   0.231  0.00  0.00    -0.940 OA
BRANCH  12  15
ATOM     15  C   LIG    1        0.696  -0.661  -0.489  0.00  0.00    -0.800 A 
ATOM     16  C   LIG    1       -0.580  -0.284  -0.573  0.00  0.00    +0.190 A 
ATOM     17  C   LIG    1       -0.781   1.083  -0.651  0.00  0.00    +0.010 A 
ATOM     18  C   LIG    1        0.334   1.817  -0.629  0.00  0.00    -0.110 A 
ATOM     19 CL   LIG    1        0.394   3.550  -0.712  0.00  0.00    +0.010 Cl
ATOM     20  S   LIG    1        1.734   0.759  -0.505  0.00  0.00    +0.270 S 
ENDBRANCH  12  15
ENDBRANCH  10  12
ENDBRANCH   1  10
BRANCH   1  21
ATOM     21  C   LIG    1        3.818  -3.107  -2.654  0.00  0.00    +0.110 C 
BRANCH  21  22
ATOM     22  C   LIG    1        4.942  -2.401  -3.367  0.00  0.00    +0.470 C 
ATOM     23  O   LIG    1        4.777  -1.285  -3.798  0.00  0.00    -0.500 OA
BRANCH  22  24
ATOM     24  O   LIG    1        6.127  -3.012  -3.522  0.00  0.00    -0.350 OA
BRANCH  24  25
ATOM     25  C   LIG    1        7.164  -2.271  -4.218  0.00  0.00    +0.170 C 
ATOM     26  C   LIG    1        8.087  -3.250  -4.947  0.00  0.00    +0.060 C 
ATOM     27  C   LIG    1        7.977  -1.459  -3.208  0.00  0.00    +0.040 C 
ENDBRANCH  24  25
ENDBRANCH  22  24
ENDBRANCH  21  22
ENDBRANCH   1  21
TORSDOF 9
