REMARK  Name = ZINCrH000004k1g0.0
REMARK                            x       y       z     vdW  Elec       q    Type
REMARK                         _______ _______ _______ _____ _____    ______ ____
ROOT
ATOM      1  C   LIG    1        7.312   0.109   1.011  0.00  0.00    +0.300 C 
ATOM      2  N   LIG    1        7.302   1.442   0.405  0.00  0.00    -0.610 N 
ATOM      3  C   LIG    1        6.131   2.040   0.108  0.00  0.00    +0.530 C 
ATOM      4  O   LIG    1        6.123   3.144  -0.393  0.00  0.00    -0.530 OA
ENDROOT
BRANCH   3   5
ATOM      5  C   LIG    1        4.831   1.335   0.401  0.00  0.00    -0.040 C 
ATOM      6  C   LIG    1        4.762   0.026  -0.396  0.00  0.00    +0.250 C 
ATOM      7  O   LIG    1        3.570  -0.666  -0.021  0.00  0.00    -0.300 OA
ATOM      8  C   LIG    1        2.404   0.031  -0.018  0.00  0.00    +0.130 A 
ATOM      9  C   LIG    1        1.207  -0.677  -0.011  0.00  0.00    +0.010 A 
ATOM     10  C   LIG    1        0.002  -0.004   0.002  0.00  0.00    +0.060 A 
ATOM     11  C   LIG    1       -0.017   1.379   0.010  0.00  0.00    -0.060 A 
ATOM     12  C   LIG    1        1.172   2.086   0.002  0.00  0.00    +0.070 A 
ATOM     13 CL   LIG    1       -1.531   2.227   0.021  0.00  0.00    -0.070 Cl
ATOM     14  C   LIG    1        2.383   1.415  -0.013  0.00  0.00    -0.140 A 
ATOM     15  C   LIG    1        3.658   2.221  -0.027  0.00  0.00    +0.120 C 
ENDBRANCH   3   5
BRANCH   2  16
ATOM     16  C   LIG    1        8.566   2.127   0.121  0.00  0.00    +0.370 C 
BRANCH  16  17
ATOM     17  C   LIG    1        8.972   2.949   1.317  0.00  0.00    -0.250 A 
ATOM     18  C   LIG    1        8.637   4.240   1.546  0.00  0.00    +0.260 A 
ATOM     19  N   LIG    1        9.194   4.607   2.722  0.00  0.00    -0.320 N 
ATOM     20  N   LIG    1        9.900   3.506   3.226  0.00  0.00    -0.290 NA
ATOM     21  C   LIG    1        9.766   2.514   2.384  0.00  0.00    +0.260 A 
BRANCH  19  22
ATOM     22  C   LIG    1        9.089   5.867   3.327  0.00  0.00    +0.160 A 
ATOM     23  C   LIG    1        8.359   6.875   2.712  0.00  0.00    -0.010 A 
ATOM     24  C   LIG    1        8.252   8.114   3.314  0.00  0.00    +0.040 A 
ATOM     25  C   LIG    1        8.881   8.354   4.522  0.00  0.00    +0.000 A 
ATOM     26  C   LIG    1        9.613   7.353   5.135  0.00  0.00    +0.030 A 
ATOM     27  C   LIG    1        9.719   6.111   4.540  0.00  0.00    +0.020 A 
ENDBRANCH  19  22
ENDBRANCH  16  17
ENDBRANCH   2  16
TORSDOF 4
