REMARK  Name = ZINCpk00000y6vTI.0
REMARK                            x       y       z     vdW  Elec       q    Type
REMARK                         _______ _______ _______ _____ _____    ______ ____
ROOT
ATOM      1  C   LIG    1        1.755  -1.848  -0.025  0.00  0.00    +0.210 C 
ATOM      2  C   LIG    1        0.561  -2.838   0.015  0.00  0.00    +0.090 C 
ATOM      3  C   LIG    1        1.176  -4.094   0.667  0.00  0.00    +0.270 C 
ATOM      4  N   LIG    1        2.360  -3.659   1.422  0.00  0.00    -0.600 N 
ATOM      5  C   LIG    1        3.186  -4.464   2.119  0.00  0.00    +0.620 C 
ATOM      6  O   LIG    1        4.139  -3.992   2.710  0.00  0.00    -0.530 OA
ATOM      7  C   LIG    1        2.493  -2.197   1.291  0.00  0.00    +0.260 C 
ENDROOT
BRANCH   5   8
ATOM      8  C   LIG    1        2.935  -5.915   2.167  0.00  0.00    +0.000 A 
ATOM      9  N   LIG    1        1.951  -6.565   1.582  0.00  0.00    -0.200 NA
ATOM     10  N   LIG    1        2.005  -7.827   1.812  0.00  0.00    -0.410 N 
ATOM     11  H   LIG    1        1.368  -8.473   1.469  0.00  0.00    +0.450 HD
ATOM     12  C   LIG    1        3.076  -8.142   2.606  0.00  0.00    +0.060 A 
ATOM     13  C   LIG    1        3.585  -9.321   3.140  0.00  0.00    +0.010 A 
ATOM     14  C   LIG    1        4.718  -9.282   3.922  0.00  0.00    +0.050 A 
ATOM     15  C   LIG    1        5.359  -8.078   4.184  0.00  0.00    -0.010 A 
ATOM     16  C   LIG    1        4.876  -6.908   3.669  0.00  0.00    +0.090 A 
ATOM     17  C   LIG    1        3.736  -6.925   2.871  0.00  0.00    -0.110 A 
ENDBRANCH   5   8
BRANCH   1  20
ATOM     18  N   LIG    1        1.187   1.742   0.000  0.00  0.00    -0.280 N 
ATOM     19  C   LIG    1        2.042   0.694  -0.014  0.00  0.00    +0.160 A 
ATOM     20  C   LIG    1        1.274  -0.420  -0.012  0.00  0.00    -0.040 A 
ATOM     21  N   LIG    1        0.002  -0.004   0.002  0.00  0.00    -0.250 NA
ATOM     22  N   LIG    1       -0.015   1.282   0.009  0.00  0.00    -0.080 NA
BRANCH  18  24
ATOM     23  C   LIG    1        1.830   3.611   1.440  0.00  0.00    +0.060 C 
ATOM     24  C   LIG    1        1.564   3.158   0.004  0.00  0.00    +0.250 C 
ATOM     25  C   LIG    1        2.829   3.351  -0.835  0.00  0.00    +0.060 C 
ENDBRANCH  18  24
ENDBRANCH   1  20
BRANCH   1  26
ATOM     26  O   LIG    1        2.588  -2.094  -1.160  0.00  0.00    -0.530 OA
ATOM     27  H   LIG    1        3.374  -1.532  -1.201  0.00  0.00    +0.380 HD
ENDBRANCH   1  26
TORSDOF 4
