REMARK  Name = ZINCpk00000y6vTI.1
REMARK                            x       y       z     vdW  Elec       q    Type
REMARK                         _______ _______ _______ _____ _____    ______ ____
ROOT
ATOM      1  C   LIG    1        1.701  -1.813   0.016  0.00  0.00    +0.210 C 
ATOM      2  C   LIG    1        0.449  -2.729  -0.023  0.00  0.00    +0.110 C 
ATOM      3  C   LIG    1        0.998  -4.034   0.606  0.00  0.00    +0.250 C 
ATOM      4  N   LIG    1        1.923  -3.583   1.662  0.00  0.00    -0.610 N 
ATOM      5  C   LIG    1        2.279  -4.294   2.750  0.00  0.00    +0.610 C 
ATOM      6  O   LIG    1        3.078  -3.832   3.545  0.00  0.00    -0.510 OA
ATOM      7  C   LIG    1        2.393  -2.230   1.331  0.00  0.00    +0.270 C 
ENDROOT
BRANCH   5   8
ATOM      8  C   LIG    1        1.706  -5.622   2.977  0.00  0.00    -0.040 A 
ATOM      9  C   LIG    1        1.859  -6.420   4.119  0.00  0.00    -0.090 A 
ATOM     10  C   LIG    1        2.522  -6.314   5.348  0.00  0.00    +0.060 A 
ATOM     11  C   LIG    1        2.437  -7.335   6.244  0.00  0.00    +0.010 A 
ATOM     12  C   LIG    1        1.705  -8.489   5.969  0.00  0.00    +0.030 A 
ATOM     13  C   LIG    1        1.040  -8.653   4.796  0.00  0.00    +0.060 A 
ATOM     14  C   LIG    1        1.085  -7.635   3.823  0.00  0.00    +0.050 A 
ATOM     15  N   LIG    1        0.576  -7.463   2.616  0.00  0.00    -0.260 NA
ATOM     16  N   LIG    1        0.912  -6.326   2.123  0.00  0.00    -0.330 N 
ATOM     17  H   LIG    1        0.637  -6.008   1.249  0.00  0.00    +0.450 HD
ENDBRANCH   5   8
BRANCH   1  20
ATOM     18  N   LIG    1        1.329   1.802   0.080  0.00  0.00    -0.280 N 
ATOM     19  C   LIG    1        2.124   0.710   0.008  0.00  0.00    +0.160 A 
ATOM     20  C   LIG    1        1.299  -0.362   0.061  0.00  0.00    -0.050 A 
ATOM     21  N   LIG    1        0.055   0.121   0.162  0.00  0.00    -0.250 NA
ATOM     22  N   LIG    1        0.107   1.407   0.170  0.00  0.00    -0.080 NA
BRANCH  18  24
ATOM     23  C   LIG    1        2.167   3.628   1.473  0.00  0.00    +0.060 C 
ATOM     24  C   LIG    1        1.780   3.195   0.057  0.00  0.00    +0.250 C 
ATOM     25  C   LIG    1        2.994   3.324  -0.865  0.00  0.00    +0.060 C 
ENDBRANCH  18  24
ENDBRANCH   1  20
BRANCH   1  26
ATOM     26  O   LIG    1        2.548  -2.066  -1.107  0.00  0.00    -0.530 OA
ATOM     27  H   LIG    1        3.363  -1.546  -1.109  0.00  0.00    +0.380 HD
ENDBRANCH   1  26
TORSDOF 4
