REMARK  Name = ZINCrH000004v3iR.0
REMARK                            x       y       z     vdW  Elec       q    Type
REMARK                         _______ _______ _______ _____ _____    ______ ____
ROOT
ATOM      1  O   LIG    1       -5.910  -1.623   0.151  0.00  0.00    -0.570 OA
ATOM      2  C   LIG    1       -5.768  -2.830   0.143  0.00  0.00    +0.710 C 
ATOM      3  N   LIG    1       -6.843  -3.636   0.250  0.00  0.00    -0.730 N 
ATOM      4  H   LIG    1       -6.730  -4.599   0.244  0.00  0.00    +0.400 HD
ATOM      5  N   LIG    1       -4.536  -3.363   0.026  0.00  0.00    -0.690 N 
ATOM      6  H   LIG    1       -4.428  -4.324  -0.047  0.00  0.00    +0.410 HD
ENDROOT
BRANCH   5   7
ATOM      7  C   LIG    1       -3.413  -2.531   0.012  0.00  0.00    +0.190 A 
ATOM      8  C   LIG    1       -2.228  -2.955   0.602  0.00  0.00    -0.010 A 
ATOM      9  C   LIG    1       -1.119  -2.137   0.590  0.00  0.00    +0.090 A 
ATOM     10  C   LIG    1       -1.187  -0.881  -0.017  0.00  0.00    -0.040 A 
ATOM     11  C   LIG    1       -2.381  -0.457  -0.605  0.00  0.00    +0.060 A 
ATOM     12  C   LIG    1       -3.484  -1.282  -0.594  0.00  0.00    +0.030 A 
BRANCH  10  13
ATOM     13  C   LIG    1       -0.000  -0.001  -0.033  0.00  0.00    +0.240 A 
ATOM     14  N   LIG    1        1.171  -0.284   0.488  0.00  0.00    -0.480 NA
ATOM     15  C   LIG    1        1.996   0.753   0.279  0.00  0.00    +0.150 A 
ATOM     16  C   LIG    1        1.309   1.697  -0.389  0.00  0.00    +0.150 A 
ATOM     17  O   LIG    1        0.062   1.224  -0.583  0.00  0.00    -0.200 OA
ENDBRANCH  10  13
ENDBRANCH   5   7
BRANCH   3  18
ATOM     18  C   LIG    1       -8.183  -3.056   0.377  0.00  0.00    +0.260 C 
ATOM     19  C   LIG    1       -8.790  -2.800  -1.022  0.00  0.00    +0.050 C 
ATOM     20  C   LIG    1       -9.674  -4.055  -1.248  0.00  0.00    +0.180 C 
ATOM     21  N   LIG    1      -10.235  -4.325   0.101  0.00  0.00    -0.450 N 
ATOM     22  C   LIG    1       -9.136  -4.058   1.054  0.00  0.00    +0.220 C 
BRANCH  21  23
ATOM     23  C   LIG    1      -10.676  -5.639   0.203  0.00  0.00    +0.310 A 
ATOM     24  N   LIG    1      -10.109  -6.455   1.079  0.00  0.00    -0.510 NA
ATOM     25  C   LIG    1      -10.498  -7.710   1.208  0.00  0.00    +0.300 A 
ATOM     26  C   LIG    1      -11.516  -8.220   0.429  0.00  0.00    -0.030 A 
ATOM     27  C   LIG    1      -12.138  -7.398  -0.502  0.00  0.00    +0.100 A 
ATOM     28  C   LIG    1      -11.713  -6.085  -0.611  0.00  0.00    -0.100 A 
ATOM     29 CL   LIG    1      -12.459  -5.011  -1.753  0.00  0.00    -0.040 Cl
ENDBRANCH  21  23
ENDBRANCH   3  18
TORSDOF 4
