REMARK  Name = ZINCkj00000ha1Vk.0
REMARK                            x       y       z     vdW  Elec       q    Type
REMARK                         _______ _______ _______ _____ _____    ______ ____
ROOT
ATOM      1  N   LIG    1       -0.082   1.081  -0.285  0.00  0.00    -0.700 NA
ATOM      2  H   LIG    1       -0.133   0.143  -0.531  0.00  0.00    +0.440 HD
ENDROOT
BRANCH   1   3
ATOM      3  C   LIG    1       -1.231   1.830  -0.191  0.00  0.00    +0.730 C 
BRANCH   3   4
ATOM      4  N   LIG    1       -2.389   1.281  -0.431  0.00  0.00    -0.650 NA
ATOM      5  H   LIG    1       -3.200   1.806  -0.349  0.00  0.00    +0.440 HD
BRANCH   4   7
ATOM      6  C   LIG    1       -3.868  -0.663  -0.539  0.00  0.00    +0.090 C 
ATOM      7  C   LIG    1       -2.464  -0.128  -0.826  0.00  0.00    +0.210 C 
ATOM      8  C   LIG    1       -2.165  -0.256  -2.321  0.00  0.00    +0.060 C 
ENDBRANCH   4   7
ENDBRANCH   3   4
BRANCH   3   9
ATOM      9  N   LIG    1       -1.159   3.158   0.158  0.00  0.00    -0.670 NA
ATOM     10  H   LIG    1       -0.294   3.584   0.266  0.00  0.00    +0.430 HD
BRANCH   9  11
ATOM     11  C   LIG    1       -2.387   3.928   0.366  0.00  0.00    +0.170 C 
ATOM     12  C   LIG    1       -2.509   5.272  -0.355  0.00  0.00    +0.060 C 
ATOM     13  C   LIG    1       -2.277   5.233   1.158  0.00  0.00    +0.070 C 
ENDBRANCH   9  11
ENDBRANCH   3   9
ENDBRANCH   1   3
BRANCH   1  14
ATOM     14  C   LIG    1        1.219   1.698  -0.020  0.00  0.00    +0.290 C 
BRANCH  14  15
ATOM     15  C   LIG    1        2.325   0.656  -0.200  0.00  0.00    +0.270 C 
BRANCH  15  16
ATOM     16  N   LIG    1        3.626   1.274   0.065  0.00  0.00    -0.730 N 
ATOM     17  H   LIG    1        3.677   2.211   0.311  0.00  0.00    +0.410 HD
ATOM     18  C   LIG    1        4.753   0.541  -0.033  0.00  0.00    +0.530 C 
ATOM     19  O   LIG    1        4.689  -0.630  -0.340  0.00  0.00    -0.520 OA
BRANCH  18  20
ATOM     20  C   LIG    1        6.092   1.177   0.240  0.00  0.00    -0.010 C 
ATOM     21  C   LIG    1        6.355   2.310  -0.773  0.00  0.00    +0.030 C 
ATOM     22  C   LIG    1        7.873   2.213  -1.066  0.00  0.00    +0.010 C 
ATOM     23  C   LIG    1        8.122   0.684  -1.079  0.00  0.00    +0.010 C 
ATOM     24  C   LIG    1        7.215   0.143   0.046  0.00  0.00    +0.040 C 
ENDBRANCH  18  20
ENDBRANCH  15  16
ENDBRANCH  14  15
ENDBRANCH   1  14
TORSDOF 9
