REMARK  Name = ZINCqH0000038mLw.0
REMARK                            x       y       z     vdW  Elec       q    Type
REMARK                         _______ _______ _______ _____ _____    ______ ____
ROOT
ATOM      1  C   LIG    1       -0.063   1.192   2.682  0.00  0.00    +0.510 C 
ATOM      2  N   LIG    1       -0.097  -0.084   3.115  0.00  0.00    -0.630 N 
ATOM      3  H   LIG    1       -0.630  -0.742   2.643  0.00  0.00    +0.430 HD
ATOM      4  O   LIG    1        0.603   2.015   3.273  0.00  0.00    -0.440 OA
ENDROOT
BRANCH   2   5
ATOM      5  C   LIG    1        0.628  -0.455   4.236  0.00  0.00    +0.340 A 
ATOM      6  N   LIG    1        1.369   0.339   4.929  0.00  0.00    -0.460 NA
ATOM      7  C   LIG    1        2.012  -0.170   5.999  0.00  0.00    +0.120 A 
ATOM      8  C   LIG    1        2.867   0.486   6.909  0.00  0.00    +0.080 A 
ATOM      9  C   LIG    1        3.447  -0.203   7.951  0.00  0.00    +0.080 A 
ATOM     10  C   LIG    1        3.193  -1.563   8.120  0.00  0.00    +0.070 A 
ATOM     11  O   LIG    1        3.756  -2.256   9.149  0.00  0.00    -0.300 OA
ATOM     12  C   LIG    1        4.882  -1.649   9.793  0.00  0.00    +0.230 C 
ATOM     13  C   LIG    1        4.544  -0.176  10.062  0.00  0.00    +0.230 C 
ATOM     14  C   LIG    1        2.358  -2.222   7.238  0.00  0.00    +0.080 A 
ATOM     15  O   LIG    1        4.274   0.459   8.808  0.00  0.00    -0.300 OA
ATOM     16  C   LIG    1        1.767  -1.534   6.181  0.00  0.00    -0.170 A 
ATOM     17  S   LIG    1        0.675  -2.078   4.910  0.00  0.00    +0.080 S 
ENDBRANCH   2   5
BRANCH   1  18
ATOM     18  C   LIG    1       -0.852   1.595   1.463  0.00  0.00    +0.190 C 
ATOM     19  C   LIG    1       -0.296   0.875   0.234  0.00  0.00    +0.060 C 
BRANCH  18  20
ATOM     20  O   LIG    1       -0.748   3.008   1.275  0.00  0.00    -0.280 OA
BRANCH  20  26
ATOM     21  C   LIG    1       -2.826   7.113  -0.355  0.00  0.00    +0.100 C 
ATOM     22  C   LIG    1       -2.802   5.612  -0.222  0.00  0.00    -0.040 A 
ATOM     23  C   LIG    1       -3.805   4.851  -0.794  0.00  0.00    -0.030 A 
ATOM     24  C   LIG    1       -3.784   3.474  -0.675  0.00  0.00    +0.050 A 
ATOM     25  C   LIG    1       -2.762   2.854   0.018  0.00  0.00    -0.090 A 
ATOM     26  C   LIG    1       -1.755   3.615   0.593  0.00  0.00    +0.130 A 
ATOM     27  C   LIG    1       -1.780   4.997   0.476  0.00  0.00    -0.020 A 
ENDBRANCH  20  26
ENDBRANCH  18  20
ENDBRANCH   1  18
TORSDOF 4
