REMARK  Name = ZINCqH0000003v41.0
REMARK                            x       y       z     vdW  Elec       q    Type
REMARK                         _______ _______ _______ _____ _____    ______ ____
ROOT
ATOM      1  N   LIG    1       -0.432   3.071   4.573  0.00  0.00    -0.630 N 
ATOM      2  H   LIG    1        0.519   3.129   4.753  0.00  0.00    +0.420 HD
ATOM      3  C   LIG    1       -1.319   3.273   5.567  0.00  0.00    +0.510 C 
ATOM      4  O   LIG    1       -2.509   3.200   5.341  0.00  0.00    -0.480 OA
ENDROOT
BRANCH   1   8
ATOM      5  C   LIG    1       -2.091   2.296   1.175  0.00  0.00    -0.350 A 
ATOM      6  C   LIG    1       -0.728   2.288   1.050  0.00  0.00    +0.030 A 
ATOM      7  C   LIG    1       -0.070   2.560   2.221  0.00  0.00    -0.060 A 
ATOM      8  C   LIG    1       -0.880   2.780   3.290  0.00  0.00    +0.030 A 
ATOM      9  C   LIG    1       -0.019   2.015  -0.251  0.00  0.00    +0.130 C 
ATOM     10  S   LIG    1       -2.521   2.649   2.843  0.00  0.00    +0.370 S 
BRANCH   5  11
ATOM     11  C   LIG    1       -3.011   2.053   0.126  0.00  0.00    +0.550 C 
ATOM     12  O   LIG    1       -2.606   1.815  -0.996  0.00  0.00    -0.510 OA
BRANCH  11  13
ATOM     13  O   LIG    1       -4.338   2.087   0.371  0.00  0.00    -0.360 OA
BRANCH  13  15
ATOM     14  C   LIG    1       -6.663   1.913  -0.266  0.00  0.00    +0.070 C 
ATOM     15  C   LIG    1       -5.208   1.833  -0.733  0.00  0.00    +0.200 C 
ENDBRANCH  13  15
ENDBRANCH  11  13
ENDBRANCH   5  11
ENDBRANCH   1   8
BRANCH   3  16
ATOM     16  C   LIG    1       -0.834   3.588   6.958  0.00  0.00    +0.220 C 
BRANCH  16  17
ATOM     17  N   LIG    1       -1.987   3.763   7.851  0.00  0.00    -0.510 NA
ATOM     18  C   LIG    1       -2.721   2.502   8.015  0.00  0.00    +0.210 C 
BRANCH  17  19
ATOM     19  C   LIG    1       -1.568   4.302   9.152  0.00  0.00    +0.180 C 
ATOM     20  C   LIG    1       -2.801   4.717   9.982  0.00  0.00    +0.060 C 
ATOM     21  C   LIG    1       -2.960   6.208   9.617  0.00  0.00    +0.090 C 
ATOM     22  C   LIG    1       -1.572   6.671   9.229  0.00  0.00    -0.070 A 
ATOM     23  C   LIG    1       -1.050   7.948   9.118  0.00  0.00    +0.010 A 
ATOM     24  C   LIG    1        0.266   8.132   8.743  0.00  0.00    +0.020 A 
ATOM     25  C   LIG    1        1.066   7.036   8.475  0.00  0.00    +0.010 A 
ATOM     26  C   LIG    1        0.547   5.761   8.585  0.00  0.00    +0.010 A 
ATOM     27  C   LIG    1       -0.772   5.575   8.962  0.00  0.00    -0.100 A 
ENDBRANCH  17  19
ENDBRANCH  16  17
ENDBRANCH   3  16
TORSDOF 7
