REMARK  Name = ZINCrD00000F5Lj7.0
REMARK                            x       y       z     vdW  Elec       q    Type
REMARK                         _______ _______ _______ _____ _____    ______ ____
ROOT
ATOM      1  C   LIG    1        0.307   5.988   2.310  0.00  0.00    +0.080 C 
ATOM      2  C   LIG    1       -0.687   6.833   3.111  0.00  0.00    +0.040 C 
ATOM      3  C   LIG    1       -0.325   8.313   2.976  0.00  0.00    +0.030 C 
ATOM      4  C   LIG    1        1.077   8.547   3.546  0.00  0.00    +0.270 C 
ATOM      5  N   LIG    1        2.016   7.633   2.881  0.00  0.00    -0.600 N 
ATOM      6  C   LIG    1        3.131   8.105   2.288  0.00  0.00    +0.560 C 
ATOM      7  O   LIG    1        3.943   7.333   1.816  0.00  0.00    -0.520 OA
ATOM      8  C   LIG    1        1.716   6.195   2.873  0.00  0.00    +0.310 C 
ENDROOT
BRANCH   1  18
ATOM      9  C   LIG    1       -0.163   4.073  -0.852  0.00  0.00    +0.060 C 
ATOM     10  C   LIG    1       -1.255   4.258   0.204  0.00  0.00    +0.120 C 
ATOM     11  C   LIG    1       -2.482   3.425  -0.178  0.00  0.00    +0.240 C 
ATOM     12  O   LIG    1       -2.069   2.242  -0.864  0.00  0.00    -0.370 OA
ATOM     13  C   LIG    1       -1.236   1.370  -0.104  0.00  0.00    +0.230 C 
ATOM     14  C   LIG    1       -1.637   1.437   1.373  0.00  0.00    +0.140 C 
ATOM     15  C   LIG    1       -0.887   2.567   2.028  0.00  0.00    +0.170 A 
ATOM     16  N   LIG    1       -0.275   2.561   3.175  0.00  0.00    -0.280 NA
ATOM     17  N   LIG    1        0.208   3.731   3.413  0.00  0.00    -0.290 NA
ATOM     18  C   LIG    1       -0.069   4.532   2.418  0.00  0.00    +0.190 A 
ATOM     19  C   LIG    1       -1.644   5.735   0.284  0.00  0.00    +0.080 C 
ATOM     20  N   LIG    1       -0.756   3.812   1.505  0.00  0.00    -0.460 N 
ENDBRANCH   1  18
BRANCH   6  21
ATOM     21  C   LIG    1        3.365   9.553   2.213  0.00  0.00    -0.140 C 
ATOM     22  C   LIG    1        3.848  10.161   3.280  0.00  0.00    -0.030 C 
ATOM     23  C   LIG    1        4.131  11.634   3.343  0.00  0.00    +0.100 C 
ATOM     24  C   LIG    1        4.184  12.223   1.932  0.00  0.00    +0.030 C 
ATOM     25  C   LIG    1        2.936  11.766   1.167  0.00  0.00    +0.030 C 
ATOM     26 CL   LIG    1        4.180   9.203   4.689  0.00  0.00    -0.070 Cl
ATOM     27  C   LIG    1        3.036  10.257   0.929  0.00  0.00    +0.100 C 
ENDBRANCH   6  21
TORSDOF 2
