REMARK  Name = ZINCrD00000l0jpV.0
REMARK                            x       y       z     vdW  Elec       q    Type
REMARK                         _______ _______ _______ _____ _____    ______ ____
ROOT
ATOM      1  O   LIG    1        0.002  -0.004   0.002  0.00  0.00    -0.520 OA
ATOM      2  C   LIG    1       -0.014   1.211   0.009  0.00  0.00    +0.620 C 
ATOM      3  N   LIG    1       -1.191   1.869   0.018  0.00  0.00    -0.590 N 
ATOM      4  C   LIG    1       -1.356   3.334   0.033  0.00  0.00    +0.280 C 
ATOM      5  C   LIG    1       -2.755   3.571   0.648  0.00  0.00    +0.050 C 
ATOM      6  C   LIG    1       -3.562   2.384   0.060  0.00  0.00    +0.060 C 
ATOM      7  C   LIG    1       -2.522   1.244   0.021  0.00  0.00    +0.340 C 
ENDROOT
BRANCH   7   8
ATOM      8  C   LIG    1       -2.706   0.425  -1.230  0.00  0.00    +0.130 A 
ATOM      9  N   LIG    1       -2.377   0.782  -2.445  0.00  0.00    -0.230 NA
ATOM     10  N   LIG    1       -2.668  -0.152  -3.280  0.00  0.00    -0.290 NA
ATOM     11  C   LIG    1       -3.215  -1.168  -2.632  0.00  0.00    +0.200 A 
ATOM     12  C   LIG    1       -3.715  -2.420  -3.038  0.00  0.00    +0.080 A 
ATOM     13  C   LIG    1       -4.227  -3.266  -2.104  0.00  0.00    +0.060 A 
ATOM     14  C   LIG    1       -4.250  -2.881  -0.753  0.00  0.00    +0.030 A 
ATOM     15  C   LIG    1       -3.767  -1.678  -0.378  0.00  0.00    +0.230 A 
ATOM     16  N   LIG    1       -3.251  -0.820  -1.304  0.00  0.00    -0.380 N 
ENDBRANCH   7   8
BRANCH   2  17
ATOM     17  C   LIG    1        1.260   1.970   0.001  0.00  0.00    -0.010 A 
ATOM     18  N   LIG    1        1.399   3.273   0.007  0.00  0.00    -0.320 NA
ATOM     19  O   LIG    1        2.562   3.600  -0.003  0.00  0.00    +0.130 OA
ATOM     20  C   LIG    1        3.380   2.533  -0.017  0.00  0.00    +0.020 A 
ATOM     21  C   LIG    1        2.572   1.430  -0.009  0.00  0.00    +0.010 A 
BRANCH  20  22
ATOM     22  C   LIG    1        4.858   2.549  -0.031  0.00  0.00    -0.030 A 
ATOM     23  C   LIG    1        5.572   1.350  -0.039  0.00  0.00    +0.040 A 
ATOM     24  C   LIG    1        6.951   1.372  -0.057  0.00  0.00    +0.010 A 
ATOM     25  C   LIG    1        7.627   2.579  -0.057  0.00  0.00    +0.030 A 
ATOM     26  C   LIG    1        6.925   3.772  -0.045  0.00  0.00    +0.010 A 
ATOM     27  C   LIG    1        5.546   3.764  -0.032  0.00  0.00    +0.040 A 
ENDBRANCH  20  22
ENDBRANCH   2  17
TORSDOF 3
