REMARK  Name = ZINCrH000004jcT0.0
REMARK                            x       y       z     vdW  Elec       q    Type
REMARK                         _______ _______ _______ _____ _____    ______ ____
ROOT
ATOM      1  N   LIG    1       -0.011   0.966   0.007  0.00  0.00    -0.720 N 
ATOM      2  H   LIG    1        0.002  -0.004   0.002  0.00  0.00    +0.400 HD
ATOM      3  C   LIG    1        1.147   1.655   0.000  0.00  0.00    +0.600 C 
ATOM      4  O   LIG    1        1.130   2.871   0.007  0.00  0.00    -0.550 OA
ENDROOT
BRANCH   1  10
ATOM      5  C   LIG    1       -4.582  -0.093  -0.621  0.00  0.00    -0.110 A 
ATOM      6  C   LIG    1       -4.278  -0.815  -1.757  0.00  0.00    +0.050 A 
ATOM      7  C   LIG    1       -3.013  -0.730  -2.311  0.00  0.00    -0.020 A 
ATOM      8  C   LIG    1       -2.058   0.079  -1.728  0.00  0.00    +0.040 A 
ATOM      9  C   LIG    1       -2.358   0.807  -0.588  0.00  0.00    -0.180 A 
ATOM     10  C   LIG    1       -1.290   1.681   0.017  0.00  0.00    +0.300 C 
ATOM     11  C   LIG    1       -1.666   2.032   1.459  0.00  0.00    -0.000 C 
ATOM     12  C   LIG    1       -3.124   2.507   1.474  0.00  0.00    +0.240 C 
ATOM     13  O   LIG    1       -3.958   1.413   1.089  0.00  0.00    -0.310 OA
ATOM     14  C   LIG    1       -3.622   0.721  -0.030  0.00  0.00    +0.150 A 
BRANCH   5  16
ATOM     15  C   LIG    1       -6.825   0.962  -0.539  0.00  0.00    +0.030 C 
ATOM     16  C   LIG    1       -5.961  -0.188  -0.019  0.00  0.00    +0.070 C 
ENDBRANCH   5  16
ENDBRANCH   1  10
BRANCH   3  17
ATOM     17  C   LIG    1        2.433   0.936  -0.016  0.00  0.00    -0.300 A 
ATOM     18  C   LIG    1        3.691   1.505  -0.025  0.00  0.00    +0.320 A 
ATOM     19  N   LIG    1        4.585   0.504  -0.038  0.00  0.00    -0.350 N 
ATOM     20  N   LIG    1        3.892  -0.711  -0.038  0.00  0.00    -0.280 NA
ATOM     21  C   LIG    1        2.610  -0.466  -0.019  0.00  0.00    +0.270 A 
BRANCH  19  22
ATOM     22  C   LIG    1        6.042   0.658  -0.051  0.00  0.00    +0.380 C 
BRANCH  22  23
ATOM     23  C   LIG    1        6.638  -0.105   1.103  0.00  0.00    -0.120 A 
ATOM     24  C   LIG    1        6.820   0.518   2.323  0.00  0.00    +0.020 A 
ATOM     25  C   LIG    1        7.362  -0.184   3.384  0.00  0.00    +0.010 A 
ATOM     26  C   LIG    1        7.732  -1.506   3.221  0.00  0.00    +0.010 A 
ATOM     27  C   LIG    1        7.555  -2.128   1.999  0.00  0.00    +0.010 A 
ATOM     28  C   LIG    1        7.008  -1.427   0.940  0.00  0.00    +0.050 A 
ENDBRANCH  22  23
ENDBRANCH  19  22
ENDBRANCH   3  17
TORSDOF 5
