REMARK  Name = ZINCpk00000e9snO.0
REMARK                            x       y       z     vdW  Elec       q    Type
REMARK                         _______ _______ _______ _____ _____    ______ ____
ROOT
ATOM      1  N   LIG    1        1.650   2.950  -0.274  0.00  0.00    -0.620 N 
ATOM      2  C   LIG    1        1.661   1.613  -0.152  0.00  0.00    +0.740 C 
ATOM      3  N   LIG    1        0.554   0.864  -0.294  0.00  0.00    -0.740 N 
ATOM      4  H   LIG    1        0.613  -0.102  -0.238  0.00  0.00    +0.420 HD
ATOM      5  C   LIG    1       -0.745   1.511  -0.540  0.00  0.00    +0.330 C 
ATOM      6  C   LIG    1       -1.274   1.988   0.790  0.00  0.00    -0.180 A 
ATOM      7  C   LIG    1       -2.051   1.134   1.553  0.00  0.00    +0.070 A 
ATOM      8  C   LIG    1       -2.537   1.546   2.779  0.00  0.00    -0.020 A 
ATOM      9  C   LIG    1       -2.247   2.815   3.245  0.00  0.00    +0.060 A 
ATOM     10  C   LIG    1       -1.475   3.671   2.485  0.00  0.00    -0.020 A 
ATOM     11  C   LIG    1       -0.987   3.261   1.248  0.00  0.00    +0.150 A 
ATOM     12  O   LIG    1       -0.250   4.133   0.519  0.00  0.00    -0.310 OA
ATOM     13  C   LIG    1       -0.485   2.736  -1.435  0.00  0.00    -0.460 C 
ATOM     14  S   LIG    1        0.382   2.151  -2.922  0.00  0.00    +2.430 S 
ATOM     15  O   LIG    1        1.541   1.434  -2.519  0.00  0.00    -0.900 OA
ATOM     16  O   LIG    1       -0.561   1.521  -3.779  0.00  0.00    -0.920 OA
ATOM     17  C   LIG    1        0.904   3.713  -3.685  0.00  0.00    -0.320 C 
ATOM     18  C   LIG    1        1.705   4.516  -2.656  0.00  0.00    +0.100 C 
ATOM     19  C   LIG    1        0.797   4.896  -1.493  0.00  0.00    +0.070 C 
ATOM     20  O   LIG    1        2.713   1.058   0.097  0.00  0.00    -0.540 OA
ATOM     21  C   LIG    1        0.438   3.676  -0.647  0.00  0.00    +0.370 C 
ENDROOT
BRANCH   1  22
ATOM     22  C   LIG    1        2.884   3.699  -0.025  0.00  0.00    +0.330 C 
BRANCH  22  23
ATOM     23  C   LIG    1        2.957   4.085   1.454  0.00  0.00    +0.150 C 
BRANCH  23  24
ATOM     24  O   LIG    1        3.076   2.904   2.249  0.00  0.00    -0.370 OA
BRANCH  24  26
ATOM     25  C   LIG    1        3.323   1.829   4.399  0.00  0.00    +0.040 C 
ATOM     26  C   LIG    1        3.182   3.156   3.652  0.00  0.00    +0.140 C 
ENDBRANCH  24  26
ENDBRANCH  23  24
ENDBRANCH  22  23
ENDBRANCH   1  22
TORSDOF 4
