REMARK  Name = ZINCrD00000F5LEw.0
REMARK                            x       y       z     vdW  Elec       q    Type
REMARK                         _______ _______ _______ _____ _____    ______ ____
ROOT
ATOM      1  C   LIG    1        3.586  -3.383  -0.524  0.00  0.00    -0.120 C 
ATOM      2  C   LIG    1        2.919  -4.509  -0.098  0.00  0.00    +0.230 C 
ENDROOT
BRANCH   1   3
ATOM      3  C   LIG    1        2.841  -2.281  -1.159  0.00  0.00    +0.310 A 
ATOM      4  N   LIG    1        1.573  -2.322  -1.496  0.00  0.00    -0.460 NA
ATOM      5  C   LIG    1        1.212  -1.141  -2.055  0.00  0.00    +0.050 A 
ATOM      6  C   LIG    1        0.010  -0.655  -2.578  0.00  0.00    +0.070 A 
ATOM      7  C   LIG    1       -0.046   0.622  -3.089  0.00  0.00    +0.000 A 
ATOM      8  C   LIG    1        1.081   1.431  -3.088  0.00  0.00    +0.030 A 
ATOM      9  C   LIG    1        2.274   0.968  -2.575  0.00  0.00    +0.000 A 
ATOM     10  C   LIG    1        2.351  -0.316  -2.057  0.00  0.00    +0.050 A 
ATOM     11  N   LIG    1        3.368  -1.059  -1.486  0.00  0.00    -0.580 N 
ATOM     12  H   LIG    1        4.282  -0.769  -1.343  0.00  0.00    +0.430 HD
ENDBRANCH   1   3
BRANCH   2  13
ATOM     13  C   LIG    1        1.455  -4.523  -0.062  0.00  0.00    -0.020 A 
ATOM     14  C   LIG    1        0.753  -3.413   0.427  0.00  0.00    +0.000 A 
ATOM     15  C   LIG    1       -0.628  -3.429   0.455  0.00  0.00    +0.140 A 
ATOM     16  C   LIG    1       -1.323  -4.550   0.006  0.00  0.00    +0.060 A 
ATOM     17  C   LIG    1       -0.629  -5.658  -0.476  0.00  0.00    +0.130 A 
ATOM     18  C   LIG    1        0.751  -5.649  -0.512  0.00  0.00    -0.050 A 
BRANCH  17  19
ATOM     19  O   LIG    1       -1.313  -6.750  -0.912  0.00  0.00    -0.300 OA
ATOM     20  C   LIG    1       -0.538  -7.850  -1.394  0.00  0.00    +0.240 C 
ENDBRANCH  17  19
BRANCH  16  21
ATOM     21  O   LIG    1       -2.681  -4.563   0.039  0.00  0.00    -0.310 OA
ATOM     22  C   LIG    1       -3.296  -5.059   1.230  0.00  0.00    +0.210 C 
ENDBRANCH  16  21
BRANCH  15  23
ATOM     23  O   LIG    1       -1.310  -2.350   0.925  0.00  0.00    -0.300 OA
ATOM     24  C   LIG    1       -0.534  -1.265   1.438  0.00  0.00    +0.230 C 
ENDBRANCH  15  23
ENDBRANCH   2  13
BRANCH   1  25
ATOM     25  C   LIG    1        5.041  -3.281  -0.348  0.00  0.00    +0.520 C 
ATOM     26  O   LIG    1        5.656  -4.190   0.175  0.00  0.00    -0.490 OA
BRANCH  25  28
ATOM     27  C   LIG    1        7.132  -2.145  -0.559  0.00  0.00    +0.290 C 
ATOM     28  O   LIG    1        5.695  -2.178  -0.766  0.00  0.00    -0.370 OA
ENDBRANCH  25  28
ENDBRANCH   1  25
TORSDOF 7
