REMARK  Name = ZINCvU00000006nK.0
REMARK                            x       y       z     vdW  Elec       q    Type
REMARK                         _______ _______ _______ _____ _____    ______ ____
ROOT
ATOM      1  C   LIG    1       -3.741  -6.752   2.581  0.00  0.00    +0.290 C 
ATOM      2  C   LIG    1       -2.897  -8.052   2.475  0.00  0.00    +0.020 C 
ATOM      3  C   LIG    1       -2.195  -8.311   3.741  0.00  0.00    +0.000 C 
ATOM      4  C   LIG    1       -1.184  -7.237   4.131  0.00  0.00    +0.010 C 
ATOM      5  C   LIG    1       -1.894  -6.123   4.860  0.00  0.00    +0.020 C 
ATOM      6  C   LIG    1       -2.334  -5.035   3.864  0.00  0.00    +0.250 C 
ATOM      7  N   LIG    1       -2.857  -5.609   2.609  0.00  0.00    -0.600 N 
ATOM      8  C   LIG    1       -2.500  -5.040   1.441  0.00  0.00    +0.510 C 
ATOM      9  O   LIG    1       -2.830  -5.551   0.391  0.00  0.00    -0.510 OA
ENDROOT
BRANCH   1  13
ATOM     10  C   LIG    1       -6.352  -6.450  -0.789  0.00  0.00    +0.120 A 
ATOM     11  C   LIG    1       -5.572  -7.584  -0.613  0.00  0.00    -0.010 A 
ATOM     12  C   LIG    1       -4.729  -7.679   0.477  0.00  0.00    +0.070 A 
ATOM     13  C   LIG    1       -4.662  -6.646   1.393  0.00  0.00    -0.090 A 
ATOM     14  C   LIG    1       -5.442  -5.517   1.223  0.00  0.00    +0.040 A 
ATOM     15  C   LIG    1       -6.283  -5.414   0.132  0.00  0.00    -0.080 A 
BRANCH  10  17
ATOM     16  C   LIG    1       -7.955  -5.157  -1.977  0.00  0.00    +0.230 C 
ATOM     17  O   LIG    1       -7.182  -6.354  -1.861  0.00  0.00    -0.320 OA
ENDBRANCH  10  17
ENDBRANCH   1  13
BRANCH   8  18
ATOM     18  C   LIG    1       -1.690  -3.768   1.438  0.00  0.00    +0.060 C 
BRANCH  18  19
ATOM     19  C   LIG    1       -1.422  -3.337  -0.005  0.00  0.00    +0.220 C 
BRANCH  19  20
ATOM     20  C   LIG    1       -0.613  -2.066  -0.008  0.00  0.00    +0.170 A 
ATOM     21  N   LIG    1        0.688  -1.982  -0.013  0.00  0.00    -0.280 NA
ATOM     22  N   LIG    1        1.039  -0.744  -0.014  0.00  0.00    -0.280 NA
ATOM     23  C   LIG    1       -0.035   0.010  -0.009  0.00  0.00    +0.210 A 
ATOM     24  O   LIG    1       -1.102  -0.814   0.001  0.00  0.00    -0.220 OA
BRANCH  23  25
ATOM     25  C   LIG    1       -0.069   1.488  -0.007  0.00  0.00    -0.040 A 
ATOM     26  C   LIG    1       -1.291   2.161  -0.006  0.00  0.00    +0.050 A 
ATOM     27  C   LIG    1       -1.316   3.541   0.000  0.00  0.00    +0.010 A 
ATOM     28  C   LIG    1       -0.132   4.256  -0.005  0.00  0.00    -0.060 A 
ATOM     29  C   LIG    1        1.083   3.595  -0.010  0.00  0.00    +0.020 A 
ATOM     30  C   LIG    1       -0.166   5.763  -0.003  0.00  0.00    +0.100 C 
ATOM     31  C   LIG    1        1.122   2.216  -0.012  0.00  0.00    +0.080 A 
ENDBRANCH  23  25
ENDBRANCH  19  20
ENDBRANCH  18  19
ENDBRANCH   8  18
TORSDOF 6
