REMARK  Name = ZINCqH0000038hQp.0
REMARK                            x       y       z     vdW  Elec       q    Type
REMARK                         _______ _______ _______ _____ _____    ______ ____
ROOT
ATOM      1  N   LIG    1        1.294  -2.069  -0.021  0.00  0.00    -0.650 N 
ATOM      2  H   LIG    1        0.475  -2.583   0.065  0.00  0.00    +0.420 HD
ATOM      3  C   LIG    1        2.478  -2.702  -0.138  0.00  0.00    +0.520 C 
ATOM      4  O   LIG    1        3.509  -2.063  -0.146  0.00  0.00    -0.510 OA
ENDROOT
BRANCH   1   9
ATOM      5  C   LIG    1       -2.895  -0.862   2.437  0.00  0.00    +0.130 C 
ATOM      6  C   LIG    1       -1.812  -0.051   1.775  0.00  0.00    +0.160 A 
ATOM      7  N   LIG    1       -0.813  -0.672   1.196  0.00  0.00    -0.480 NA
ATOM      8  C   LIG    1        0.171   0.003   0.596  0.00  0.00    +0.120 A 
ATOM      9  C   LIG    1        1.244  -0.673  -0.025  0.00  0.00    +0.170 A 
ATOM     10  C   LIG    1        2.243   0.055  -0.634  0.00  0.00    +0.030 A 
ATOM     11  C   LIG    1        2.206   1.446  -0.644  0.00  0.00    +0.040 A 
ATOM     12  C   LIG    1        1.184   2.125  -0.053  0.00  0.00    +0.010 A 
ATOM     13  C   LIG    1        0.147   1.419   0.578  0.00  0.00    -0.090 A 
ATOM     14  C   LIG    1       -0.921   2.090   1.202  0.00  0.00    +0.090 A 
ATOM     15  C   LIG    1       -1.897   1.339   1.794  0.00  0.00    -0.030 A 
ENDBRANCH   1   9
BRANCH   3  16
ATOM     16  C   LIG    1        2.521  -4.203  -0.260  0.00  0.00    +0.000 C 
ATOM     17  C   LIG    1        3.987  -4.712  -0.255  0.00  0.00    +0.080 C 
ATOM     18  C   LIG    1        3.814  -6.151   0.293  0.00  0.00    +0.270 C 
ATOM     19  N   LIG    1        2.748  -6.044   1.305  0.00  0.00    -0.610 N 
ATOM     20  C   LIG    1        2.563  -6.884   2.343  0.00  0.00    +0.670 C 
ATOM     21  O   LIG    1        1.647  -6.699   3.119  0.00  0.00    -0.560 OA
ATOM     22  C   LIG    1        1.919  -4.870   0.995  0.00  0.00    +0.300 C 
BRANCH  20  23
ATOM     23  O   LIG    1        3.395  -7.928   2.520  0.00  0.00    -0.360 OA
BRANCH  23  24
ATOM     24  C   LIG    1        3.136  -8.791   3.659  0.00  0.00    +0.140 C 
ATOM     25  C   LIG    1        3.223  -7.973   4.949  0.00  0.00    +0.040 C 
ATOM     26  C   LIG    1        4.176  -9.913   3.696  0.00  0.00    +0.080 C 
ATOM     27  C   LIG    1        1.736  -9.396   3.532  0.00  0.00    +0.040 C 
ENDBRANCH  23  24
ENDBRANCH  20  23
ENDBRANCH   3  16
TORSDOF 4
