REMARK  Name = ZINCrD000000C08W.0
REMARK                            x       y       z     vdW  Elec       q    Type
REMARK                         _______ _______ _______ _____ _____    ______ ____
ROOT
ATOM      1  C   LIG    1       -0.169   5.996  -1.331  0.00  0.00    +0.280 C 
ENDROOT
BRANCH   1   2
ATOM      2  C   LIG    1       -0.274   7.499  -1.350  0.00  0.00    +0.520 C 
ATOM      3  N   LIG    1        0.834   8.253  -1.205  0.00  0.00    -0.620 N 
ATOM      4  C   LIG    1        2.210   7.745  -1.108  0.00  0.00    +0.230 C 
ATOM      5  C   LIG    1        3.137   8.965  -0.927  0.00  0.00    +0.040 C 
ATOM      6  C   LIG    1        2.180  10.045  -0.357  0.00  0.00    +0.040 C 
ATOM      7  C   LIG    1        0.865   9.724  -1.110  0.00  0.00    +0.250 C 
ATOM      8  O   LIG    1       -1.354   8.030  -1.496  0.00  0.00    -0.530 OA
ENDBRANCH   1   2
BRANCH   1  11
ATOM      9  O   LIG    1       -0.178   5.633  -4.004  0.00  0.00    -0.570 OA
ATOM     10  C   LIG    1       -1.188   5.280  -3.426  0.00  0.00    +0.720 C 
ATOM     11  N   LIG    1       -1.283   5.419  -2.089  0.00  0.00    -0.710 N 
ATOM     12  H   LIG    1       -2.089   5.138  -1.628  0.00  0.00    +0.400 HD
ATOM     13  N   LIG    1       -2.213   4.750  -4.122  0.00  0.00    -0.680 N 
ATOM     14  H   LIG    1       -2.987   4.398  -3.655  0.00  0.00    +0.410 HD
BRANCH  13  15
ATOM     15  C   LIG    1       -2.160   4.706  -5.523  0.00  0.00    +0.130 A 
ATOM     16  C   LIG    1       -1.318   5.564  -6.213  0.00  0.00    +0.090 A 
ATOM     17  C   LIG    1       -1.263   5.516  -7.593  0.00  0.00    +0.010 A 
ATOM     18  C   LIG    1       -2.057   4.620  -8.289  0.00  0.00    +0.110 A 
ATOM     19  C   LIG    1       -2.904   3.765  -7.603  0.00  0.00    -0.020 A 
ATOM     20  F   LIG    1       -2.005   4.579  -9.638  0.00  0.00    -0.130 F 
ATOM     21  C   LIG    1       -2.958   3.806  -6.222  0.00  0.00    +0.090 A 
ATOM     22  F   LIG    1       -3.784   2.972  -5.552  0.00  0.00    -0.130 F 
ENDBRANCH  13  15
ENDBRANCH   1  11
BRANCH   1  23
ATOM     23  C   LIG    1       -0.224   5.499   0.115  0.00  0.00    +0.110 C 
BRANCH  23  24
ATOM     24  C   LIG    1        0.012   4.011   0.144  0.00  0.00    -0.090 A 
ATOM     25  C   LIG    1        1.298   3.517   0.267  0.00  0.00    +0.010 A 
ATOM     26  C   LIG    1        1.515   2.152   0.293  0.00  0.00    +0.000 A 
ATOM     27  C   LIG    1        0.446   1.281   0.196  0.00  0.00    +0.000 A 
ATOM     28  C   LIG    1       -0.839   1.774   0.068  0.00  0.00    +0.000 A 
ATOM     29  C   LIG    1       -1.056   3.139   0.047  0.00  0.00    +0.010 A 
ENDBRANCH  23  24
ENDBRANCH   1  23
TORSDOF 5
