REMARK  Name = ZINCrH000004mPdi.0
REMARK                            x       y       z     vdW  Elec       q    Type
REMARK                         _______ _______ _______ _____ _____    ______ ____
ROOT
ATOM      1  S   LIG    1        2.672   0.823  -0.017  0.00  0.00    +0.120 S 
ENDROOT
BRANCH   1   2
ATOM      2  C   LIG    1        4.017   1.962  -0.012  0.00  0.00    +0.170 A 
ATOM      3  N   LIG    1        3.928   3.273   0.005  0.00  0.00    -0.290 NA
ATOM      4  N   LIG    1        5.102   3.795   0.003  0.00  0.00    -0.250 NA
ATOM      5  C   LIG    1        6.013   2.849  -0.016  0.00  0.00    +0.190 A 
ATOM      6  N   LIG    1        5.346   1.646  -0.020  0.00  0.00    -0.300 N 
BRANCH   5   7
ATOM      7  C   LIG    1        7.479   3.041  -0.024  0.00  0.00    -0.010 A 
ATOM      8  C   LIG    1        8.322   1.978  -0.351  0.00  0.00    +0.010 A 
ATOM      9  C   LIG    1        9.689   2.165  -0.362  0.00  0.00    +0.040 A 
ATOM     10  C   LIG    1       10.225   3.400  -0.039  0.00  0.00    -0.020 A 
ATOM     11  C   LIG    1        9.393   4.457   0.292  0.00  0.00    +0.050 A 
ATOM     12 CL   LIG    1       11.946   3.625  -0.048  0.00  0.00    -0.050 Cl
ATOM     13  C   LIG    1        8.024   4.284   0.301  0.00  0.00    +0.090 A 
ENDBRANCH   5   7
BRANCH   6  14
ATOM     14  N   LIG    1        5.897   0.396  -0.033  0.00  0.00    -0.590 N 
ATOM     15  H   LIG    1        6.760   0.376   0.490  0.00  0.00    +0.380 HD
ATOM     16  H   LIG    1        6.040   0.074  -0.979  0.00  0.00    +0.370 HD
ENDBRANCH   6  14
ENDBRANCH   1   2
BRANCH   1  17
ATOM     17  C   LIG    1        1.280   1.980   0.007  0.00  0.00    +0.100 C 
BRANCH  17  20
ATOM     18  N   LIG    1       -1.191   1.867   0.018  0.00  0.00    -0.660 N 
ATOM     19  H   LIG    1       -1.205   2.833   0.098  0.00  0.00    +0.420 HD
ATOM     20  C   LIG    1       -0.014   1.209   0.007  0.00  0.00    +0.540 C 
ATOM     21  O   LIG    1        0.002  -0.004  -0.008  0.00  0.00    -0.500 OA
BRANCH  18  25
ATOM     22  C   LIG    1       -4.768  -0.255  -0.291  0.00  0.00    +0.130 A 
ATOM     23  C   LIG    1       -3.695  -0.801   0.397  0.00  0.00    -0.040 A 
ATOM     24  C   LIG    1       -2.510  -0.099   0.499  0.00  0.00    +0.080 A 
ATOM     25  C   LIG    1       -2.393   1.154  -0.086  0.00  0.00    +0.110 A 
ATOM     26  C   LIG    1       -3.469   1.704  -0.770  0.00  0.00    +0.060 A 
ATOM     27  C   LIG    1       -4.652   0.998  -0.877  0.00  0.00    -0.050 A 
ATOM     28 CL   LIG    1       -5.995   1.681  -1.739  0.00  0.00    -0.050 Cl
BRANCH  22  30
ATOM     29  C   LIG    1       -5.983  -2.231   0.235  0.00  0.00    +0.240 C 
ATOM     30  O   LIG    1       -5.934  -0.947  -0.392  0.00  0.00    -0.300 OA
ENDBRANCH  22  30
ENDBRANCH  18  25
ENDBRANCH  17  20
ENDBRANCH   1  17
TORSDOF 7
