REMARK  Name = ZINCvU00000007iH.0
REMARK                            x       y       z     vdW  Elec       q    Type
REMARK                         _______ _______ _______ _____ _____    ______ ____
ROOT
ATOM      1  N   LIG    1        3.343  -1.051  -3.094  0.00  0.00    -0.490 N 
ATOM      2  C   LIG    1        4.556  -1.570  -3.526  0.00  0.00    +0.140 A 
ATOM      3  C   LIG    1        5.591  -0.881  -2.879  0.00  0.00    -0.060 A 
ATOM      4  C   LIG    1        4.949   0.116  -2.001  0.00  0.00    +0.100 A 
ATOM      5  N   LIG    1        5.425   1.024  -1.171  0.00  0.00    -0.380 NA
ATOM      6  C   LIG    1        4.582   1.806  -0.492  0.00  0.00    +0.060 A 
ATOM      7  C   LIG    1        5.063   2.783   0.400  0.00  0.00    +0.070 A 
ATOM      8  C   LIG    1        4.184   3.566   1.081  0.00  0.00    +0.030 A 
ATOM      9  C   LIG    1        2.808   3.416   0.909  0.00  0.00    +0.060 A 
ATOM     10  C   LIG    1        2.306   2.483   0.056  0.00  0.00    +0.040 A 
ATOM     11  C   LIG    1        3.182   1.654  -0.667  0.00  0.00    +0.130 A 
ATOM     12  N   LIG    1        2.711   0.730  -1.511  0.00  0.00    -0.460 NA
ATOM     13  C   LIG    1        6.920  -1.210  -3.138  0.00  0.00    +0.070 A 
ATOM     14  C   LIG    1        7.214  -2.220  -4.036  0.00  0.00    +0.100 A 
ATOM     15  C   LIG    1        6.186  -2.902  -4.678  0.00  0.00    -0.010 A 
ATOM     16  C   LIG    1        4.869  -2.582  -4.427  0.00  0.00    +0.040 A 
ATOM     17  C   LIG    1        3.551  -0.036  -2.184  0.00  0.00    +0.330 A 
ENDROOT
BRANCH  14  18
ATOM     18  O   LIG    1        8.509  -2.546  -4.292  0.00  0.00    -0.310 OA
ATOM     19  C   LIG    1        8.740  -3.598  -5.231  0.00  0.00    +0.250 C 
ENDBRANCH  14  18
BRANCH   1  20
ATOM     20  C   LIG    1        2.028  -1.513  -3.546  0.00  0.00    +0.380 C 
BRANCH  20  26
ATOM     21  C   LIG    1        0.210  -3.034  -2.729  0.00  0.00    +0.140 A 
ATOM     22  C   LIG    1       -0.272  -3.988  -1.844  0.00  0.00    -0.080 A 
ATOM     23  C   LIG    1        0.530  -4.442  -0.816  0.00  0.00    +0.050 A 
ATOM     24  C   LIG    1        1.813  -3.947  -0.668  0.00  0.00    -0.030 A 
ATOM     25  C   LIG    1        2.296  -2.997  -1.549  0.00  0.00    +0.050 A 
ATOM     26  C   LIG    1        1.499  -2.544  -2.582  0.00  0.00    -0.140 A 
BRANCH  21  27
ATOM     27  O   LIG    1       -0.578  -2.586  -3.742  0.00  0.00    -0.310 OA
BRANCH  27  28
ATOM     28  C   LIG    1       -1.927  -3.056  -3.772  0.00  0.00    +0.180 C 
BRANCH  28  29
ATOM     29  C   LIG    1       -2.630  -2.512  -5.017  0.00  0.00    +0.020 C 
BRANCH  29  31
ATOM     30  C   LIG    1       -4.736  -2.568  -6.359  0.00  0.00    +0.030 C 
ATOM     31  C   LIG    1       -4.034  -3.112  -5.114  0.00  0.00    +0.010 C 
ENDBRANCH  29  31
ENDBRANCH  28  29
ENDBRANCH  27  28
ENDBRANCH  21  27
ENDBRANCH  20  26
ENDBRANCH   1  20
TORSDOF 7
