REMARK  Name = ZINCpe000000T0UQ.0
REMARK                            x       y       z     vdW  Elec       q    Type
REMARK                         _______ _______ _______ _____ _____    ______ ____
ROOT
ATOM      1  N   LIG    1       -0.310  -2.962   1.292  0.00  0.00    -0.530 NA
ATOM      2  C   LIG    1       -1.584  -2.297   1.594  0.00  0.00    +0.170 C 
ATOM      3  C   LIG    1       -1.931  -1.325   0.462  0.00  0.00    +0.300 C 
ATOM      4  N   LIG    1       -0.790  -0.419   0.259  0.00  0.00    -0.610 N 
ATOM      5  C   LIG    1        0.545  -1.010   0.079  0.00  0.00    +0.290 C 
ATOM      6  C   LIG    1       -0.964   0.917   0.232  0.00  0.00    +0.500 C 
ATOM      7  O   LIG    1       -2.073   1.387   0.371  0.00  0.00    -0.510 OA
ATOM      8  C   LIG    1        0.795  -1.995   1.232  0.00  0.00    +0.170 C 
ENDROOT
BRANCH   1   9
ATOM      9  C   LIG    1       -0.026  -4.025   2.265  0.00  0.00    +0.230 C 
BRANCH   9  14
ATOM     10  C   LIG    1        2.944  -6.011   1.036  0.00  0.00    +0.140 A 
ATOM     11  C   LIG    1        3.982  -5.413   1.735  0.00  0.00    -0.080 A 
ATOM     12  C   LIG    1        3.719  -4.369   2.601  0.00  0.00    +0.050 A 
ATOM     13  C   LIG    1        2.423  -3.921   2.772  0.00  0.00    -0.040 A 
ATOM     14  C   LIG    1        1.386  -4.516   2.076  0.00  0.00    -0.050 A 
ATOM     15  C   LIG    1        1.643  -5.563   1.213  0.00  0.00    +0.000 A 
BRANCH  10  16
ATOM     16  O   LIG    1        3.200  -7.038   0.184  0.00  0.00    -0.310 OA
BRANCH  16  18
ATOM     17  C   LIG    1        4.538  -8.984  -0.331  0.00  0.00    +0.070 C 
ATOM     18  C   LIG    1        4.542  -7.530   0.145  0.00  0.00    +0.150 C 
ATOM     19  C   LIG    1        5.369  -6.680  -0.820  0.00  0.00    +0.020 C 
ENDBRANCH  16  18
ENDBRANCH  10  16
ENDBRANCH   9  14
ENDBRANCH   1   9
BRANCH   6  20
ATOM     20  C   LIG    1        0.219   1.827   0.022  0.00  0.00    +0.380 C 
BRANCH  20  21
ATOM     21  N   LIG    1       -0.229   3.222   0.033  0.00  0.00    -0.300 N 
ATOM     22  C   LIG    1        0.236   4.204   0.827  0.00  0.00    +0.400 A 
ATOM     23  N   LIG    1       -0.430   5.289   0.512  0.00  0.00    -0.300 NA
ATOM     24  N   LIG    1       -1.266   4.986  -0.420  0.00  0.00    -0.070 NA
ATOM     25  N   LIG    1       -1.148   3.737  -0.712  0.00  0.00    -0.060 NA
ENDBRANCH  20  21
ENDBRANCH   6  20
TORSDOF 6
