REMARK  Name = ZINCrH000004v5ng.0
REMARK                            x       y       z     vdW  Elec       q    Type
REMARK                         _______ _______ _______ _____ _____    ______ ____
ROOT
ATOM      1  O   LIG    1       -5.422  -0.598   4.769  0.00  0.00    -0.560 OA
ATOM      2  C   LIG    1       -4.216  -0.573   4.620  0.00  0.00    +0.710 C 
ATOM      3  N   LIG    1       -3.692  -0.281   3.413  0.00  0.00    -0.620 N 
ATOM      4  C   LIG    1       -4.563  -0.097   2.244  0.00  0.00    +0.310 C 
ATOM      5  C   LIG    1       -4.106  -1.054   1.136  0.00  0.00    +0.290 C 
ATOM      6  N   LIG    1       -2.653  -0.914   0.965  0.00  0.00    -0.600 N 
ATOM      7  C   LIG    1       -1.781  -1.103   2.133  0.00  0.00    +0.280 C 
ATOM      8  C   LIG    1       -2.129  -0.623  -0.242  0.00  0.00    +0.570 C 
ATOM      9  O   LIG    1       -2.860  -0.473  -1.202  0.00  0.00    -0.510 OA
ATOM     10  C   LIG    1       -2.239  -0.141   3.242  0.00  0.00    +0.270 C 
ATOM     11  N   LIG    1       -3.402  -0.838   5.661  0.00  0.00    -0.690 N 
ATOM     12  H   LIG    1       -2.445  -0.710   5.573  0.00  0.00    +0.410 HD
ENDROOT
BRANCH   8  13
ATOM     13  C   LIG    1       -0.669  -0.485  -0.398  0.00  0.00    -0.210 A 
ATOM     14  C   LIG    1       -0.058   0.762  -0.225  0.00  0.00    +0.200 A 
ATOM     15  C   LIG    1        1.310   0.882  -0.372  0.00  0.00    -0.030 A 
ATOM     16  C   LIG    1        2.077  -0.227  -0.692  0.00  0.00    +0.190 A 
ATOM     17  C   LIG    1        1.478  -1.465  -0.865  0.00  0.00    -0.030 A 
ATOM     18  F   LIG    1        3.414  -0.101  -0.835  0.00  0.00    -0.110 F 
ATOM     19  F   LIG    1       -0.804   1.845   0.081  0.00  0.00    -0.110 F 
ATOM     20  C   LIG    1        0.112  -1.601  -0.721  0.00  0.00    +0.200 A 
ATOM     21  F   LIG    1       -0.470  -2.809  -0.891  0.00  0.00    -0.110 F 
ENDBRANCH   8  13
BRANCH  11  22
ATOM     22  C   LIG    1       -3.939  -1.298   6.869  0.00  0.00    +0.170 A 
ATOM     23  C   LIG    1       -5.077  -2.095   6.867  0.00  0.00    +0.030 A 
ATOM     24  C   LIG    1       -5.601  -2.551   8.060  0.00  0.00    +0.050 A 
ATOM     25  C   LIG    1       -5.002  -2.206   9.258  0.00  0.00    -0.050 A 
ATOM     26  C   LIG    1       -3.872  -1.407   9.264  0.00  0.00    +0.050 A 
ATOM     27 CL   LIG    1       -5.668  -2.775  10.756  0.00  0.00    -0.070 Cl
ATOM     28  C   LIG    1       -3.339  -0.953   8.073  0.00  0.00    -0.010 A 
ENDBRANCH  11  22
TORSDOF 2
