REMARK  Name = ZINCrg00000SjSIW.0
REMARK                            x       y       z     vdW  Elec       q    Type
REMARK                         _______ _______ _______ _____ _____    ______ ____
ROOT
ATOM      1  C   LIG    1        4.106   1.424   2.433  0.00  0.00    -0.720 A 
ATOM      2  C   LIG    1        3.068   1.834   1.679  0.00  0.00    +0.210 A 
ATOM      3  C   LIG    1        2.374   1.083   0.573  0.00  0.00    +0.430 C 
ATOM      4  N   LIG    1        1.157   1.841   0.228  0.00  0.00    -0.620 N 
ATOM      5  C   LIG    1        1.259   3.306   0.136  0.00  0.00    +0.320 C 
ATOM      6  C   LIG    1        1.632   3.872   1.510  0.00  0.00    +0.330 C 
ATOM      7  C   LIG    1       -0.014   1.212   0.009  0.00  0.00    +0.620 C 
ATOM      8  O   LIG    1       -1.030   1.859  -0.158  0.00  0.00    -0.520 OA
ATOM      9  N   LIG    1        2.725   3.080   2.079  0.00  0.00    -0.350 N 
ATOM     10  N   LIG    1        3.591   3.449   3.112  0.00  0.00    -0.270 NA
ATOM     11  C   LIG    1        4.418   2.456   3.327  0.00  0.00    +0.320 A 
ENDROOT
BRANCH   7  12
ATOM     12  C   LIG    1       -0.065  -0.262  -0.023  0.00  0.00    -0.120 A 
ATOM     13  C   LIG    1       -1.198  -1.020  -0.110  0.00  0.00    +0.130 A 
ATOM     14  N   LIG    1       -0.805  -2.310  -0.112  0.00  0.00    -0.350 N 
ATOM     15  N   LIG    1        0.593  -2.309  -0.016  0.00  0.00    -0.050 NA
ATOM     16  C   LIG    1       -2.615  -0.513  -0.192  0.00  0.00    +0.190 C 
ATOM     17  N   LIG    1        0.995  -1.086   0.035  0.00  0.00    -0.200 NA
BRANCH  14  18
ATOM     18  C   LIG    1       -1.674  -3.487  -0.193  0.00  0.00    +0.250 C 
ATOM     19  C   LIG    1       -1.483  -4.349   1.057  0.00  0.00    +0.060 C 
ATOM     20  C   LIG    1       -1.312  -4.304  -1.435  0.00  0.00    +0.070 C 
ENDBRANCH  14  18
ENDBRANCH   7  12
BRANCH   1  22
ATOM     21  N   LIG    1        4.896  -0.584   0.893  0.00  0.00    -1.120 NA
ATOM     22  S   LIG    1        4.924  -0.132   2.317  0.00  0.00    +2.440 S 
ATOM     23  O   LIG    1        4.204  -1.076   3.099  0.00  0.00    -0.920 OA
ATOM     24  C   LIG    1        6.655   0.095   2.809  0.00  0.00    -0.210 C 
BRANCH  21  26
ATOM     25  C   LIG    1        5.425  -2.191  -0.884  0.00  0.00    +0.120 C 
ATOM     26  C   LIG    1        5.453  -1.736   0.553  0.00  0.00    +0.550 C 
ATOM     27  O   LIG    1        5.987  -2.426   1.398  0.00  0.00    -0.590 OA
ENDBRANCH  21  26
ENDBRANCH   1  22
TORSDOF 4
