REMARK  Name = ZINCrg000000oriJ.0
REMARK                            x       y       z     vdW  Elec       q    Type
REMARK                         _______ _______ _______ _____ _____    ______ ____
ROOT
ATOM      1  N   LIG    1        4.745   3.575   4.943  0.00  0.00    -0.720 N 
ATOM      2  H   LIG    1        5.221   2.852   5.382  0.00  0.00    +0.400 HD
ATOM      3  C   LIG    1        3.474   3.393   4.532  0.00  0.00    +0.510 C 
ATOM      4  O   LIG    1        2.879   4.297   3.984  0.00  0.00    -0.520 OA
ENDROOT
BRANCH   1   5
ATOM      5  C   LIG    1        5.408   4.863   4.726  0.00  0.00    +0.290 C 
BRANCH   5   6
ATOM      6  C   LIG    1        6.502   5.044   5.747  0.00  0.00    -0.100 A 
ATOM      7  C   LIG    1        7.295   3.970   6.107  0.00  0.00    +0.010 A 
ATOM      8  C   LIG    1        8.302   4.137   7.040  0.00  0.00    +0.000 A 
ATOM      9  C   LIG    1        8.507   5.374   7.622  0.00  0.00    -0.080 A 
ATOM     10  C   LIG    1        7.710   6.446   7.266  0.00  0.00    +0.000 A 
ATOM     11  C   LIG    1        9.600   5.554   8.643  0.00  0.00    +0.090 C 
ATOM     12  C   LIG    1        6.707   6.281   6.329  0.00  0.00    +0.020 A 
ENDBRANCH   5   6
BRANCH   5  14
ATOM     13  C   LIG    1        4.890   4.838   2.282  0.00  0.00    +0.020 C 
ATOM     14  C   LIG    1        6.012   4.896   3.321  0.00  0.00    +0.010 C 
ENDBRANCH   5  14
ENDBRANCH   1   5
BRANCH   3  15
ATOM     15  C   LIG    1        2.792   2.068   4.755  0.00  0.00    +0.360 C 
BRANCH  15  16
ATOM     16  N   LIG    1        1.428   2.125   4.224  0.00  0.00    -0.530 N 
ATOM     17  C   LIG    1        1.200   1.776   2.941  0.00  0.00    +0.600 A 
ATOM     18  C   LIG    1       -0.117   1.833   2.435  0.00  0.00    -0.150 A 
ATOM     19  C   LIG    1       -1.145   2.249   3.271  0.00  0.00    +0.320 A 
ATOM     20  N   LIG    1       -0.846   2.595   4.578  0.00  0.00    -0.510 N 
ATOM     21  C   LIG    1       -1.913   3.037   5.480  0.00  0.00    +0.350 C 
ATOM     22  N   LIG    1       -2.274   2.214   2.557  0.00  0.00    -0.500 NA
ATOM     23  C   LIG    1       -2.016   1.812   1.339  0.00  0.00    +0.500 A 
ATOM     24  N   LIG    1       -0.698   1.558   1.213  0.00  0.00    -0.410 N 
ATOM     25  C   LIG    1       -0.013   1.086   0.008  0.00  0.00    +0.360 C 
ATOM     26  O   LIG    1        2.119   1.414   2.228  0.00  0.00    -0.510 OA
ATOM     27  C   LIG    1        0.423   2.526   5.021  0.00  0.00    +0.720 A 
ATOM     28  O   LIG    1        0.667   2.833   6.172  0.00  0.00    -0.530 OA
ENDBRANCH  15  16
ENDBRANCH   3  15
TORSDOF 5
