REMARK  Name = ZINCqH0000008e4D.0
REMARK                            x       y       z     vdW  Elec       q    Type
REMARK                         _______ _______ _______ _____ _____    ______ ____
ROOT
ATOM      1  N   LIG    1        2.143   1.914  -2.496  0.00  0.00    -0.720 N 
ATOM      2  H   LIG    1        2.632   1.913  -1.659  0.00  0.00    +0.400 HD
ATOM      3  C   LIG    1        0.882   2.389  -2.539  0.00  0.00    +0.520 C 
ATOM      4  O   LIG    1        0.270   2.390  -3.586  0.00  0.00    -0.530 OA
ENDROOT
BRANCH   3   5
ATOM      5  C   LIG    1        0.233   2.918  -1.286  0.00  0.00    -0.020 C 
ATOM      6  C   LIG    1       -1.188   3.389  -1.607  0.00  0.00    +0.060 C 
ATOM      7  C   LIG    1       -1.836   3.957  -0.342  0.00  0.00    +0.030 C 
ATOM      8  C   LIG    1       -1.919   2.858   0.722  0.00  0.00    +0.260 C 
ATOM      9  N   LIG    1       -0.574   2.298   0.933  0.00  0.00    -0.610 N 
ATOM     10  C   LIG    1       -0.037   2.238   2.168  0.00  0.00    +0.600 C 
ATOM     11  O   LIG    1        1.050   1.715   2.334  0.00  0.00    -0.520 OA
ATOM     12  C   LIG    1        0.174   1.808  -0.233  0.00  0.00    +0.300 C 
BRANCH  10  13
ATOM     13  C   LIG    1       -0.761   2.802   3.311  0.00  0.00    -0.270 A 
ATOM     14  C   LIG    1       -0.214   3.585   4.288  0.00  0.00    +0.090 A 
ATOM     15  C   LIG    1       -1.123   3.978   5.241  0.00  0.00    +0.000 A 
ATOM     16  C   LIG    1       -2.372   3.534   5.053  0.00  0.00    -0.070 A 
ATOM     17  S   LIG    1       -2.475   2.586   3.639  0.00  0.00    +0.220 S 
ENDBRANCH  10  13
ENDBRANCH   3   5
BRANCH   1  19
ATOM     18  C   LIG    1        3.393   2.558  -4.497  0.00  0.00    +0.030 C 
ATOM     19  C   LIG    1        2.773   1.399  -3.714  0.00  0.00    +0.230 C 
BRANCH  19  20
ATOM     20  C   LIG    1        3.865   0.396  -3.338  0.00  0.00    +0.030 C 
BRANCH  20  21
ATOM     21  C   LIG    1        3.229  -0.823  -2.666  0.00  0.00    +0.060 C 
BRANCH  21  22
ATOM     22  C   LIG    1        4.305  -1.811  -2.295  0.00  0.00    -0.080 A 
ATOM     23  C   LIG    1        4.677  -2.796  -3.191  0.00  0.00    +0.000 A 
ATOM     24  C   LIG    1        5.668  -3.699  -2.853  0.00  0.00    +0.000 A 
ATOM     25  C   LIG    1        6.279  -3.624  -1.615  0.00  0.00    +0.000 A 
ATOM     26  C   LIG    1        5.902  -2.642  -0.717  0.00  0.00    +0.000 A 
ATOM     27  C   LIG    1        4.916  -1.736  -1.057  0.00  0.00    +0.000 A 
ENDBRANCH  21  22
ENDBRANCH  20  21
ENDBRANCH  19  20
ENDBRANCH   1  19
TORSDOF 6
