REMARK  Name = ZINCqH0000008njb.0
REMARK                            x       y       z     vdW  Elec       q    Type
REMARK                         _______ _______ _______ _____ _____    ______ ____
ROOT
ATOM      1  N   LIG    1        3.407   3.273  -0.903  0.00  0.00    -0.740 N 
ATOM      2  H   LIG    1        3.320   2.325  -1.091  0.00  0.00    +0.390 HD
ATOM      3  C   LIG    1        4.403   3.984  -1.469  0.00  0.00    +0.710 C 
ATOM      4  N   LIG    1        5.277   3.378  -2.297  0.00  0.00    -0.740 N 
ATOM      5  H   LIG    1        5.189   2.430  -2.486  0.00  0.00    +0.390 HD
ATOM      6  O   LIG    1        4.513   5.171  -1.232  0.00  0.00    -0.580 OA
ENDROOT
BRANCH   4   7
ATOM      7  C   LIG    1        6.359   4.151  -2.913  0.00  0.00    +0.200 C 
ATOM      8  C   LIG    1        5.763   5.275  -3.762  0.00  0.00    +0.030 C 
ATOM      9  C   LIG    1        6.893   6.082  -4.404  0.00  0.00    -0.010 C 
ATOM     10  C   LIG    1        7.777   6.683  -3.310  0.00  0.00    +0.020 C 
ATOM     11  C   LIG    1        8.373   5.558  -2.461  0.00  0.00    -0.010 C 
ATOM     12  C   LIG    1        9.214   4.640  -3.349  0.00  0.00    +0.010 C 
ATOM     13  C   LIG    1        8.330   4.039  -4.443  0.00  0.00    -0.010 C 
ATOM     14  C   LIG    1        7.734   5.163  -5.293  0.00  0.00    +0.010 C 
ATOM     15  C   LIG    1        7.243   4.752  -1.818  0.00  0.00    +0.030 C 
ATOM     16  C   LIG    1        7.200   3.232  -3.801  0.00  0.00    +0.030 C 
ENDBRANCH   4   7
BRANCH   1  18
ATOM     17  C   LIG    1        3.038   3.968   1.413  0.00  0.00    +0.040 C 
ATOM     18  C   LIG    1        2.458   3.931  -0.002  0.00  0.00    +0.310 C 
BRANCH  18  19
ATOM     19  C   LIG    1        1.160   3.165   0.007  0.00  0.00    -0.090 A 
ATOM     20  C   LIG    1        1.175   1.783   0.000  0.00  0.00    +0.020 A 
ATOM     21  C   LIG    1       -0.013   1.076   0.008  0.00  0.00    +0.030 A 
ATOM     22  C   LIG    1       -1.223   1.752   0.017  0.00  0.00    +0.050 A 
ATOM     23  O   LIG    1       -2.385   1.043   0.014  0.00  0.00    -0.310 OA
ATOM     24  C   LIG    1       -3.569   1.746   0.404  0.00  0.00    +0.220 C 
ATOM     25  C   LIG    1       -3.589   3.095  -0.328  0.00  0.00    +0.220 C 
ATOM     26  O   LIG    1       -2.415   3.825   0.056  0.00  0.00    -0.310 OA
ATOM     27  C   LIG    1       -1.238   3.142   0.032  0.00  0.00    +0.060 A 
ATOM     28  C   LIG    1       -0.043   3.845   0.023  0.00  0.00    +0.040 A 
ENDBRANCH  18  19
ENDBRANCH   1  18
TORSDOF 3
