REMARK  Name = ZINCpe00000VVGrU.2
REMARK                            x       y       z     vdW  Elec       q    Type
REMARK                         _______ _______ _______ _____ _____    ______ ____
ROOT
ATOM      1  C   LIG    1       -7.336   6.906   4.703  0.00  0.00    +0.270 C 
ATOM      2  C   LIG    1       -6.012   6.141   4.629  0.00  0.00    +0.190 C 
ATOM      3  N   LIG    1       -5.621   5.984   3.220  0.00  0.00    -0.520 NA
ATOM      4  C   LIG    1       -6.661   5.266   2.468  0.00  0.00    +0.150 C 
ATOM      5  C   LIG    1       -7.978   6.040   2.564  0.00  0.00    +0.250 C 
ATOM      6  O   LIG    1       -8.326   6.210   3.941  0.00  0.00    -0.370 OA
ENDROOT
BRANCH   1  11
ATOM      7  C   LIG    1       -8.351   6.447   8.149  0.00  0.00    +0.230 A 
ATOM      8  N   LIG    1       -8.442   7.750   8.101  0.00  0.00    -0.300 NA
ATOM      9  N   LIG    1       -8.071   8.135   6.802  0.00  0.00    -0.470 N 
ATOM     10  H   LIG    1       -8.033   9.039   6.452  0.00  0.00    +0.440 HD
ATOM     11  C   LIG    1       -7.782   7.002   6.139  0.00  0.00    +0.290 A 
ATOM     12  N   LIG    1       -7.951   5.997   6.960  0.00  0.00    -0.510 NA
BRANCH   7  13
ATOM     13  C   LIG    1       -8.650   5.592   9.353  0.00  0.00    +0.150 C 
BRANCH  13  15
ATOM     14  C   LIG    1       -7.679   4.546  11.404  0.00  0.00    +0.030 C 
ATOM     15  C   LIG    1       -7.375   5.414  10.181  0.00  0.00    +0.010 C 
ENDBRANCH  13  15
ENDBRANCH   7  13
ENDBRANCH   1  11
BRANCH   3  16
ATOM     16  C   LIG    1       -4.324   5.303   3.107  0.00  0.00    +0.220 C 
BRANCH  16  17
ATOM     17  C   LIG    1       -3.243   6.184   3.676  0.00  0.00    +0.520 C 
ATOM     18  N   LIG    1       -1.985   5.716   3.795  0.00  0.00    -0.730 N 
ATOM     19  H   LIG    1       -1.776   4.811   3.515  0.00  0.00    +0.400 HD
ATOM     20  O   LIG    1       -3.504   7.316   4.026  0.00  0.00    -0.520 OA
BRANCH  18  21
ATOM     21  C   LIG    1       -0.933   6.573   4.348  0.00  0.00    +0.350 C 
BRANCH  21  22
ATOM     22  C   LIG    1        0.370   5.816   4.374  0.00  0.00    +0.100 A 
ATOM     23  C   LIG    1        1.264   5.960   3.330  0.00  0.00    -0.010 A 
ATOM     24  C   LIG    1        2.458   5.256   3.360  0.00  0.00    +0.060 A 
ATOM     25  C   LIG    1        2.713   4.438   4.450  0.00  0.00    -0.020 A 
ATOM     26  C   LIG    1        1.774   4.348   5.460  0.00  0.00    +0.260 A 
ATOM     27  N   LIG    1        0.646   5.029   5.395  0.00  0.00    -0.470 NA
ENDBRANCH  21  22
ENDBRANCH  18  21
ENDBRANCH  16  17
ENDBRANCH   3  16
TORSDOF 7
