REMARK  Name = ZINCpe00000VVGrU.1
REMARK                            x       y       z     vdW  Elec       q    Type
REMARK                         _______ _______ _______ _____ _____    ______ ____
ROOT
ATOM      1  C   LIG    1       -0.598   1.138  -7.324  0.00  0.00    +0.300 C 
ATOM      2  C   LIG    1       -1.266   1.619  -6.033  0.00  0.00    +0.180 C 
ATOM      3  N   LIG    1       -0.418   1.263  -4.886  0.00  0.00    -0.520 NA
ATOM      4  C   LIG    1       -0.202  -0.190  -4.830  0.00  0.00    +0.160 C 
ATOM      5  C   LIG    1        0.456  -0.653  -6.133  0.00  0.00    +0.250 C 
ATOM      6  O   LIG    1       -0.367  -0.271  -7.239  0.00  0.00    -0.370 OA
ENDROOT
BRANCH   1   9
ATOM      7  C   LIG    1       -2.283   2.380 -10.272  0.00  0.00    +0.290 A 
ATOM      8  N   LIG    1       -1.323   2.408  -9.384  0.00  0.00    -0.530 NA
ATOM      9  C   LIG    1       -1.499   1.430  -8.496  0.00  0.00    +0.230 A 
ATOM     10  N   LIG    1       -2.584   0.769  -8.803  0.00  0.00    -0.290 NA
ATOM     11  N   LIG    1       -3.112   1.370  -9.958  0.00  0.00    -0.480 N 
ATOM     12  H   LIG    1       -3.916   1.108 -10.434  0.00  0.00    +0.440 HD
BRANCH   7  13
ATOM     13  C   LIG    1       -2.435   3.320 -11.440  0.00  0.00    +0.160 C 
BRANCH  13  15
ATOM     14  C   LIG    1       -3.522   5.423 -12.238  0.00  0.00    +0.030 C 
ATOM     15  C   LIG    1       -3.367   4.469 -11.052  0.00  0.00    +0.010 C 
ENDBRANCH  13  15
ENDBRANCH   7  13
ENDBRANCH   1   9
BRANCH   3  16
ATOM     16  C   LIG    1       -0.997   1.758  -3.630  0.00  0.00    +0.220 C 
BRANCH  16  17
ATOM     17  C   LIG    1       -0.978   3.264  -3.627  0.00  0.00    +0.510 C 
ATOM     18  N   LIG    1       -1.575   3.944  -2.628  0.00  0.00    -0.730 N 
ATOM     19  H   LIG    1       -2.017   3.463  -1.911  0.00  0.00    +0.400 HD
ATOM     20  O   LIG    1       -0.425   3.866  -4.524  0.00  0.00    -0.510 OA
BRANCH  18  21
ATOM     21  C   LIG    1       -1.556   5.409  -2.625  0.00  0.00    +0.350 C 
BRANCH  21  22
ATOM     22  C   LIG    1       -2.286   5.918  -1.409  0.00  0.00    +0.100 A 
ATOM     23  C   LIG    1       -1.576   6.228  -0.265  0.00  0.00    -0.010 A 
ATOM     24  C   LIG    1       -2.257   6.700   0.846  0.00  0.00    +0.060 A 
ATOM     25  C   LIG    1       -3.635   6.835   0.768  0.00  0.00    -0.020 A 
ATOM     26  C   LIG    1       -4.278   6.500  -0.409  0.00  0.00    +0.260 A 
ATOM     27  N   LIG    1       -3.597   6.059  -1.448  0.00  0.00    -0.470 NA
ENDBRANCH  21  22
ENDBRANCH  18  21
ENDBRANCH  16  17
ENDBRANCH   3  16
TORSDOF 7
