REMARK  Name = ZINCpe00000VVGrU.0
REMARK                            x       y       z     vdW  Elec       q    Type
REMARK                         _______ _______ _______ _____ _____    ______ ____
ROOT
ATOM      1  C   LIG    1       -5.480   3.180   4.439  0.00  0.00    +0.280 C 
ATOM      2  C   LIG    1       -6.192   2.286   5.457  0.00  0.00    +0.180 C 
ATOM      3  N   LIG    1       -7.305   3.031   6.063  0.00  0.00    -0.520 NA
ATOM      4  C   LIG    1       -6.817   4.253   6.719  0.00  0.00    +0.170 C 
ATOM      5  C   LIG    1       -6.099   5.128   5.687  0.00  0.00    +0.250 C 
ATOM      6  O   LIG    1       -5.041   4.376   5.087  0.00  0.00    -0.370 OA
ENDROOT
BRANCH   1  10
ATOM      7  C   LIG    1       -2.870   1.536   2.518  0.00  0.00    +0.190 A 
ATOM      8  N   LIG    1       -2.469   1.374   3.749  0.00  0.00    -0.290 NA
ATOM      9  N   LIG    1       -3.313   1.916   4.554  0.00  0.00    -0.260 NA
ATOM     10  C   LIG    1       -4.290   2.449   3.872  0.00  0.00    +0.180 A 
ATOM     11  N   LIG    1       -4.034   2.227   2.560  0.00  0.00    -0.570 N 
ATOM     12  H   LIG    1       -4.576   2.505   1.805  0.00  0.00    +0.430 HD
BRANCH   7  13
ATOM     13  C   LIG    1       -2.164   1.050   1.278  0.00  0.00    +0.150 C 
BRANCH  13  15
ATOM     14  C   LIG    1       -0.013   1.086   0.008  0.00  0.00    +0.020 C 
ATOM     15  C   LIG    1       -0.729   1.579   1.267  0.00  0.00    +0.020 C 
ENDBRANCH  13  15
ENDBRANCH   7  13
ENDBRANCH   1  10
BRANCH   3  16
ATOM     16  C   LIG    1       -8.050   2.189   7.008  0.00  0.00    +0.220 C 
BRANCH  16  17
ATOM     17  C   LIG    1       -9.316   2.896   7.420  0.00  0.00    +0.520 C 
ATOM     18  N   LIG    1      -10.164   2.308   8.287  0.00  0.00    -0.730 N 
ATOM     19  H   LIG    1       -9.960   1.430   8.646  0.00  0.00    +0.400 HD
ATOM     20  O   LIG    1       -9.572   3.993   6.971  0.00  0.00    -0.520 OA
BRANCH  18  21
ATOM     21  C   LIG    1      -11.394   2.995   8.688  0.00  0.00    +0.350 C 
BRANCH  21  22
ATOM     22  C   LIG    1      -12.159   2.131   9.657  0.00  0.00    +0.100 A 
ATOM     23  C   LIG    1      -11.995   2.318  11.016  0.00  0.00    -0.010 A 
ATOM     24  C   LIG    1      -12.707   1.520  11.899  0.00  0.00    +0.070 A 
ATOM     25  C   LIG    1      -13.554   0.554  11.379  0.00  0.00    -0.020 A 
ATOM     26  C   LIG    1      -13.664   0.422  10.007  0.00  0.00    +0.260 A 
ATOM     27  N   LIG    1      -12.975   1.201   9.197  0.00  0.00    -0.470 NA
ENDBRANCH  21  22
ENDBRANCH  18  21
ENDBRANCH  16  17
ENDBRANCH   3  16
TORSDOF 7
