REMARK  Name = ZINCpk00000Fb5Zb.0
REMARK                            x       y       z     vdW  Elec       q    Type
REMARK                         _______ _______ _______ _____ _____    ______ ____
ROOT
ATOM      1  C   LIG    1        1.387   3.498  -0.050  0.00  0.00    +0.200 C 
ATOM      2  C   LIG    1        2.859   3.873   0.135  0.00  0.00    +0.080 C 
ENDROOT
BRANCH   1   3
ATOM      3  C   LIG    1        0.916   3.963  -1.403  0.00  0.00    +0.450 A 
ATOM      4  N   LIG    1        0.395   3.083  -2.212  0.00  0.00    -0.570 NA
ATOM      5  C   LIG    1       -0.053   3.422  -3.436  0.00  0.00    +0.530 A 
ATOM      6  C   LIG    1        0.070   4.830  -3.854  0.00  0.00    -0.210 A 
ATOM      7  C   LIG    1       -0.359   5.272  -5.103  0.00  0.00    +0.110 A 
ATOM      8  C   LIG    1       -0.218   6.601  -5.437  0.00  0.00    -0.010 A 
ATOM      9  C   LIG    1        0.349   7.496  -4.540  0.00  0.00    +0.080 A 
ATOM     10  C   LIG    1        0.779   7.073  -3.300  0.00  0.00    -0.020 A 
ATOM     11  C   LIG    1        0.645   5.738  -2.945  0.00  0.00    +0.180 A 
ATOM     12  O   LIG    1       -0.542   2.588  -4.179  0.00  0.00    -0.480 OA
ATOM     13  N   LIG    1        1.060   5.263  -1.716  0.00  0.00    -0.620 N 
ATOM     14  H   LIG    1        1.458   5.871  -1.075  0.00  0.00    +0.420 HD
ENDBRANCH   1   3
BRANCH   1  17
ATOM     15  C   LIG    1       -0.293   0.135   0.176  0.00  0.00    +0.280 C 
ATOM     16  C   LIG    1       -0.180   1.661   0.137  0.00  0.00    +0.200 C 
ATOM     17  N   LIG    1        1.237   2.040   0.047  0.00  0.00    -0.510 NA
ATOM     18  C   LIG    1        1.993   1.508   1.190  0.00  0.00    +0.160 C 
ATOM     19  C   LIG    1        1.858  -0.017   1.218  0.00  0.00    +0.240 C 
ATOM     20  O   LIG    1        0.473  -0.367   1.274  0.00  0.00    -0.370 OA
BRANCH  15  25
ATOM     21  C   LIG    1       -4.850  -1.951  -0.465  0.00  0.00    +0.200 C 
ATOM     22  C   LIG    1       -3.690  -1.153   0.072  0.00  0.00    +0.190 A 
ATOM     23  N   LIG    1       -3.699  -0.396   1.135  0.00  0.00    -0.290 NA
ATOM     24  N   LIG    1       -2.538   0.131   1.302  0.00  0.00    -0.270 NA
ATOM     25  C   LIG    1       -1.738  -0.259   0.347  0.00  0.00    +0.180 A 
ATOM     26  N   LIG    1       -2.445  -1.087  -0.458  0.00  0.00    -0.570 N 
ATOM     27  H   LIG    1       -2.125  -1.542  -1.253  0.00  0.00    +0.430 HD
ENDBRANCH  15  25
ENDBRANCH   1  17
TORSDOF 3
