REMARK  Name = ZINCpk00000Fb5Zb.1
REMARK                            x       y       z     vdW  Elec       q    Type
REMARK                         _______ _______ _______ _____ _____    ______ ____
ROOT
ATOM      1  C   LIG    1       -2.888   1.563  -2.377  0.00  0.00    +0.240 C 
ATOM      2  C   LIG    1       -2.741   3.075  -2.564  0.00  0.00    +0.030 C 
ENDROOT
BRANCH   1   3
ATOM      3  C   LIG    1       -2.329   0.852  -3.582  0.00  0.00    +0.450 A 
ATOM      4  N   LIG    1       -1.409  -0.052  -3.394  0.00  0.00    -0.560 NA
ATOM      5  C   LIG    1       -0.861  -0.731  -4.420  0.00  0.00    +0.530 A 
ATOM      6  C   LIG    1       -1.332  -0.426  -5.783  0.00  0.00    -0.210 A 
ATOM      7  C   LIG    1       -0.824  -1.077  -6.904  0.00  0.00    +0.110 A 
ATOM      8  C   LIG    1       -1.304  -0.749  -8.154  0.00  0.00    -0.010 A 
ATOM      9  C   LIG    1       -2.285   0.222  -8.299  0.00  0.00    +0.080 A 
ATOM     10  C   LIG    1       -2.797   0.875  -7.197  0.00  0.00    -0.020 A 
ATOM     11  C   LIG    1       -2.327   0.558  -5.930  0.00  0.00    +0.180 A 
ATOM     12  O   LIG    1       -0.001  -1.573  -4.228  0.00  0.00    -0.480 OA
ATOM     13  N   LIG    1       -2.810   1.178  -4.795  0.00  0.00    -0.620 N 
ATOM     14  H   LIG    1       -3.499   1.856  -4.873  0.00  0.00    +0.420 HD
ENDBRANCH   1   3
BRANCH   1  17
ATOM     15  C   LIG    1       -2.049   1.128   1.269  0.00  0.00    +0.290 C 
ATOM     16  C   LIG    1       -2.812   1.636   0.042  0.00  0.00    +0.170 C 
ATOM     17  N   LIG    1       -2.154   1.144  -1.177  0.00  0.00    -0.500 NA
ATOM     18  C   LIG    1       -0.755   1.594  -1.231  0.00  0.00    +0.160 C 
ATOM     19  C   LIG    1       -0.013   1.086   0.008  0.00  0.00    +0.240 C 
ATOM     20  O   LIG    1       -0.684   1.548   1.183  0.00  0.00    -0.370 OA
BRANCH  15  24
ATOM     21  C   LIG    1       -4.695   1.417   5.510  0.00  0.00    +0.190 C 
ATOM     22  C   LIG    1       -3.817   1.805   4.348  0.00  0.00    +0.290 A 
ATOM     23  N   LIG    1       -3.443   1.018   3.372  0.00  0.00    -0.530 NA
ATOM     24  C   LIG    1       -2.673   1.692   2.519  0.00  0.00    +0.230 A 
ATOM     25  N   LIG    1       -2.541   2.921   2.946  0.00  0.00    -0.290 NA
ATOM     26  N   LIG    1       -3.283   3.020   4.134  0.00  0.00    -0.480 N 
ATOM     27  H   LIG    1       -3.386   3.807   4.691  0.00  0.00    +0.440 HD
ENDBRANCH  15  24
ENDBRANCH   1  17
TORSDOF 3
