REMARK  Name = ZINCrg00000Y9E6U.0
REMARK                            x       y       z     vdW  Elec       q    Type
REMARK                         _______ _______ _______ _____ _____    ______ ____
ROOT
ATOM      1  C   LIG    1       -0.373   3.315   3.722  0.00  0.00    +0.520 C 
ATOM      2  N   LIG    1       -1.036   4.216   4.474  0.00  0.00    -0.610 N 
ATOM      3  C   LIG    1       -2.422   3.972   4.902  0.00  0.00    +0.240 C 
ATOM      4  C   LIG    1       -2.503   4.206   6.419  0.00  0.00    +0.240 C 
ATOM      5  O   LIG    1       -1.962   5.494   6.724  0.00  0.00    -0.350 OA
ATOM      6  C   LIG    1       -0.578   5.640   6.398  0.00  0.00    +0.190 C 
ATOM      7  C   LIG    1       -0.397   5.477   4.885  0.00  0.00    +0.290 C 
ATOM      8  O   LIG    1        0.797   3.491   3.455  0.00  0.00    -0.500 OA
ENDROOT
BRANCH   1  14
ATOM      9  C   LIG    1       -1.889   2.392   1.903  0.00  0.00    -0.140 C 
ATOM     10  C   LIG    1       -2.096   0.993   1.203  0.00  0.00    +0.090 C 
ATOM     11  C   LIG    1       -0.542   1.017   1.288  0.00  0.00    +0.070 C 
ATOM     12  O   LIG    1       -0.147   1.107   2.690  0.00  0.00    -0.310 OA
ATOM     13  C   LIG    1        0.261   0.073   0.391  0.00  0.00    +0.130 C 
ATOM     14  C   LIG    1       -1.085   2.088   3.214  0.00  0.00    +0.210 C 
ATOM     15  C   LIG    1       -0.743   2.492   0.861  0.00  0.00    +0.060 C 
BRANCH   9  16
ATOM     16  C   LIG    1       -2.994   3.415   1.953  0.00  0.00    +0.500 C 
ATOM     17  O   LIG    1       -2.885   4.452   1.341  0.00  0.00    -0.480 OA
BRANCH  16  18
ATOM     18  O   LIG    1       -4.100   3.175   2.675  0.00  0.00    -0.350 OA
BRANCH  18  20
ATOM     19  C   LIG    1       -6.297   3.756   3.549  0.00  0.00    +0.070 C 
ATOM     20  C   LIG    1       -5.123   4.205   2.677  0.00  0.00    +0.200 C 
ENDBRANCH  18  20
ENDBRANCH  16  18
ENDBRANCH   9  16
ENDBRANCH   1  14
BRANCH   6  21
ATOM     21  C   LIG    1       -0.104   7.007   6.817  0.00  0.00    +0.470 C 
ATOM     22  O   LIG    1       -0.890   7.809   7.263  0.00  0.00    -0.470 OA
BRANCH  21  23
ATOM     23  O   LIG    1        1.192   7.334   6.696  0.00  0.00    -0.350 OA
BRANCH  23  24
ATOM     24  C   LIG    1        1.578   8.668   7.119  0.00  0.00    +0.120 C 
ATOM     25  C   LIG    1        0.813   9.706   6.295  0.00  0.00    +0.030 C 
ATOM     26  C   LIG    1        3.082   8.856   6.907  0.00  0.00    +0.080 C 
ATOM     27  C   LIG    1        1.246   8.849   8.602  0.00  0.00    +0.030 C 
ENDBRANCH  23  24
ENDBRANCH  21  23
ENDBRANCH   6  21
TORSDOF 7
