REMARK  Name = ZINCpk00000e9DxA.0
REMARK                            x       y       z     vdW  Elec       q    Type
REMARK                         _______ _______ _______ _____ _____    ______ ____
ROOT
ATOM      1  C   LIG    1        0.166   8.374   5.237  0.00  0.00    +0.320 C 
ENDROOT
BRANCH   1   2
ATOM      2  N   LIG    1       -1.273   8.645   5.248  0.00  0.00    -0.310 N 
ATOM      3  N   LIG    1       -1.897   9.506   4.517  0.00  0.00    -0.090 NA
ATOM      4  N   LIG    1       -3.152   9.460   4.802  0.00  0.00    -0.060 NA
ATOM      5  N   LIG    1       -3.350   8.580   5.721  0.00  0.00    -0.300 NA
ATOM      6  C   LIG    1       -2.193   8.046   6.028  0.00  0.00    +0.200 A 
ATOM      7  C   LIG    1       -1.941   6.972   7.054  0.00  0.00    +0.220 C 
ENDBRANCH   1   2
BRANCH   1   8
ATOM      8  C   LIG    1        0.579   7.909   3.864  0.00  0.00    +0.470 C 
ATOM      9  O   LIG    1        1.398   8.535   3.234  0.00  0.00    -0.460 OA
BRANCH   8  10
ATOM     10  O   LIG    1        0.036   6.798   3.340  0.00  0.00    -0.350 OA
BRANCH  10  11
ATOM     11  C   LIG    1        0.480   6.410   2.014  0.00  0.00    +0.410 C 
BRANCH  11  15
ATOM     12  C   LIG    1       -0.749   3.086   1.275  0.00  0.00    +0.190 A 
ATOM     13  N   LIG    1       -1.674   3.847   0.763  0.00  0.00    -0.280 NA
ATOM     14  N   LIG    1       -1.365   5.082   0.954  0.00  0.00    -0.240 NA
ATOM     15  C   LIG    1       -0.233   5.150   1.594  0.00  0.00    +0.140 A 
ATOM     16  O   LIG    1        0.180   3.891   1.817  0.00  0.00    -0.220 OA
BRANCH  12  18
ATOM     17  C   LIG    1       -0.013   1.086   0.008  0.00  0.00    +0.060 C 
ATOM     18  C   LIG    1       -0.729   1.579   1.267  0.00  0.00    +0.190 C 
ENDBRANCH  12  18
ENDBRANCH  11  15
ENDBRANCH  10  11
ENDBRANCH   8  10
ENDBRANCH   1   8
BRANCH   1  19
ATOM     19  C   LIG    1        0.928   9.652   5.592  0.00  0.00    +0.150 C 
BRANCH  19  20
ATOM     20  C   LIG    1        0.609  10.050   7.010  0.00  0.00    -0.100 A 
ATOM     21  C   LIG    1       -0.454  10.894   7.269  0.00  0.00    +0.010 A 
ATOM     22  C   LIG    1       -0.750  11.255   8.570  0.00  0.00    +0.010 A 
ATOM     23  C   LIG    1        0.024  10.779   9.612  0.00  0.00    +0.020 A 
ATOM     24  C   LIG    1        1.090   9.939   9.353  0.00  0.00    +0.010 A 
ATOM     25  C   LIG    1        1.383   9.574   8.052  0.00  0.00    +0.020 A 
ENDBRANCH  19  20
ENDBRANCH   1  19
TORSDOF 8
