REMARK  Name = ZINCtV000002PIB0.0
REMARK                            x       y       z     vdW  Elec       q    Type
REMARK                         _______ _______ _______ _____ _____    ______ ____
ROOT
ATOM      1  O   LIG    1       -2.215  -0.105   0.217  0.00  0.00    -0.500 OA
ATOM      2  C   LIG    1       -1.151  -0.692   0.111  0.00  0.00    +0.570 A 
ATOM      3  C   LIG    1       -1.106  -2.118   0.101  0.00  0.00    -0.230 A 
ATOM      4  C   LIG    1        0.134  -2.733  -0.023  0.00  0.00    +0.090 A 
ATOM      5  S   LIG    1       -0.070  -4.478  -0.011  0.00  0.00    +0.200 S 
ATOM      6  C   LIG    1       -1.813  -4.349   0.159  0.00  0.00    -0.200 A 
ATOM      7  C   LIG    1       -2.756  -5.537   0.245  0.00  0.00    +0.120 C 
ATOM      8  C   LIG    1       -4.101  -5.060   0.796  0.00  0.00    +0.020 C 
ATOM      9  C   LIG    1       -4.558  -3.833   0.000  0.00  0.00    +0.020 C 
ATOM     10  C   LIG    1       -3.657  -2.647   0.348  0.00  0.00    +0.110 C 
ATOM     11  N   LIG    1        1.247  -1.978  -0.128  0.00  0.00    -0.510 NA
ATOM     12  C   LIG    1        1.190  -0.668  -0.122  0.00  0.00    +0.370 A 
ATOM     13  C   LIG    1       -2.202  -3.074   0.203  0.00  0.00    -0.030 A 
ATOM     14  N   LIG    1        0.002  -0.004   0.002  0.00  0.00    -0.470 N 
ENDROOT
BRANCH  14  15
ATOM     15  C   LIG    1       -0.017   1.397   0.010  0.00  0.00    +0.090 A 
ATOM     16  C   LIG    1        0.090   2.087   1.210  0.00  0.00    +0.040 A 
ATOM     17  C   LIG    1        0.077   3.469   1.213  0.00  0.00    +0.030 A 
ATOM     18  C   LIG    1       -0.054   4.163   0.025  0.00  0.00    +0.030 A 
ATOM     19  C   LIG    1       -0.167   3.478  -1.171  0.00  0.00    +0.030 A 
ATOM     20  C   LIG    1       -0.149   2.097  -1.182  0.00  0.00    +0.040 A 
ENDBRANCH  14  15
BRANCH  12  21
ATOM     21  S   LIG    1        2.682   0.258  -0.270  0.00  0.00    +0.040 S 
BRANCH  21  22
ATOM     22  C   LIG    1        3.880  -1.093  -0.398  0.00  0.00    +0.150 C 
BRANCH  22  23
ATOM     23  C   LIG    1        5.268  -0.523  -0.536  0.00  0.00    -0.080 A 
ATOM     24  C   LIG    1        5.785  -0.262  -1.792  0.00  0.00    +0.050 A 
ATOM     25  C   LIG    1        7.056   0.266  -1.919  0.00  0.00    +0.030 A 
ATOM     26  C   LIG    1        7.815   0.522  -0.791  0.00  0.00    -0.030 A 
ATOM     27  C   LIG    1        7.299   0.256   0.464  0.00  0.00    +0.030 A 
ATOM     28 CL   LIG    1        9.414   1.177  -0.951  0.00  0.00    -0.060 Cl
ATOM     29  C   LIG    1        6.025  -0.267   0.591  0.00  0.00    +0.050 A 
ENDBRANCH  22  23
ENDBRANCH  21  22
ENDBRANCH  12  21
TORSDOF 4
