REMARK  Name = ZINCpk00000y6voq.0
REMARK                            x       y       z     vdW  Elec       q    Type
REMARK                         _______ _______ _______ _____ _____    ______ ____
ROOT
ATOM      1  C   LIG    1       -0.723   1.015   2.432  0.00  0.00    +0.580 C 
ATOM      2  N   LIG    1       -1.160   1.341   1.199  0.00  0.00    -0.620 N 
ATOM      3  C   LIG    1       -0.963   0.573  -0.044  0.00  0.00    +0.270 C 
ATOM      4  C   LIG    1       -2.112   0.948  -0.999  0.00  0.00    +0.010 C 
ATOM      5  C   LIG    1       -2.949   1.995  -0.228  0.00  0.00    +0.080 C 
ATOM      6  C   LIG    1       -1.940   2.542   0.813  0.00  0.00    +0.290 C 
ATOM      7  O   LIG    1       -0.891   1.782   3.358  0.00  0.00    -0.520 OA
ENDROOT
BRANCH   1  10
ATOM      8  C   LIG    1        1.325  -2.073   1.843  0.00  0.00    +0.180 A 
ATOM      9  C   LIG    1        0.701  -0.893   1.621  0.00  0.00    -0.070 A 
ATOM     10  C   LIG    1       -0.037  -0.282   2.658  0.00  0.00    -0.020 A 
ATOM     11  C   LIG    1       -0.116  -0.915   3.885  0.00  0.00    -0.020 A 
ATOM     12  C   LIG    1        0.547  -2.146   4.064  0.00  0.00    +0.520 A 
ATOM     13  O   LIG    1        0.489  -2.719   5.139  0.00  0.00    -0.540 OA
ATOM     14  N   LIG    1        1.244  -2.690   3.049  0.00  0.00    -0.600 N 
ATOM     15  H   LIG    1        1.697  -3.537   3.182  0.00  0.00    +0.420 HD
BRANCH   8  17
ATOM     16  C   LIG    1        3.572  -2.876   1.171  0.00  0.00    +0.050 C 
ATOM     17  C   LIG    1        2.115  -2.715   0.732  0.00  0.00    +0.040 C 
ATOM     18  C   LIG    1        1.524  -4.089   0.414  0.00  0.00    +0.050 C 
ENDBRANCH   8  17
ENDBRANCH   1  10
BRANCH   5  19
ATOM     19  C   LIG    1       -3.411   3.093  -1.151  0.00  0.00    -0.230 A 
ATOM     20  C   LIG    1       -4.696   3.424  -1.413  0.00  0.00    +0.240 A 
ATOM     21  N   LIG    1       -4.686   4.456  -2.284  0.00  0.00    -0.370 N 
ATOM     22  N   LIG    1       -3.350   4.763  -2.572  0.00  0.00    -0.290 NA
ATOM     23  C   LIG    1       -5.864   5.131  -2.833  0.00  0.00    +0.360 C 
ATOM     24  C   LIG    1       -2.587   3.946  -1.893  0.00  0.00    +0.240 A 
ENDBRANCH   5  19
BRANCH   4  25
ATOM     25  C   LIG    1       -2.964  -0.284  -1.315  0.00  0.00    +0.180 C 
BRANCH  25  26
ATOM     26  O   LIG    1       -2.188  -1.218  -2.068  0.00  0.00    -0.570 OA
ATOM     27  H   LIG    1       -2.665  -2.025  -2.305  0.00  0.00    +0.380 HD
ENDBRANCH  25  26
ENDBRANCH   4  25
TORSDOF 5
