REMARK  Name = ZINCzw00000007XK.1
REMARK                            x       y       z     vdW  Elec       q    Type
REMARK                         _______ _______ _______ _____ _____    ______ ____
ROOT
ATOM      1  N   LIG    1       -1.991   8.152  -2.438  0.00  0.00    -0.630 N 
ATOM      2  C   LIG    1       -1.556   7.801  -1.212  0.00  0.00    +0.710 C 
ATOM      3  N   LIG    1       -0.602   6.858  -1.079  0.00  0.00    -0.750 N 
ATOM      4  H   LIG    1       -0.228   6.433  -1.867  0.00  0.00    +0.400 HD
ATOM      5  O   LIG    1       -2.025   8.334  -0.225  0.00  0.00    -0.560 OA
ATOM      6  C   LIG    1       -1.426   7.510  -3.627  0.00  0.00    +0.280 C 
ENDROOT
BRANCH   1   7
ATOM      7  C   LIG    1       -3.029   9.176  -2.582  0.00  0.00    +0.440 C 
BRANCH   7  13
ATOM      8  C   LIG    1       -0.929  13.550  -1.331  0.00  0.00    +0.150 C 
ATOM      9  C   LIG    1       -1.477  12.419  -2.163  0.00  0.00    +0.040 A 
ATOM     10  C   LIG    1       -1.515  12.371  -3.523  0.00  0.00    -0.000 A 
ATOM     11  N   LIG    1       -2.093  11.167  -3.855  0.00  0.00    -0.560 N 
ATOM     12  H   LIG    1       -2.261  10.836  -4.751  0.00  0.00    +0.420 HD
ATOM     13  C   LIG    1       -2.382  10.533  -2.698  0.00  0.00    +0.210 A 
ATOM     14  N   LIG    1       -2.017  11.287  -1.697  0.00  0.00    -0.450 NA
BRANCH  10  15
ATOM     15  C   LIG    1       -1.031  13.409  -4.459  0.00  0.00    -0.010 A 
ATOM     16  C   LIG    1        0.204  14.023  -4.247  0.00  0.00    +0.100 A 
ATOM     17  C   LIG    1        0.651  14.988  -5.127  0.00  0.00    +0.050 A 
ATOM     18  C   LIG    1       -0.126  15.354  -6.210  0.00  0.00    +0.110 A 
ATOM     19  C   LIG    1       -1.354  14.752  -6.423  0.00  0.00    -0.040 A 
ATOM     20  C   LIG    1       -1.811  13.783  -5.554  0.00  0.00    +0.100 A 
BRANCH  19  21
ATOM     21  N   LIG    1       -2.180  15.150  -7.585  0.00  0.00    +0.020 N 
ATOM     22  O   LIG    1       -1.778  16.006  -8.354  0.00  0.00    -0.150 OA
ATOM     23  O   LIG    1       -3.261  14.622  -7.774  0.00  0.00    -0.160 OA
ENDBRANCH  19  21
ENDBRANCH  10  15
ENDBRANCH   7  13
ENDBRANCH   1   7
BRANCH   3  24
ATOM     24  C   LIG    1       -0.129   6.476   0.253  0.00  0.00    +0.350 C 
BRANCH  24  25
ATOM     25  C   LIG    1        0.930   5.412   0.125  0.00  0.00    -0.080 A 
ATOM     26  C   LIG    1        2.260   5.772   0.009  0.00  0.00    +0.070 A 
ATOM     27  C   LIG    1        3.235   4.798  -0.109  0.00  0.00    +0.050 A 
ATOM     28  C   LIG    1        2.882   3.463  -0.113  0.00  0.00    +0.040 A 
ATOM     29  C   LIG    1        1.548   3.099   0.004  0.00  0.00    +0.090 A 
ATOM     30  C   LIG    1        0.571   4.078   0.117  0.00  0.00    +0.080 A 
BRANCH  29  31
ATOM     31  N   LIG    1        1.186   1.744   0.000  0.00  0.00    -0.220 N 
ATOM     32  C   LIG    1        2.045   0.688  -0.014  0.00  0.00    +0.210 A 
ATOM     33  C   LIG    1        1.272  -0.424  -0.012  0.00  0.00    -0.110 A 
ATOM     34  N   LIG    1        0.002  -0.004   0.002  0.00  0.00    -0.240 NA
ATOM     35  N   LIG    1       -0.015   1.282   0.009  0.00  0.00    -0.050 NA
BRANCH  33  36
ATOM     36  C   LIG    1        1.749  -1.853  -0.025  0.00  0.00    +0.400 C 
BRANCH  36  37
ATOM     37  N   LIG    1        1.803  -2.363   1.352  0.00  0.00    -0.640 N 
ATOM     38  H   LIG    1        2.123  -3.320   1.344  0.00  0.00    +0.440 HD
ATOM     39  H   LIG    1        0.883  -2.319   1.764  0.00  0.00    +0.440 HD
ATOM     40  H   LIG    1        2.441  -1.800   1.894  0.00  0.00    +0.430 HD
ENDBRANCH  36  37
ENDBRANCH  33  36
ENDBRANCH  29  31
ENDBRANCH  24  25
ENDBRANCH   3  24
TORSDOF 9
