REMARK  Name = ZINCzw00000007XK.0
REMARK                            x       y       z     vdW  Elec       q    Type
REMARK                         _______ _______ _______ _____ _____    ______ ____
ROOT
ATOM      1  N   LIG    1       -1.521   8.187  -2.306  0.00  0.00    -0.630 N 
ATOM      2  C   LIG    1       -1.139   7.941  -1.037  0.00  0.00    +0.710 C 
ATOM      3  N   LIG    1       -0.071   7.155  -0.796  0.00  0.00    -0.750 N 
ATOM      4  H   LIG    1        0.422   6.767  -1.535  0.00  0.00    +0.400 HD
ATOM      5  O   LIG    1       -1.757   8.428  -0.110  0.00  0.00    -0.560 OA
ATOM      6  C   LIG    1       -0.777   7.601  -3.422  0.00  0.00    +0.280 C 
ENDROOT
BRANCH   1   7
ATOM      7  C   LIG    1       -2.682   9.042  -2.568  0.00  0.00    +0.440 C 
BRANCH   7  12
ATOM      8  C   LIG    1       -1.175  13.471  -4.503  0.00  0.00    +0.150 C 
ATOM      9  C   LIG    1       -1.581  12.389  -3.536  0.00  0.00    +0.010 A 
ATOM     10  C   LIG    1       -1.654  12.495  -2.183  0.00  0.00    +0.020 A 
ATOM     11  N   LIG    1       -2.063  11.303  -1.701  0.00  0.00    -0.440 NA
ATOM     12  C   LIG    1       -2.233  10.475  -2.692  0.00  0.00    +0.190 A 
ATOM     13  N   LIG    1       -1.948  11.110  -3.850  0.00  0.00    -0.560 N 
ATOM     14  H   LIG    1       -1.995  10.729  -4.741  0.00  0.00    +0.420 HD
BRANCH  10  15
ATOM     15  C   LIG    1       -1.346  13.705  -1.382  0.00  0.00    +0.010 A 
ATOM     16  C   LIG    1       -1.764  14.959  -1.821  0.00  0.00    +0.080 A 
ATOM     17  C   LIG    1       -1.474  16.081  -1.072  0.00  0.00    +0.040 A 
ATOM     18  C   LIG    1       -0.771  15.963   0.113  0.00  0.00    +0.100 A 
ATOM     19  C   LIG    1       -0.354  14.719   0.554  0.00  0.00    -0.040 A 
ATOM     20  C   LIG    1       -0.642  13.590  -0.185  0.00  0.00    +0.120 A 
BRANCH  19  21
ATOM     21  N   LIG    1        0.398  14.600   1.823  0.00  0.00    +0.030 N 
ATOM     22  O   LIG    1        0.766  13.506   2.212  0.00  0.00    -0.160 OA
ATOM     23  O   LIG    1        0.649  15.595   2.479  0.00  0.00    -0.160 OA
ENDBRANCH  19  21
ENDBRANCH  10  15
ENDBRANCH   7  12
ENDBRANCH   1   7
BRANCH   3  24
ATOM     24  C   LIG    1        0.345   6.888   0.583  0.00  0.00    +0.350 C 
BRANCH  24  25
ATOM     25  C   LIG    1        1.555   5.989   0.577  0.00  0.00    -0.080 A 
ATOM     26  C   LIG    1        2.824   6.539   0.546  0.00  0.00    +0.070 A 
ATOM     27  C   LIG    1        3.936   5.717   0.540  0.00  0.00    +0.050 A 
ATOM     28  C   LIG    1        3.783   4.345   0.566  0.00  0.00    +0.040 A 
ATOM     29  C   LIG    1        2.510   3.790   0.598  0.00  0.00    +0.090 A 
ATOM     30  C   LIG    1        1.396   4.617   0.598  0.00  0.00    +0.080 A 
BRANCH  29  31
ATOM     31  N   LIG    1        2.352   2.397   0.624  0.00  0.00    -0.220 N 
ATOM     32  C   LIG    1        3.354   1.480   0.717  0.00  0.00    +0.210 A 
ATOM     33  C   LIG    1        2.753   0.267   0.707  0.00  0.00    -0.110 A 
ATOM     34  N   LIG    1        1.438   0.494   0.610  0.00  0.00    -0.240 NA
ATOM     35  N   LIG    1        1.233   1.763   0.562  0.00  0.00    -0.050 NA
BRANCH  33  36
ATOM     36  C   LIG    1        3.433  -1.075   0.789  0.00  0.00    +0.400 C 
BRANCH  36  37
ATOM     37  N   LIG    1        3.451  -1.530   2.186  0.00  0.00    -0.640 N 
ATOM     38  H   LIG    1        3.955  -0.863   2.750  0.00  0.00    +0.430 HD
ATOM     39  H   LIG    1        3.906  -2.429   2.241  0.00  0.00    +0.440 HD
ATOM     40  H   LIG    1        2.504  -1.611   2.526  0.00  0.00    +0.440 HD
ENDBRANCH  36  37
ENDBRANCH  33  36
ENDBRANCH  29  31
ENDBRANCH  24  25
ENDBRANCH   3  24
TORSDOF 9
