REMARK  Name = ZINCrH000004osuA.0
REMARK                            x       y       z     vdW  Elec       q    Type
REMARK                         _______ _______ _______ _____ _____    ______ ____
ROOT
ATOM      1  C   LIG    1        5.106   0.698  -1.724  0.00  0.00    +0.090 C 
ATOM      2  C   LIG    1        4.864   1.050  -0.255  0.00  0.00    +0.030 C 
ENDROOT
BRANCH   2   3
ATOM      3  C   LIG    1        3.558   1.790  -0.124  0.00  0.00    +0.540 C 
ATOM      4  N   LIG    1        2.403   1.103  -0.015  0.00  0.00    -0.660 N 
ATOM      5  H   LIG    1        2.418   0.135   0.046  0.00  0.00    +0.420 HD
ATOM      6  O   LIG    1        3.545   3.002  -0.118  0.00  0.00    -0.500 OA
BRANCH   4   7
ATOM      7  C   LIG    1        1.181   1.787   0.008  0.00  0.00    +0.150 A 
ATOM      8  C   LIG    1        1.091   3.027   0.626  0.00  0.00    +0.050 A 
ATOM      9  C   LIG    1       -0.114   3.703   0.650  0.00  0.00    +0.060 A 
ATOM     10  C   LIG    1       -1.236   3.147   0.058  0.00  0.00    +0.020 A 
ATOM     11  O   LIG    1       -2.519   3.601  -0.054  0.00  0.00    -0.310 OA
ATOM     12  C   LIG    1       -3.308   2.445  -0.389  0.00  0.00    +0.430 C 
ATOM     13  O   LIG    1       -2.377   1.578  -1.063  0.00  0.00    -0.310 OA
ATOM     14  C   LIG    1       -1.147   1.905  -0.568  0.00  0.00    +0.050 A 
ATOM     15  C   LIG    1        0.059   1.225  -0.586  0.00  0.00    +0.020 A 
ENDBRANCH   4   7
ENDBRANCH   2   3
BRANCH   2  16
ATOM     16  S   LIG    1        6.213   2.099   0.343  0.00  0.00    +0.050 S 
BRANCH  16  17
ATOM     17  C   LIG    1        7.558   0.967   0.223  0.00  0.00    +0.180 A 
ATOM     18  N   LIG    1        7.481  -0.274  -0.200  0.00  0.00    -0.490 NA
ATOM     19  C   LIG    1        8.702  -0.834  -0.156  0.00  0.00    +0.150 A 
ATOM     20  C   LIG    1        9.570   0.081   0.308  0.00  0.00    +0.140 A 
ATOM     21  N   LIG    1        8.853   1.231   0.547  0.00  0.00    -0.440 N 
BRANCH  21  22
ATOM     22  C   LIG    1        9.382   2.498   1.057  0.00  0.00    +0.350 C 
BRANCH  22  23
ATOM     23  C   LIG    1        9.206   2.551   2.553  0.00  0.00    -0.120 A 
ATOM     24  C   LIG    1        8.053   3.087   3.095  0.00  0.00    +0.040 A 
ATOM     25  C   LIG    1        7.890   3.131   4.467  0.00  0.00    +0.010 A 
ATOM     26  C   LIG    1        8.884   2.648   5.297  0.00  0.00    +0.020 A 
ATOM     27  C   LIG    1       10.039   2.116   4.755  0.00  0.00    +0.010 A 
ATOM     28  C   LIG    1       10.200   2.068   3.383  0.00  0.00    +0.020 A 
ENDBRANCH  22  23
ENDBRANCH  21  22
ENDBRANCH  16  17
ENDBRANCH   2  16
TORSDOF 6
