REMARK  Name = ZINCqH0000002xLJ.0
REMARK                            x       y       z     vdW  Elec       q    Type
REMARK                         _______ _______ _______ _____ _____    ______ ____
ROOT
ATOM      1  N   LIG    1        1.146   3.062   0.610  0.00  0.00    -0.510 N 
ATOM      2  C   LIG    1        1.130   1.721   0.723  0.00  0.00    +0.710 A 
ATOM      3  N   LIG    1        0.004   1.011   0.539  0.00  0.00    -0.650 N 
ATOM      4  H   LIG    1        0.028   0.045   0.629  0.00  0.00    +0.440 HD
ATOM      5  C   LIG    1       -1.159   1.619   0.228  0.00  0.00    +0.600 A 
ATOM      6  C   LIG    1       -1.190   3.025   0.104  0.00  0.00    -0.140 A 
ATOM      7  N   LIG    1       -2.175   3.947  -0.192  0.00  0.00    -0.390 N 
ATOM      8  C   LIG    1       -1.585   5.174  -0.170  0.00  0.00    +0.320 A 
ATOM      9  N   LIG    1       -0.306   5.037   0.121  0.00  0.00    -0.460 NA
ATOM     10  O   LIG    1       -2.172   0.964   0.059  0.00  0.00    -0.510 OA
ATOM     11  O   LIG    1        2.160   1.137   0.998  0.00  0.00    -0.530 OA
ATOM     12  C   LIG    1       -0.017   3.748   0.296  0.00  0.00    +0.320 A 
ENDROOT
BRANCH   8  13
ATOM     13  C   LIG    1       -2.270   6.457  -0.431  0.00  0.00    -0.000 A 
ATOM     14  C   LIG    1       -3.440   6.780   0.258  0.00  0.00    +0.040 A 
ATOM     15  C   LIG    1       -4.071   7.982   0.014  0.00  0.00    +0.040 A 
ATOM     16  C   LIG    1       -3.553   8.863  -0.919  0.00  0.00    +0.050 A 
ATOM     17  C   LIG    1       -2.397   8.547  -1.610  0.00  0.00    +0.050 A 
ATOM     18  C   LIG    1       -1.752   7.350  -1.372  0.00  0.00    -0.050 A 
ATOM     19 BR   LIG    1       -0.171   6.921  -2.317  0.00  0.00    -0.020 Br
ENDBRANCH   8  13
BRANCH   1  20
ATOM     20  C   LIG    1        2.396   3.799   0.817  0.00  0.00    +0.320 C 
BRANCH  20  21
ATOM     21  C   LIG    1        3.136   3.933  -0.515  0.00  0.00    +0.010 C 
BRANCH  21  23
ATOM     22  C   LIG    1        5.181   4.836  -1.630  0.00  0.00    +0.010 C 
ATOM     23  C   LIG    1        4.441   4.702  -0.298  0.00  0.00    +0.020 C 
ENDBRANCH  21  23
ENDBRANCH  20  21
ENDBRANCH   1  20
BRANCH   7  24
ATOM     24  C   LIG    1       -3.584   3.661  -0.474  0.00  0.00    +0.310 C 
BRANCH  24  25
ATOM     25  C   LIG    1       -3.795   3.582  -1.988  0.00  0.00    -0.030 C 
ATOM     26  C   LIG    1       -5.285   3.407  -2.287  0.00  0.00    +0.050 C 
ATOM     27  C   LIG    1       -3.018   2.390  -2.550  0.00  0.00    +0.030 C 
ENDBRANCH  24  25
ENDBRANCH   7  24
TORSDOF 6
