REMARK  Name = ZINCpk00001AZiBe.0
REMARK                            x       y       z     vdW  Elec       q    Type
REMARK                         _______ _______ _______ _____ _____    ______ ____
ROOT
ATOM      1  C   LIG    1       -2.247   1.596  -0.176  0.00  0.00    +0.030 C 
ATOM      2  C   LIG    1       -1.252   1.831   0.976  0.00  0.00    +0.040 C 
ATOM      3  C   LIG    1       -0.183   1.188   0.076  0.00  0.00    +0.050 C 
ATOM      4  C   LIG    1       -1.036   1.631  -1.124  0.00  0.00    -0.030 C 
ENDROOT
BRANCH   4   5
ATOM      5  C   LIG    1       -0.702   3.013  -1.625  0.00  0.00    +0.530 C 
ATOM      6  N   LIG    1       -0.984   3.354  -2.898  0.00  0.00    -0.730 N 
ATOM      7  H   LIG    1       -1.403   2.711  -3.492  0.00  0.00    +0.400 HD
ATOM      8  O   LIG    1       -0.179   3.817  -0.883  0.00  0.00    -0.530 OA
BRANCH   6   9
ATOM      9  C   LIG    1       -0.659   4.697  -3.385  0.00  0.00    +0.250 C 
BRANCH   9  10
ATOM     10  C   LIG    1       -1.080   4.824  -4.851  0.00  0.00    +0.290 C 
BRANCH  10  11
ATOM     11  N   LIG    1       -0.755   6.167  -5.338  0.00  0.00    -0.600 N 
ATOM     12  C   LIG    1       -1.757   7.222  -5.210  0.00  0.00    +0.250 C 
ATOM     13  C   LIG    1       -1.086   8.593  -5.336  0.00  0.00    +0.230 C 
ATOM     14  O   LIG    1       -0.257   8.589  -6.503  0.00  0.00    -0.370 OA
ATOM     15  C   LIG    1        0.881   7.732  -6.377  0.00  0.00    +0.270 C 
ATOM     16  C   LIG    1        0.447   6.378  -5.888  0.00  0.00    +0.490 C 
ATOM     17  O   LIG    1        1.213   5.444  -5.997  0.00  0.00    -0.530 OA
ENDBRANCH  10  11
ENDBRANCH   9  10
ENDBRANCH   6   9
ENDBRANCH   4   5
BRANCH   1  18
ATOM     18  C   LIG    1       -3.225   2.754  -0.388  0.00  0.00    +0.070 C 
BRANCH  18  19
ATOM     19  S   LIG    1       -4.678   2.519   0.672  0.00  0.00    -0.070 S 
BRANCH  19  26
ATOM     20  C   LIG    1       -7.418   3.114   1.926  0.00  0.00    +0.120 C 
ATOM     21  C   LIG    1       -6.908   4.112   0.919  0.00  0.00    -0.120 A 
ATOM     22  C   LIG    1       -7.654   5.228   0.602  0.00  0.00    +0.280 A 
ATOM     23  N   LIG    1       -7.217   6.105  -0.283  0.00  0.00    -0.490 NA
ATOM     24  C   LIG    1       -6.057   5.960  -0.896  0.00  0.00    +0.270 A 
ATOM     25  C   LIG    1       -5.248   4.874  -0.631  0.00  0.00    -0.050 A 
ATOM     26  C   LIG    1       -5.673   3.924   0.298  0.00  0.00    -0.050 A 
ENDBRANCH  19  26
ENDBRANCH  18  19
ENDBRANCH   1  18
TORSDOF 7
