REMARK  Name = ZINCrD0000074SeM.1
REMARK                            x       y       z     vdW  Elec       q    Type
REMARK                         _______ _______ _______ _____ _____    ______ ____
ROOT
ATOM      1  C   LIG    1       -5.082  -3.488   4.069  0.00  0.00    +0.360 C 
ENDROOT
BRANCH   1   2
ATOM      2  N   LIG    1       -6.340  -4.238   4.077  0.00  0.00    -0.510 N 
ATOM      3  C   LIG    1       -6.310  -5.584   3.967  0.00  0.00    +0.550 A 
ATOM      4  C   LIG    1       -7.590  -6.314   3.978  0.00  0.00    -0.180 A 
ATOM      5  C   LIG    1       -7.643  -7.701   3.870  0.00  0.00    +0.160 A 
ATOM      6  C   LIG    1       -8.865  -8.339   3.886  0.00  0.00    +0.020 A 
ATOM      7  C   LIG    1      -10.037  -7.606   4.009  0.00  0.00    +0.030 A 
ATOM      8  C   LIG    1       -9.998  -6.228   4.118  0.00  0.00    +0.020 A 
ATOM      9 CL   LIG    1      -11.567  -8.427   4.028  0.00  0.00    -0.040 Cl
ATOM     10  C   LIG    1       -8.778  -5.572   4.103  0.00  0.00    +0.180 A 
ATOM     11  N   LIG    1       -8.695  -4.191   4.210  0.00  0.00    -0.580 N 
ATOM     12  H   LIG    1       -9.506  -3.666   4.297  0.00  0.00    +0.450 HD
ATOM     13  O   LIG    1       -5.254  -6.177   3.861  0.00  0.00    -0.460 OA
ATOM     14  C   LIG    1       -7.501  -3.574   4.199  0.00  0.00    +0.530 A 
ATOM     15  S   LIG    1       -7.458  -1.869   4.341  0.00  0.00    -0.530 S 
ENDBRANCH   1   2
BRANCH   1  16
ATOM     16  C   LIG    1       -4.722  -3.111   2.631  0.00  0.00    +0.060 C 
BRANCH  16  19
ATOM     17  N   LIG    1       -2.911  -1.902   1.457  0.00  0.00    -0.730 N 
ATOM     18  H   LIG    1       -3.373  -2.083   0.623  0.00  0.00    +0.400 HD
ATOM     19  C   LIG    1       -3.427  -2.340   2.622  0.00  0.00    +0.530 C 
ATOM     20  O   LIG    1       -2.849  -2.114   3.664  0.00  0.00    -0.530 OA
BRANCH  17  21
ATOM     21  C   LIG    1       -1.653  -1.152   1.449  0.00  0.00    +0.260 C 
BRANCH  21  22
ATOM     22  C   LIG    1       -1.293  -0.775   0.010  0.00  0.00    +0.070 C 
BRANCH  22  29
ATOM     23  C   LIG    1        1.229  -2.186  -0.022  0.00  0.00    +0.090 C 
ATOM     24  C   LIG    1        1.209  -0.679  -0.014  0.00  0.00    -0.080 A 
ATOM     25  C   LIG    1        2.396   0.028  -0.022  0.00  0.00    +0.000 A 
ATOM     26  C   LIG    1        2.377   1.411  -0.014  0.00  0.00    +0.000 A 
ATOM     27  C   LIG    1        1.171   2.085   0.002  0.00  0.00    +0.000 A 
ATOM     28  C   LIG    1       -0.017   1.378   0.010  0.00  0.00    +0.010 A 
ATOM     29  C   LIG    1        0.002  -0.004   0.002  0.00  0.00    -0.090 A 
ENDBRANCH  22  29
ENDBRANCH  21  22
ENDBRANCH  17  21
ENDBRANCH  16  19
ENDBRANCH   1  16
TORSDOF 6
