REMARK  Name = ZINCrD00000F5Ln0.0
REMARK                            x       y       z     vdW  Elec       q    Type
REMARK                         _______ _______ _______ _____ _____    ______ ____
ROOT
ATOM      1  C   LIG    1        0.658  -1.994  -1.123  0.00  0.00    -0.710 A 
ATOM      2  C   LIG    1        1.268  -2.610  -2.192  0.00  0.00    +0.210 A 
ATOM      3  C   LIG    1        1.836  -1.836  -3.212  0.00  0.00    -0.140 A 
ATOM      4  C   LIG    1        1.780  -0.440  -3.138  0.00  0.00    +0.140 A 
ATOM      5  C   LIG    1        1.162   0.166  -2.067  0.00  0.00    -0.080 A 
ATOM      6  C   LIG    1        0.605  -0.606  -1.054  0.00  0.00    +0.240 A 
ENDROOT
BRANCH   1   7
ATOM      7  S   LIG    1       -0.056  -2.966   0.161  0.00  0.00    +2.700 S 
ATOM      8  O   LIG    1        0.190  -4.324  -0.179  0.00  0.00    -0.960 OA
ATOM      9  O   LIG    1       -1.359  -2.444   0.382  0.00  0.00    -0.940 OA
BRANCH   7  10
ATOM     10  N   LIG    1        0.808  -2.666   1.542  0.00  0.00    -1.110 NA
ATOM     11  H   LIG    1        1.325  -3.376   1.954  0.00  0.00    +0.420 HD
BRANCH  10  13
ATOM     12  C   LIG    1        1.338  -1.402   3.567  0.00  0.00    +0.030 C 
ATOM     13  C   LIG    1        0.792  -1.329   2.140  0.00  0.00    +0.270 C 
ENDBRANCH  10  13
ENDBRANCH   7  10
ENDBRANCH   1   7
BRANCH   3  14
ATOM     14  C   LIG    1        2.490  -2.488  -4.355  0.00  0.00    +0.170 C 
ATOM     15  C   LIG    1        3.037  -1.740  -5.338  0.00  0.00    -0.080 C 
BRANCH  15  16
ATOM     16  C   LIG    1        3.667  -2.369  -6.441  0.00  0.00    +0.500 C 
ATOM     17  O   LIG    1        3.715  -3.583  -6.503  0.00  0.00    -0.510 OA
BRANCH  16  18
ATOM     18  O   LIG    1        4.213  -1.621  -7.422  0.00  0.00    -0.350 OA
BRANCH  18  19
ATOM     19  C   LIG    1        4.832  -2.321  -8.503  0.00  0.00    +0.210 C 
BRANCH  19  20
ATOM     20  C   LIG    1        5.390  -1.314  -9.510  0.00  0.00    -0.010 C 
ATOM     21  C   LIG    1        4.237  -0.531 -10.142  0.00  0.00    +0.020 C 
ATOM     22  C   LIG    1        4.795   0.476 -11.149  0.00  0.00    +0.000 C 
ATOM     23  C   LIG    1        5.565  -0.269 -12.242  0.00  0.00    +0.000 C 
ATOM     24  C   LIG    1        6.718  -1.051 -11.610  0.00  0.00    -0.020 C 
ATOM     25  C   LIG    1        7.488  -1.795 -12.703  0.00  0.00    +0.010 C 
ATOM     26  C   LIG    1        6.160  -2.058 -10.603  0.00  0.00    +0.030 C 
ENDBRANCH  19  20
ENDBRANCH  18  19
ENDBRANCH  16  18
ENDBRANCH  15  16
ENDBRANCH   3  14
BRANCH   6  27
ATOM     27  O   LIG    1        0.002  -0.004   0.002  0.00  0.00    -0.310 OA
ATOM     28  C   LIG    1       -0.017   1.425   0.010  0.00  0.00    +0.270 C 
ENDBRANCH   6  27
TORSDOF 9
