REMARK  Name = ZINCrD000000A0qd.0
REMARK                            x       y       z     vdW  Elec       q    Type
REMARK                         _______ _______ _______ _____ _____    ______ ____
ROOT
ATOM      1  C   LIG    1        4.257  -0.731  -1.441  0.00  0.00    +0.140 A 
ATOM      2  N   LIG    1        4.802   0.268  -2.070  0.00  0.00    -0.370 NA
ATOM      3  O   LIG    1        5.145  -0.069  -3.184  0.00  0.00    +0.100 OA
ATOM      4  C   LIG    1        4.831  -1.357  -3.383  0.00  0.00    +0.260 A 
ATOM      5  N   LIG    1        4.263  -1.785  -2.272  0.00  0.00    -0.440 NA
ENDROOT
BRANCH   4   6
ATOM      6  C   LIG    1        5.074  -2.147  -4.613  0.00  0.00    +0.070 A 
ATOM      7  N   LIG    1        4.768  -3.407  -4.812  0.00  0.00    -0.280 NA
ATOM      8  O   LIG    1        5.090  -3.776  -5.917  0.00  0.00    +0.180 OA
ATOM      9  C   LIG    1        5.669  -2.789  -6.624  0.00  0.00    -0.000 A 
ATOM     10  C   LIG    1        5.679  -1.689  -5.813  0.00  0.00    +0.030 A 
BRANCH   9  11
ATOM     11  C   LIG    1        6.186  -2.876  -8.006  0.00  0.00    +0.040 A 
ATOM     12  C   LIG    1        5.818  -1.919  -8.953  0.00  0.00    +0.070 A 
ATOM     13  C   LIG    1        6.305  -2.005 -10.242  0.00  0.00    +0.090 A 
ATOM     14  C   LIG    1        7.156  -3.037 -10.595  0.00  0.00    +0.060 A 
ATOM     15  C   LIG    1        7.524  -3.989  -9.661  0.00  0.00    +0.110 A 
ATOM     16  C   LIG    1        7.050  -3.911  -8.368  0.00  0.00    -0.020 A 
BRANCH  16  17
ATOM     17  N   LIG    1        7.450  -4.927  -7.369  0.00  0.00    +0.020 N 
ATOM     18  O   LIG    1        7.027  -4.859  -6.229  0.00  0.00    -0.150 OA
ATOM     19  O   LIG    1        8.204  -5.830  -7.686  0.00  0.00    -0.140 OA
ENDBRANCH  16  17
ENDBRANCH   9  11
ENDBRANCH   4   6
BRANCH   1  20
ATOM     20  C   LIG    1        3.711  -0.707  -0.037  0.00  0.00    +0.350 C 
BRANCH  20  21
ATOM     21  C   LIG    1        2.396   0.029  -0.021  0.00  0.00    -0.090 A 
ATOM     22  C   LIG    1        1.208  -0.679  -0.013  0.00  0.00    +0.030 A 
ATOM     23  C   LIG    1        0.002  -0.004   0.002  0.00  0.00    +0.010 A 
ATOM     24  C   LIG    1       -0.017   1.378   0.010  0.00  0.00    +0.010 A 
ATOM     25  C   LIG    1        1.171   2.086   0.002  0.00  0.00    +0.000 A 
ATOM     26  C   LIG    1        2.377   1.411  -0.015  0.00  0.00    +0.030 A 
ENDBRANCH  20  21
BRANCH  20  27
ATOM     27  N   LIG    1        4.665  -0.024   0.848  0.00  0.00    -0.820 NA
ATOM     28  H   LIG    1        4.822   0.926   0.545  0.00  0.00    +0.350 HD
ATOM     29  H   LIG    1        5.534  -0.534   0.905  0.00  0.00    +0.350 HD
ENDBRANCH  20  27
ENDBRANCH   1  20
TORSDOF 6
