REMARK  Name = ZINCrg00000zGCPF.0
REMARK                            x       y       z     vdW  Elec       q    Type
REMARK                         _______ _______ _______ _____ _____    ______ ____
ROOT
ATOM      1  C   LIG    1        1.374  -0.907  -2.663  0.00  0.00    +0.250 C 
ATOM      2  C   LIG    1        1.657   0.613  -2.566  0.00  0.00    +0.020 C 
ATOM      3  C   LIG    1        0.372   1.157  -1.893  0.00  0.00    +0.020 C 
ATOM      4  C   LIG    1       -0.003   0.074  -0.861  0.00  0.00    +0.020 C 
ATOM      5  C   LIG    1        0.634  -1.239  -1.350  0.00  0.00    +0.230 C 
ENDROOT
BRANCH   1   7
ATOM      6  C   LIG    1        2.639  -2.890  -3.300  0.00  0.00    +0.590 C 
ATOM      7  N   LIG    1        2.628  -1.660  -2.749  0.00  0.00    -0.720 N 
ATOM      8  H   LIG    1        3.450  -1.273  -2.410  0.00  0.00    +0.400 HD
ATOM      9  O   LIG    1        1.607  -3.375  -3.725  0.00  0.00    -0.500 OA
BRANCH   6  14
ATOM     10  C   LIG    1        3.984  -4.925  -3.943  0.00  0.00    +0.350 A 
ATOM     11  N   LIG    1        5.158  -5.479  -3.957  0.00  0.00    -0.540 NA
ATOM     12  S   LIG    1        6.253  -4.396  -3.251  0.00  0.00    +0.350 S 
ATOM     13  C   LIG    1        5.104  -3.156  -2.930  0.00  0.00    +0.030 A 
ATOM     14  C   LIG    1        3.898  -3.646  -3.386  0.00  0.00    -0.220 A 
BRANCH  10  16
ATOM     15  C   LIG    1        3.093  -6.862  -4.993  0.00  0.00    +0.260 C 
ATOM     16  O   LIG    1        2.892  -5.557  -4.447  0.00  0.00    -0.270 OA
ENDBRANCH  10  16
ENDBRANCH   6  14
ENDBRANCH   1   7
BRANCH   5  17
ATOM     17  N   LIG    1        1.582  -1.739  -0.351  0.00  0.00    -0.710 N 
ATOM     18  H   LIG    1        2.521  -1.500  -0.411  0.00  0.00    +0.390 HD
ATOM     19  C   LIG    1        1.151  -2.532   0.650  0.00  0.00    +0.530 C 
ATOM     20  O   LIG    1       -0.022  -2.831   0.724  0.00  0.00    -0.520 OA
BRANCH  19  21
ATOM     21  C   LIG    1        2.126  -3.047   1.677  0.00  0.00    -0.020 C 
ATOM     22  C   LIG    1        1.693  -2.588   3.070  0.00  0.00    +0.280 C 
ATOM     23  N   LIG    1        2.484  -3.258   4.096  0.00  0.00    -0.720 N 
ATOM     24  H   LIG    1        2.508  -2.862   4.981  0.00  0.00    +0.400 HD
ATOM     25  C   LIG    1        3.179  -4.378   3.893  0.00  0.00    +0.520 C 
ATOM     26  C   LIG    1        3.269  -5.069   2.562  0.00  0.00    +0.080 C 
ATOM     27  O   LIG    1        3.770  -4.865   4.833  0.00  0.00    -0.550 OA
ATOM     28  C   LIG    1        2.145  -4.580   1.645  0.00  0.00    -0.050 C 
ATOM     29  C   LIG    1        2.400  -5.062   0.215  0.00  0.00    +0.040 C 
ATOM     30  C   LIG    1        0.803  -5.122   2.140  0.00  0.00    +0.050 C 
ENDBRANCH  19  21
ENDBRANCH   5  17
TORSDOF 5
