REMARK  Name = ZINCqH0000003qtr.0
REMARK                            x       y       z     vdW  Elec       q    Type
REMARK                         _______ _______ _______ _____ _____    ______ ____
ROOT
ATOM      1  N   LIG    1        1.498  -1.698  -4.829  0.00  0.00    -0.620 N 
ATOM      2  H   LIG    1        2.367  -1.943  -5.183  0.00  0.00    +0.430 HD
ATOM      3  C   LIG    1        0.406  -1.760  -5.616  0.00  0.00    +0.510 C 
ATOM      4  O   LIG    1       -0.680  -1.454  -5.173  0.00  0.00    -0.470 OA
ENDROOT
BRANCH   1   6
ATOM      5  C   LIG    1        2.424  -1.183  -2.628  0.00  0.00    -0.220 A 
ATOM      6  C   LIG    1        1.379  -1.282  -3.512  0.00  0.00    +0.080 A 
ATOM      7  S   LIG    1       -0.085  -0.832  -2.765  0.00  0.00    +0.320 S 
ATOM      8  C   LIG    1        0.707  -0.490  -1.238  0.00  0.00    -0.250 A 
ATOM      9  C   LIG    1        2.009  -0.723  -1.320  0.00  0.00    +0.080 A 
BRANCH   5  10
ATOM     10  C   LIG    1        3.810  -1.507  -2.971  0.00  0.00    +0.540 C 
ATOM     11  O   LIG    1        4.085  -1.889  -4.093  0.00  0.00    -0.530 OA
BRANCH  10  12
ATOM     12  O   LIG    1        4.781  -1.383  -2.044  0.00  0.00    -0.350 OA
BRANCH  12  14
ATOM     13  C   LIG    1        7.089  -1.520  -1.278  0.00  0.00    +0.070 C 
ATOM     14  C   LIG    1        6.132  -1.722  -2.454  0.00  0.00    +0.200 C 
ENDBRANCH  12  14
ENDBRANCH  10  12
ENDBRANCH   5  10
BRANCH   8  15
ATOM     15  C   LIG    1        0.002  -0.004   0.002  0.00  0.00    +0.100 C 
ATOM     16  C   LIG    1       -0.019   1.526   0.010  0.00  0.00    +0.030 C 
ENDBRANCH   8  15
ENDBRANCH   1   6
BRANCH   3  17
ATOM     17  C   LIG    1        0.535  -2.212  -7.048  0.00  0.00    +0.270 C 
BRANCH  17  18
ATOM     18  O   LIG    1       -0.751  -2.195  -7.671  0.00  0.00    -0.280 OA
BRANCH  18  19
ATOM     19  C   LIG    1       -0.811  -2.576  -8.971  0.00  0.00    +0.160 A 
ATOM     20  C   LIG    1        0.350  -2.956  -9.636  0.00  0.00    -0.090 A 
ATOM     21  C   LIG    1        0.294  -3.349 -10.949  0.00  0.00    +0.110 A 
ATOM     22  C   LIG    1       -0.933  -3.355 -11.623  0.00  0.00    -0.210 A 
ATOM     23  C   LIG    1       -2.098  -2.967 -10.951  0.00  0.00    +0.120 A 
ATOM     24  C   LIG    1       -2.032  -2.582  -9.636  0.00  0.00    -0.020 A 
BRANCH  22  25
ATOM     25  C   LIG    1       -0.998  -3.768 -13.031  0.00  0.00    +0.400 C 
ATOM     26  O   LIG    1       -2.062  -3.772 -13.614  0.00  0.00    -0.460 OA
ATOM     27  C   LIG    1        0.258  -4.185 -13.753  0.00  0.00    +0.070 C 
ENDBRANCH  22  25
ENDBRANCH  18  19
ENDBRANCH  17  18
ENDBRANCH   3  17
TORSDOF 9
