REMARK  Name = ZINCrg000000tbv4.0
REMARK                            x       y       z     vdW  Elec       q    Type
REMARK                         _______ _______ _______ _____ _____    ______ ____
ROOT
ATOM      1  O   LIG    1        9.834  -0.776   0.493  0.00  0.00    -0.490 OA
ATOM      2  C   LIG    1        9.109  -0.839   1.458  0.00  0.00    +0.480 C 
ENDROOT
BRANCH   2   3
ATOM      3  O   LIG    1        7.781  -0.942   1.294  0.00  0.00    -0.350 OA
BRANCH   3   4
ATOM      4  C   LIG    1        7.286  -0.973  -0.071  0.00  0.00    +0.410 C 
BRANCH   4   5
ATOM      5  C   LIG    1        5.784  -1.091  -0.058  0.00  0.00    +0.180 A 
ATOM      6  N   LIG    1        4.925  -0.102  -0.045  0.00  0.00    -0.440 NA
ATOM      7  C   LIG    1        3.704  -0.681  -0.036  0.00  0.00    +0.210 A 
ATOM      8  N   LIG    1        3.890  -1.975  -0.039  0.00  0.00    -0.350 NA
ATOM      9  O   LIG    1        5.076  -2.226  -0.057  0.00  0.00    +0.110 OA
BRANCH   7  10
ATOM     10  C   LIG    1        2.395   0.021  -0.021  0.00  0.00    +0.020 A 
ATOM     11  C   LIG    1        1.196  -0.696  -0.013  0.00  0.00    +0.000 A 
ATOM     12  C   LIG    1        0.002  -0.004   0.002  0.00  0.00    +0.270 A 
ATOM     13  N   LIG    1       -0.016   1.315   0.009  0.00  0.00    -0.470 NA
ATOM     14  C   LIG    1        1.093   2.029   0.003  0.00  0.00    +0.270 A 
ATOM     15  C   LIG    1        2.330   1.416  -0.013  0.00  0.00    +0.020 A 
ENDBRANCH   7  10
ENDBRANCH   4   5
ENDBRANCH   3   4
ENDBRANCH   2   3
BRANCH   2  16
ATOM     16  C   LIG    1        9.696  -0.801   2.846  0.00  0.00    +0.110 C 
BRANCH  16  17
ATOM     17  C   LIG    1       11.218  -0.680   2.752  0.00  0.00    +0.390 C 
BRANCH  17  18
ATOM     18  N   LIG    1       11.789  -0.643   4.101  0.00  0.00    -0.440 N 
ATOM     19  N   LIG    1       12.028   0.505   4.868  0.00  0.00    -0.290 NA
ATOM     20  C   LIG    1       12.540   0.125   6.015  0.00  0.00    +0.300 A 
ATOM     21  C   LIG    1       12.965   0.855   7.154  0.00  0.00    +0.040 A 
ATOM     22  C   LIG    1       13.473   0.189   8.218  0.00  0.00    +0.110 A 
ATOM     23  C   LIG    1       13.573  -1.218   8.184  0.00  0.00    -0.020 A 
ATOM     24  C   LIG    1       13.168  -1.906   7.102  0.00  0.00    +0.300 A 
ATOM     25  N   LIG    1       12.649  -1.254   6.009  0.00  0.00    -0.480 N 
ATOM     26  C   LIG    1       12.184  -1.708   4.828  0.00  0.00    +0.640 A 
ATOM     27  O   LIG    1       12.131  -2.875   4.479  0.00  0.00    -0.530 OA
ENDBRANCH  17  18
ENDBRANCH  16  17
ENDBRANCH   2  16
TORSDOF 7
