REMARK  Name = ZINCpe00000MJMek.1
REMARK                            x       y       z     vdW  Elec       q    Type
REMARK                         _______ _______ _______ _____ _____    ______ ____
ROOT
ATOM      1  N   LIG    1        4.047   1.989   3.086  0.00  0.00    -0.740 N 
ATOM      2  H   LIG    1        5.006   2.059   3.217  0.00  0.00    +0.390 HD
ATOM      3  C   LIG    1        3.382   2.966   2.439  0.00  0.00    +0.710 C 
ATOM      4  N   LIG    1        4.029   4.087   2.062  0.00  0.00    -0.630 N 
ATOM      5  C   LIG    1        3.304   5.212   1.451  0.00  0.00    +0.280 C 
ATOM      6  C   LIG    1        4.024   5.615   0.164  0.00  0.00    +0.220 C 
ATOM      7  O   LIG    1        5.409   5.830   0.445  0.00  0.00    -0.360 OA
ATOM      8  C   LIG    1        6.098   4.669   0.913  0.00  0.00    +0.220 C 
ATOM      9  C   LIG    1        5.484   4.219   2.244  0.00  0.00    +0.260 C 
ATOM     10  O   LIG    1        2.198   2.837   2.195  0.00  0.00    -0.580 OA
ENDROOT
BRANCH   8  11
ATOM     11  C   LIG    1        7.555   4.996   1.117  0.00  0.00    +0.220 A 
ATOM     12  C   LIG    1        8.527   4.381   0.344  0.00  0.00    -0.130 A 
ATOM     13  C   LIG    1        9.855   4.711   0.563  0.00  0.00    +0.370 A 
ATOM     14  N   LIG    1       10.154   5.597   1.498  0.00  0.00    -0.570 NA
ATOM     15  C   LIG    1        9.200   6.167   2.221  0.00  0.00    +0.560 A 
ATOM     16  N   LIG    1        7.921   5.878   2.033  0.00  0.00    -0.550 NA
BRANCH  15  17
ATOM     17  N   LIG    1        9.549   7.090   3.191  0.00  0.00    -0.590 N 
ATOM     18  C   LIG    1        8.509   7.730   4.000  0.00  0.00    +0.300 C 
ATOM     19  C   LIG    1       10.958   7.426   3.410  0.00  0.00    +0.300 C 
ENDBRANCH  15  17
ENDBRANCH   8  11
BRANCH   1  20
ATOM     20  C   LIG    1        3.322   0.821   3.592  0.00  0.00    +0.370 C 
BRANCH  20  23
ATOM     21  C   LIG    1        4.453   1.126   6.493  0.00  0.00    +0.150 C 
ATOM     22  C   LIG    1        4.778   0.017   5.526  0.00  0.00    +0.110 A 
ATOM     23  C   LIG    1        4.290  -0.115   4.271  0.00  0.00    -0.270 A 
ATOM     24  C   LIG    1        4.840  -1.274   3.714  0.00  0.00    +0.260 A 
ATOM     25  N   LIG    1        5.631  -1.818   4.603  0.00  0.00    -0.290 NA
ATOM     26  N   LIG    1        5.612  -1.019   5.753  0.00  0.00    -0.470 N 
ATOM     27  H   LIG    1        6.110  -1.182   6.570  0.00  0.00    +0.440 HD
ENDBRANCH  20  23
ENDBRANCH   1  20
TORSDOF 4
