REMARK  Name = ZINCpe00000MJMek.0
REMARK                            x       y       z     vdW  Elec       q    Type
REMARK                         _______ _______ _______ _____ _____    ______ ____
ROOT
ATOM      1  N   LIG    1       -0.102  -2.307   3.215  0.00  0.00    -0.740 N 
ATOM      2  H   LIG    1       -0.015  -1.347   3.323  0.00  0.00    +0.390 HD
ATOM      3  C   LIG    1       -0.623  -2.814   2.080  0.00  0.00    +0.710 C 
ATOM      4  N   LIG    1       -0.929  -1.994   1.055  0.00  0.00    -0.630 N 
ATOM      5  C   LIG    1       -1.396  -2.533  -0.233  0.00  0.00    +0.280 C 
ATOM      6  C   LIG    1       -0.555  -1.908  -1.352  0.00  0.00    +0.220 C 
ATOM      7  O   LIG    1       -0.573  -0.485  -1.215  0.00  0.00    -0.360 OA
ATOM      8  C   LIG    1        0.007  -0.006   0.001  0.00  0.00    +0.210 C 
ATOM      9  C   LIG    1       -0.805  -0.534   1.189  0.00  0.00    +0.260 C 
ATOM     10  O   LIG    1       -0.818  -4.010   1.981  0.00  0.00    -0.580 OA
ENDROOT
BRANCH   8  11
ATOM     11  C   LIG    1       -0.012   1.501   0.008  0.00  0.00    +0.220 A 
ATOM     12  C   LIG    1        1.175   2.217   0.001  0.00  0.00    -0.130 A 
ATOM     13  C   LIG    1        1.113   3.602   0.007  0.00  0.00    +0.370 A 
ATOM     14  N   LIG    1       -0.069   4.195   0.021  0.00  0.00    -0.560 NA
ATOM     15  C   LIG    1       -1.185   3.481   0.027  0.00  0.00    +0.570 A 
ATOM     16  N   LIG    1       -1.161   2.156   0.016  0.00  0.00    -0.550 NA
BRANCH  15  17
ATOM     17  N   LIG    1       -2.405   4.134   0.042  0.00  0.00    -0.590 N 
ATOM     18  C   LIG    1       -3.650   3.362   0.049  0.00  0.00    +0.300 C 
ATOM     19  C   LIG    1       -2.451   5.598   0.049  0.00  0.00    +0.300 C 
ENDBRANCH  15  17
ENDBRANCH   8  11
BRANCH   1  20
ATOM     20  C   LIG    1        0.333  -3.207   4.286  0.00  0.00    +0.370 C 
BRANCH  20  27
ATOM     21  C   LIG    1       -1.392  -1.734   6.499  0.00  0.00    +0.160 C 
ATOM     22  C   LIG    1        0.113  -1.745   6.413  0.00  0.00    +0.090 A 
ATOM     23  N   LIG    1        0.933  -1.148   7.239  0.00  0.00    -0.290 NA
ATOM     24  N   LIG    1        2.244  -1.400   6.813  0.00  0.00    -0.470 N 
ATOM     25  H   LIG    1        3.054  -1.079   7.239  0.00  0.00    +0.440 HD
ATOM     26  C   LIG    1        2.180  -2.172   5.708  0.00  0.00    +0.270 A 
ATOM     27  C   LIG    1        0.873  -2.395   5.436  0.00  0.00    -0.260 A 
ENDBRANCH  20  27
ENDBRANCH   1  20
TORSDOF 4
