REMARK  Name = ZINCrH00000auzPo.0
REMARK                            x       y       z     vdW  Elec       q    Type
REMARK                         _______ _______ _______ _____ _____    ______ ____
ROOT
ATOM      1  C   LIG    1        2.682  -3.685  -1.493  0.00  0.00    +0.020 C 
ATOM      2  C   LIG    1        2.014  -2.308  -1.467  0.00  0.00    +0.240 C 
ENDROOT
BRANCH   2   3
ATOM      3  N   LIG    1        0.653  -2.416  -1.998  0.00  0.00    -0.720 N 
ATOM      4  H   LIG    1       -0.096  -2.535  -1.393  0.00  0.00    +0.390 HD
ATOM      5  C   LIG    1        0.441  -2.350  -3.327  0.00  0.00    +0.590 C 
ATOM      6  O   LIG    1        1.380  -2.201  -4.086  0.00  0.00    -0.510 OA
BRANCH   5   7
ATOM      7  C   LIG    1       -0.928  -2.458  -3.861  0.00  0.00    -0.200 A 
ATOM      8  C   LIG    1       -2.083  -2.633  -3.151  0.00  0.00    +0.210 A 
ATOM      9  O   LIG    1       -3.107  -2.678  -4.013  0.00  0.00    -0.160 OA
ATOM     10  C   LIG    1       -2.677  -2.548  -5.274  0.00  0.00    -0.000 A 
ATOM     11  C   LIG    1       -3.507  -2.550  -6.535  0.00  0.00    +0.140 C 
ATOM     12  C   LIG    1       -2.665  -1.959  -7.672  0.00  0.00    +0.040 C 
ATOM     13  C   LIG    1       -1.301  -2.654  -7.715  0.00  0.00    -0.010 C 
ATOM     14  C   LIG    1       -0.480  -2.239  -6.487  0.00  0.00    +0.240 C 
ATOM     15  C   LIG    1       -1.339  -2.409  -5.263  0.00  0.00    -0.130 A 
BRANCH  14  16
ATOM     16  O   LIG    1        0.679  -3.067  -6.379  0.00  0.00    -0.540 OA
ATOM     17  H   LIG    1        1.278  -3.006  -7.136  0.00  0.00    +0.370 HD
ENDBRANCH  14  16
ENDBRANCH   5   7
ENDBRANCH   2   3
BRANCH   2  18
ATOM     18  C   LIG    1        1.961  -1.795  -0.026  0.00  0.00    +0.110 C 
BRANCH  18  19
ATOM     19  C   LIG    1        1.415  -0.390  -0.013  0.00  0.00    -0.160 A 
ATOM     20  C   LIG    1        2.133   0.744  -0.014  0.00  0.00    +0.250 A 
ATOM     21  N   LIG    1        1.294   1.826  -0.001  0.00  0.00    -0.590 N 
ATOM     22  H   LIG    1        1.580   2.753   0.001  0.00  0.00    +0.420 HD
ATOM     23  C   LIG    1       -0.017   1.402   0.010  0.00  0.00    +0.110 A 
ATOM     24  C   LIG    1       -1.237   2.070   0.030  0.00  0.00    +0.010 A 
ATOM     25  C   LIG    1       -2.414   1.353   0.033  0.00  0.00    +0.090 A 
ATOM     26  C   LIG    1       -2.396  -0.039   0.025  0.00  0.00    +0.050 A 
ATOM     27  C   LIG    1       -1.198  -0.719   0.010  0.00  0.00    +0.050 A 
ATOM     28  F   LIG    1       -3.559  -0.727   0.033  0.00  0.00    -0.130 F 
ATOM     29  F   LIG    1       -3.597   2.007   0.048  0.00  0.00    -0.130 F 
ATOM     30  C   LIG    1        0.002  -0.004   0.002  0.00  0.00    -0.080 A 
ENDBRANCH  18  19
ENDBRANCH   2  18
TORSDOF 5
