REMARK  Name = ZINCnE000001TyfC.0
REMARK                            x       y       z     vdW  Elec       q    Type
REMARK                         _______ _______ _______ _____ _____    ______ ____
ROOT
ATOM      1  C   LIG    1        4.980   0.978  -0.026  0.00  0.00    +0.210 A 
ATOM      2  C   LIG    1        6.216   1.608   0.002  0.00  0.00    +0.030 A 
ATOM      3  C   LIG    1        6.290   2.984   0.093  0.00  0.00    +0.090 A 
ATOM      4  C   LIG    1        5.133   3.746   0.152  0.00  0.00    -0.120 A 
ATOM      5  C   LIG    1        3.896   3.138   0.119  0.00  0.00    +0.110 A 
ATOM      6 BR   LIG    1        5.253   5.629   0.277  0.00  0.00    -0.050 Br
ATOM      7  C   LIG    1        3.806   1.746   0.027  0.00  0.00    -0.190 A 
ENDROOT
BRANCH   1   9
ATOM      8  C   LIG    1        5.922  -1.108  -0.657  0.00  0.00    +0.520 C 
ATOM      9  N   LIG    1        4.905  -0.410  -0.113  0.00  0.00    -0.680 N 
ATOM     10  H   LIG    1        4.120  -0.875   0.217  0.00  0.00    +0.410 HD
ATOM     11  O   LIG    1        6.854  -0.523  -1.166  0.00  0.00    -0.510 OA
BRANCH   8  12
ATOM     12  C   LIG    1        5.900  -2.615  -0.631  0.00  0.00    +0.090 C 
BRANCH  12  13
ATOM     13  C   LIG    1        7.162  -3.154  -1.308  0.00  0.00    -0.030 C 
BRANCH  13  15
ATOM     14  O   LIG    1        6.203  -5.249  -0.771  0.00  0.00    -0.700 OA
ATOM     15  C   LIG    1        7.141  -4.661  -1.283  0.00  0.00    +0.490 C 
ATOM     16  O   LIG    1        8.061  -5.292  -1.774  0.00  0.00    -0.700 OA
ENDBRANCH  13  15
ENDBRANCH  12  13
ENDBRANCH   8  12
ENDBRANCH   1   9
BRANCH   7  17
ATOM     17  C   LIG    1        2.487   1.089  -0.008  0.00  0.00    +0.450 C 
ATOM     18  O   LIG    1        1.797   1.057   0.993  0.00  0.00    -0.430 OA
BRANCH  17  19
ATOM     19  C   LIG    1        2.004   0.469  -1.259  0.00  0.00    -0.170 A 
ATOM     20  C   LIG    1        0.804  -0.246  -1.270  0.00  0.00    +0.070 A 
ATOM     21  C   LIG    1        0.362  -0.828  -2.440  0.00  0.00    +0.000 A 
ATOM     22  C   LIG    1        1.098  -0.694  -3.604  0.00  0.00    +0.050 A 
ATOM     23  C   LIG    1        2.288   0.013  -3.601  0.00  0.00    +0.000 A 
ATOM     24  C   LIG    1        2.745   0.595  -2.437  0.00  0.00    +0.070 A 
ENDBRANCH  17  19
ENDBRANCH   7  17
TORSDOF 6
