REMARK  Name = ZINCrH000004qjBv.0
REMARK                            x       y       z     vdW  Elec       q    Type
REMARK                         _______ _______ _______ _____ _____    ______ ____
ROOT
ATOM      1  C   LIG    1        3.152   2.686   3.079  0.00  0.00    +0.140 A 
ATOM      2  N   LIG    1        3.187   2.566   1.766  0.00  0.00    -0.400 NA
ATOM      3  C   LIG    1        1.947   2.204   1.404  0.00  0.00    +0.190 A 
ATOM      4  N   LIG    1        1.231   2.115   2.487  0.00  0.00    -0.340 NA
ATOM      5  O   LIG    1        1.902   2.386   3.461  0.00  0.00    +0.110 OA
ENDROOT
BRANCH   3   6
ATOM      6  C   LIG    1        1.471   1.943  -0.002  0.00  0.00    +0.070 C 
ATOM      7  C   LIG    1       -0.019   1.545   0.011  0.00  0.00    +0.050 C 
ATOM      8  C   LIG    1        0.002  -0.004   0.002  0.00  0.00    +0.030 C 
ATOM      9  C   LIG    1        1.189  -0.325  -0.940  0.00  0.00    +0.030 C 
ATOM     10  C   LIG    1        2.239   0.755  -0.606  0.00  0.00    +0.040 C 
BRANCH   6  11
ATOM     11  C   LIG    1        1.670   3.172  -0.851  0.00  0.00    -0.120 A 
ATOM     12  C   LIG    1        2.194   4.322  -0.291  0.00  0.00    +0.080 A 
ATOM     13  C   LIG    1        2.378   5.449  -1.069  0.00  0.00    -0.010 A 
ATOM     14  C   LIG    1        2.037   5.428  -2.411  0.00  0.00    +0.130 A 
ATOM     15  C   LIG    1        1.511   4.277  -2.973  0.00  0.00    -0.040 A 
ATOM     16  F   LIG    1        2.216   6.530  -3.171  0.00  0.00    -0.130 F 
ATOM     17  C   LIG    1        1.333   3.147  -2.194  0.00  0.00    +0.150 A 
ATOM     18  F   LIG    1        0.825   2.022  -2.743  0.00  0.00    -0.120 F 
ENDBRANCH   6  11
ENDBRANCH   3   6
BRANCH   1  21
ATOM     19  N   LIG    1        4.094   3.148   5.294  0.00  0.00    -0.610 N 
ATOM     20  H   LIG    1        3.224   2.951   5.676  0.00  0.00    +0.430 HD
ATOM     21  C   LIG    1        4.279   3.071   3.961  0.00  0.00    +0.630 C 
ATOM     22  O   LIG    1        5.368   3.317   3.483  0.00  0.00    -0.450 OA
BRANCH  19  26
ATOM     23  C   LIG    1        8.554   4.508   7.055  0.00  0.00    +0.200 C 
ATOM     24  C   LIG    1        7.111   4.107   6.889  0.00  0.00    -0.010 A 
ATOM     25  C   LIG    1        6.479   3.827   5.726  0.00  0.00    -0.040 A 
ATOM     26  C   LIG    1        5.154   3.510   6.125  0.00  0.00    +0.240 A 
ATOM     27  N   LIG    1        5.125   3.631   7.426  0.00  0.00    -0.380 NA
ATOM     28  O   LIG    1        6.204   3.956   7.864  0.00  0.00    +0.110 OA
ENDBRANCH  19  26
ENDBRANCH   1  21
TORSDOF 4
