REMARK  Name = ZINCpk000005dWR2.0
REMARK                            x       y       z     vdW  Elec       q    Type
REMARK                         _______ _______ _______ _____ _____    ______ ____
ROOT
ATOM      1  C   LIG    1       -0.062   1.031   2.429  0.00  0.00    +0.190 C 
ENDROOT
BRANCH   1   6
ATOM      2  C   LIG    1       -2.845  -0.734  -2.159  0.00  0.00    +0.190 C 
ATOM      3  N   LIG    1       -2.137  -0.577  -0.882  0.00  0.00    -0.550 NA
ATOM      4  C   LIG    1       -2.870   0.323   0.019  0.00  0.00    +0.180 C 
ATOM      5  C   LIG    1       -2.143   0.397   1.364  0.00  0.00    +0.180 C 
ATOM      6  N   LIG    1       -0.770   0.874   1.151  0.00  0.00    -0.510 NA
ATOM      7  C   LIG    1       -0.037  -0.026   0.249  0.00  0.00    +0.180 C 
ATOM      8  C   LIG    1       -0.764  -0.100  -1.096  0.00  0.00    +0.190 C 
ENDBRANCH   1   6
BRANCH   1   9
ATOM      9  C   LIG    1       -0.758   2.075   3.263  0.00  0.00    -0.090 A 
ATOM     10  C   LIG    1       -1.139   3.275   2.692  0.00  0.00    +0.050 A 
ATOM     11  C   LIG    1       -1.781   4.231   3.457  0.00  0.00    +0.000 A 
ATOM     12  C   LIG    1       -2.033   3.991   4.795  0.00  0.00    +0.010 A 
ATOM     13  C   LIG    1       -1.647   2.794   5.367  0.00  0.00    +0.000 A 
ATOM     14  C   LIG    1       -1.010   1.835   4.601  0.00  0.00    +0.010 A 
ENDBRANCH   1   9
BRANCH   1  15
ATOM     15  C   LIG    1        1.358   1.461   2.167  0.00  0.00    +0.530 C 
ATOM     16  N   LIG    1        2.330   1.147   3.046  0.00  0.00    -0.720 N 
ATOM     17  H   LIG    1        2.115   0.645   3.848  0.00  0.00    +0.400 HD
ATOM     18  O   LIG    1        1.627   2.089   1.165  0.00  0.00    -0.510 OA
BRANCH  16  19
ATOM     19  C   LIG    1        3.711   1.565   2.792  0.00  0.00    +0.330 C 
ATOM     20  C   LIG    1        4.702   0.628   3.518  0.00  0.00    +0.060 C 
ATOM     21  C   LIG    1        5.818   1.607   3.943  0.00  0.00    +0.300 C 
ATOM     22  N   LIG    1        5.173   2.923   4.049  0.00  0.00    -0.480 N 
ATOM     23  C   LIG    1        5.345   4.160   4.570  0.00  0.00    +0.420 A 
ATOM     24  N   LIG    1        4.313   4.893   4.258  0.00  0.00    -0.490 NA
ATOM     25  C   LIG    1        3.452   4.161   3.537  0.00  0.00    +0.180 A 
ATOM     26  C   LIG    1        3.971   2.926   3.398  0.00  0.00    -0.060 A 
ENDBRANCH  16  19
ENDBRANCH   1  15
TORSDOF 4
