REMARK  Name = ZINCqH0000033Cn2.0
REMARK                            x       y       z     vdW  Elec       q    Type
REMARK                         _______ _______ _______ _____ _____    ______ ____
ROOT
ATOM      1  C   LIG    1       -6.570  -3.483   1.673  0.00  0.00    +0.560 C 
ATOM      2  N   LIG    1       -5.400  -2.864   1.419  0.00  0.00    -0.730 N 
ATOM      3  H   LIG    1       -4.835  -2.574   2.153  0.00  0.00    +0.400 HD
ATOM      4  O   LIG    1       -7.278  -3.846   0.754  0.00  0.00    -0.530 OA
ENDROOT
BRANCH   1   7
ATOM      5  C   LIG    1       -8.595  -4.580   4.636  0.00  0.00    -0.130 A 
ATOM      6  C   LIG    1       -8.208  -4.356   3.333  0.00  0.00    +0.150 A 
ATOM      7  C   LIG    1       -6.992  -3.720   3.068  0.00  0.00    -0.180 A 
ATOM      8  C   LIG    1       -6.180  -3.303   4.126  0.00  0.00    +0.090 A 
ATOM      9  C   LIG    1       -6.577  -3.526   5.426  0.00  0.00    -0.080 A 
ATOM     10  C   LIG    1       -7.785  -4.164   5.685  0.00  0.00    +0.160 A 
BRANCH  10  11
ATOM     11  O   LIG    1       -8.173  -4.381   6.968  0.00  0.00    -0.310 OA
ATOM     12  C   LIG    1       -7.292  -3.928   7.998  0.00  0.00    +0.240 C 
ENDBRANCH  10  11
BRANCH   5  13
ATOM     13  C   LIG    1       -9.904  -5.270   4.923  0.00  0.00    +0.260 C 
BRANCH  13  14
ATOM     14  O   LIG    1      -10.550  -5.598   3.692  0.00  0.00    -0.390 OA
BRANCH  14  16
ATOM     15  C   LIG    1      -12.405  -6.560   2.477  0.00  0.00    +0.040 C 
ATOM     16  C   LIG    1      -11.806  -6.260   3.853  0.00  0.00    +0.160 C 
ENDBRANCH  14  16
ENDBRANCH  13  14
ENDBRANCH   5  13
ENDBRANCH   1   7
BRANCH   2  17
ATOM     17  C   LIG    1       -4.981  -2.629   0.035  0.00  0.00    +0.330 C 
BRANCH  17  18
ATOM     18  C   LIG    1       -3.648  -1.927   0.026  0.00  0.00    -0.140 A 
ATOM     19  C   LIG    1       -2.479  -2.665   0.011  0.00  0.00    +0.080 A 
ATOM     20  C   LIG    1       -1.255  -2.024   0.003  0.00  0.00    +0.000 A 
ATOM     21  C   LIG    1       -1.200  -0.637   0.010  0.00  0.00    +0.110 A 
ATOM     22  C   LIG    1       -2.374   0.101   0.031  0.00  0.00    -0.050 A 
ATOM     23  C   LIG    1       -3.595  -0.545   0.034  0.00  0.00    +0.070 A 
BRANCH  21  24
ATOM     24  O   LIG    1        0.002  -0.004   0.002  0.00  0.00    -0.320 OA
BRANCH  24  25
ATOM     25  C   LIG    1       -0.017   1.425   0.010  0.00  0.00    +0.590 C 
ATOM     26  F   LIG    1       -0.672   1.876   1.161  0.00  0.00    -0.200 F 
ATOM     27  F   LIG    1       -0.694   1.888  -1.123  0.00  0.00    -0.200 F 
ENDBRANCH  24  25
ENDBRANCH  21  24
ENDBRANCH  17  18
ENDBRANCH   2  17
TORSDOF 9
