REMARK  Name = ZINCAx0000000j1A.0
REMARK                            x       y       z     vdW  Elec       q    Type
REMARK                         _______ _______ _______ _____ _____    ______ ____
ROOT
ATOM      1  C   LIG    1        2.833  14.670   0.053  0.00  0.00    +0.510 C 
ATOM      2  N   LIG    1        1.776  13.835   0.058  0.00  0.00    -0.510 N 
ATOM      3  H   LIG    1        0.874  14.193   0.068  0.00  0.00    +0.440 HD
ATOM      4  O   LIG    1        3.960  14.222   0.040  0.00  0.00    -0.530 OA
ENDROOT
BRANCH   2   5
ATOM      5  N   LIG    1        1.978  12.448   0.049  0.00  0.00    -0.520 N 
ATOM      6  H   LIG    1        2.879  12.090   0.038  0.00  0.00    +0.440 HD
ATOM      7  C   LIG    1        0.920  11.613   0.054  0.00  0.00    +0.520 C 
ATOM      8  O   LIG    1       -0.206  12.061   0.067  0.00  0.00    -0.510 OA
BRANCH   7   9
ATOM      9  C   LIG    1        1.138  10.122   0.044  0.00  0.00    +0.250 C 
BRANCH   9  10
ATOM     10  O   LIG    1       -0.126   9.456   0.052  0.00  0.00    -0.290 OA
BRANCH  10  11
ATOM     11  C   LIG    1       -0.108   8.097   0.044  0.00  0.00    +0.130 A 
ATOM     12  C   LIG    1       -1.301   7.388   0.051  0.00  0.00    +0.000 A 
ATOM     13  C   LIG    1       -1.286   6.009   0.044  0.00  0.00    +0.070 A 
ATOM     14  C   LIG    1       -0.070   5.327   0.029  0.00  0.00    -0.080 A 
ATOM     15  C   LIG    1        1.126   6.042   0.027  0.00  0.00    +0.060 A 
ATOM     16  C   LIG    1        1.105   7.421   0.030  0.00  0.00    -0.080 A 
BRANCH  14  17
ATOM     17  C   LIG    1       -0.050   3.844   0.022  0.00  0.00    -0.040 A 
ATOM     18  C   LIG    1        1.165   3.161   0.007  0.00  0.00    +0.010 A 
ATOM     19  C   LIG    1        1.177   1.781   0.000  0.00  0.00    +0.000 A 
ATOM     20  C   LIG    1       -0.013   1.076   0.008  0.00  0.00    +0.000 A 
ATOM     21  C   LIG    1       -1.221   1.748   0.017  0.00  0.00    +0.000 A 
ATOM     22  C   LIG    1       -1.246   3.128   0.030  0.00  0.00    +0.020 A 
ENDBRANCH  14  17
ENDBRANCH  10  11
ENDBRANCH   9  10
ENDBRANCH   7   9
ENDBRANCH   2   5
BRANCH   1  23
ATOM     23  C   LIG    1        2.615  16.161   0.063  0.00  0.00    +0.330 C 
BRANCH  23  26
ATOM     24  O   LIG    1        2.938  18.838   0.074  0.00  0.00    -0.530 OA
ATOM     25  C   LIG    1        3.964  18.191   0.061  0.00  0.00    +0.520 C 
ATOM     26  N   LIG    1        3.912  16.844   0.055  0.00  0.00    -0.710 N 
ATOM     27  H   LIG    1        4.732  16.327   0.044  0.00  0.00    +0.420 HD
BRANCH  25  28
ATOM     28  C   LIG    1        5.297  18.893   0.053  0.00  0.00    +0.320 C 
BRANCH  28  29
ATOM     29  N   LIG    1        5.085  20.343   0.063  0.00  0.00    -0.720 N 
ATOM     30  H   LIG    1        4.184  20.701   0.073  0.00  0.00    +0.410 HD
ATOM     31  C   LIG    1        6.143  21.178   0.058  0.00  0.00    +0.560 C 
ATOM     32  O   LIG    1        7.273  20.729   0.045  0.00  0.00    -0.510 OA
BRANCH  31  33
ATOM     33  C   LIG    1        5.930  22.640   0.067  0.00  0.00    -0.130 A 
ATOM     34  C   LIG    1        4.634  23.159   0.076  0.00  0.00    +0.090 A 
ATOM     35  C   LIG    1        4.441  24.524   0.092  0.00  0.00    +0.040 A 
ATOM     36  C   LIG    1        5.529  25.381   0.086  0.00  0.00    +0.000 A 
ATOM     37  C   LIG    1        6.817  24.874   0.071  0.00  0.00    +0.040 A 
ATOM     38 CL   LIG    1        5.277  27.099   0.099  0.00  0.00    -0.050 Cl
ATOM     39  C   LIG    1        7.024  23.509   0.062  0.00  0.00    +0.030 A 
ATOM     40 CL   LIG    1        8.640  22.874   0.043  0.00  0.00    -0.010 Cl
ENDBRANCH  31  33
ENDBRANCH  28  29
ENDBRANCH  25  28
ENDBRANCH  23  26
ENDBRANCH   1  23
TORSDOF 10
