REMARK  Name = ZINCrD00000l6GY5.0
REMARK                            x       y       z     vdW  Elec       q    Type
REMARK                         _______ _______ _______ _____ _____    ______ ____
ROOT
ATOM      1  N   LIG    1        5.607   1.386  -0.198  0.00  0.00    -0.730 N 
ATOM      2  H   LIG    1        5.248   0.770  -0.856  0.00  0.00    +0.400 HD
ATOM      3  C   LIG    1        6.845   1.196   0.298  0.00  0.00    +0.560 C 
ATOM      4  O   LIG    1        7.295   1.968   1.122  0.00  0.00    -0.530 OA
ENDROOT
BRANCH   3   5
ATOM      5  C   LIG    1        7.657   0.048  -0.159  0.00  0.00    -0.140 A 
ATOM      6  C   LIG    1        7.141  -0.844  -1.101  0.00  0.00    +0.040 A 
ATOM      7  C   LIG    1        7.905  -1.911  -1.527  0.00  0.00    +0.000 A 
ATOM      8  C   LIG    1        9.176  -2.103  -1.015  0.00  0.00    +0.050 A 
ATOM      9  C   LIG    1        9.691  -1.226  -0.077  0.00  0.00    -0.120 A 
ATOM     10  C   LIG    1        8.940  -0.152   0.353  0.00  0.00    +0.100 A 
BRANCH   9  11
ATOM     11  C   LIG    1       11.076  -1.443   0.475  0.00  0.00    +0.350 C 
BRANCH  11  12
ATOM     12  N   LIG    1       10.999  -2.289   1.668  0.00  0.00    -0.620 N 
ATOM     13  C   LIG    1       11.076  -3.755   1.651  0.00  0.00    +0.250 C 
ATOM     14  C   LIG    1       10.523  -4.213   3.019  0.00  0.00    +0.040 C 
ATOM     15  C   LIG    1       10.799  -2.973   3.901  0.00  0.00    +0.050 C 
ATOM     16  C   LIG    1       10.855  -1.823   2.921  0.00  0.00    +0.520 C 
ATOM     17  O   LIG    1       10.777  -0.650   3.220  0.00  0.00    -0.520 OA
ENDBRANCH  11  12
ENDBRANCH   9  11
ENDBRANCH   3   5
BRANCH   1  18
ATOM     18  C   LIG    1        4.803   2.524   0.255  0.00  0.00    +0.280 C 
BRANCH  18  20
ATOM     19  C   LIG    1        3.638   2.522  -1.977  0.00  0.00    +0.040 C 
ATOM     20  C   LIG    1        3.449   2.509  -0.458  0.00  0.00    -0.070 C 
ATOM     21  C   LIG    1        2.610   1.291  -0.017  0.00  0.00    +0.090 C 
ATOM     22  C   LIG    1        1.178   1.782   0.000  0.00  0.00    -0.100 A 
ATOM     23  C   LIG    1       -0.013   1.076   0.008  0.00  0.00    +0.010 A 
ATOM     24  C   LIG    1       -1.220   1.748   0.017  0.00  0.00    +0.000 A 
ATOM     25  C   LIG    1       -1.239   3.130   0.031  0.00  0.00    +0.000 A 
ATOM     26  C   LIG    1       -0.052   3.836   0.024  0.00  0.00    +0.010 A 
ATOM     27  C   LIG    1        1.158   3.164   0.008  0.00  0.00    -0.090 A 
ATOM     28  C   LIG    1        2.575   3.696  -0.003  0.00  0.00    +0.100 C 
ENDBRANCH  18  20
ENDBRANCH   1  18
TORSDOF 5
