REMARK  Name = ZINCvU0000000ELi.0
REMARK                            x       y       z     vdW  Elec       q    Type
REMARK                         _______ _______ _______ _____ _____    ______ ____
ROOT
ATOM      1  C   LIG    1        3.517  11.383   0.457  0.00  0.00    -0.690 A 
ATOM      2  C   LIG    1        4.880  11.154   0.439  0.00  0.00    +0.150 A 
ATOM      3  C   LIG    1        5.365   9.861   0.433  0.00  0.00    +0.010 A 
ATOM      4  C   LIG    1        4.482   8.790   0.447  0.00  0.00    +0.200 A 
ATOM      5  C   LIG    1        3.113   9.023   0.461  0.00  0.00    -0.030 A 
ATOM      6  C   LIG    1        2.634  10.318   0.471  0.00  0.00    +0.150 A 
ENDROOT
BRANCH   4   7
ATOM      7  N   LIG    1        4.970   7.478   0.440  0.00  0.00    -0.680 N 
ATOM      8  H   LIG    1        4.489   6.784  -0.038  0.00  0.00    +0.420 HD
ATOM      9  C   LIG    1        6.107   7.179   1.099  0.00  0.00    +0.520 C 
ATOM     10  O   LIG    1        6.752   8.061   1.626  0.00  0.00    -0.510 OA
BRANCH   9  11
ATOM     11  C   LIG    1        6.576   5.750   1.181  0.00  0.00    +0.100 C 
BRANCH  11  12
ATOM     12  C   LIG    1        7.881   5.686   1.978  0.00  0.00    +0.090 C 
BRANCH  12  13
ATOM     13  S   LIG    1        8.446   3.965   2.077  0.00  0.00    -0.080 S 
BRANCH  13  14
ATOM     14  C   LIG    1        9.933   4.090   3.014  0.00  0.00    -0.080 A 
ATOM     15  C   LIG    1       10.371   5.329   3.463  0.00  0.00    +0.010 A 
ATOM     16  C   LIG    1       11.538   5.423   4.196  0.00  0.00    +0.040 A 
ATOM     17  C   LIG    1       12.270   4.286   4.484  0.00  0.00    +0.030 A 
ATOM     18  C   LIG    1       11.838   3.050   4.038  0.00  0.00    +0.050 A 
ATOM     19  C   LIG    1       10.672   2.947   3.304  0.00  0.00    -0.020 A 
ATOM     20 CL   LIG    1       10.129   1.396   2.745  0.00  0.00    -0.050 Cl
ENDBRANCH  13  14
ENDBRANCH  12  13
ENDBRANCH  11  12
ENDBRANCH   9  11
ENDBRANCH   4   7
BRANCH   1  21
ATOM     21  S   LIG    1        2.902  13.034   0.463  0.00  0.00    +2.690 S 
ATOM     22  O   LIG    1        3.978  13.861   0.885  0.00  0.00    -0.950 OA
ATOM     23  O   LIG    1        1.647  12.993   1.128  0.00  0.00    -0.950 OA
BRANCH  21  24
ATOM     24  N   LIG    1        2.586  13.445  -1.109  0.00  0.00    -1.060 N 
ATOM     25  H   LIG    1        3.077  14.168  -1.530  0.00  0.00    +0.420 HD
BRANCH  24  29
ATOM     26  C   LIG    1       -0.322  11.373  -3.260  0.00  0.00    +0.140 A 
ATOM     27  C   LIG    1       -0.699  12.292  -2.293  0.00  0.00    +0.000 A 
ATOM     28  C   LIG    1        0.264  12.979  -1.579  0.00  0.00    +0.080 A 
ATOM     29  C   LIG    1        1.610  12.749  -1.831  0.00  0.00    +0.080 A 
ATOM     30  C   LIG    1        1.987  11.833  -2.804  0.00  0.00    +0.060 A 
ATOM     31  C   LIG    1        1.023  11.143  -3.513  0.00  0.00    -0.070 A 
BRANCH  26  33
ATOM     32  C   LIG    1       -0.810   9.764  -4.943  0.00  0.00    +0.250 C 
ATOM     33  O   LIG    1       -1.270  10.696  -3.962  0.00  0.00    -0.310 OA
ENDBRANCH  26  33
ENDBRANCH  24  29
ENDBRANCH  21  24
ENDBRANCH   1  21
TORSDOF 9
