REMARK  Name = ZINCrH000004qk21.0
REMARK                            x       y       z     vdW  Elec       q    Type
REMARK                         _______ _______ _______ _____ _____    ______ ____
ROOT
ATOM      1  N   LIG    1        3.587   2.109  -0.020  0.00  0.00    -0.670 N 
ATOM      2  H   LIG    1        3.584   3.077  -0.082  0.00  0.00    +0.420 HD
ATOM      3  C   LIG    1        4.756   1.444   0.067  0.00  0.00    +0.520 C 
ATOM      4  O   LIG    1        4.765   0.231   0.061  0.00  0.00    -0.500 OA
ENDROOT
BRANCH   1  12
ATOM      5  C   LIG    1       -2.510  -0.163   0.639  0.00  0.00    +0.120 C 
ATOM      6  C   LIG    1       -1.276  -0.720  -0.021  0.00  0.00    +0.030 A 
ATOM      7  C   LIG    1       -1.301  -1.929  -0.641  0.00  0.00    -0.100 A 
ATOM      8  C   LIG    1       -0.132  -2.429  -1.252  0.00  0.00    +0.510 A 
ATOM      9  O   LIG    1        1.018  -1.736  -1.246  0.00  0.00    -0.270 OA
ATOM     10  C   LIG    1        1.112  -0.532  -0.643  0.00  0.00    +0.170 A 
ATOM     11  C   LIG    1        2.309   0.167  -0.641  0.00  0.00    +0.020 A 
ATOM     12  C   LIG    1        2.382   1.406  -0.022  0.00  0.00    +0.200 A 
ATOM     13  C   LIG    1        1.260   1.954   0.600  0.00  0.00    -0.020 A 
ATOM     14  C   LIG    1        0.075   1.278   0.608  0.00  0.00    +0.110 A 
ATOM     15  O   LIG    1       -0.169  -3.514  -1.804  0.00  0.00    -0.460 OA
ATOM     16  C   LIG    1       -0.016   0.027  -0.013  0.00  0.00    -0.170 A 
ENDBRANCH   1  12
BRANCH   3  17
ATOM     17  C   LIG    1        6.051   2.206   0.172  0.00  0.00    +0.080 C 
BRANCH  17  18
ATOM     18  C   LIG    1        7.218   1.220   0.257  0.00  0.00    +0.230 C 
BRANCH  18  19
ATOM     19  C   LIG    1        8.514   1.982   0.362  0.00  0.00    +0.190 A 
ATOM     20  N   LIG    1        9.097   2.374   1.467  0.00  0.00    -0.470 NA
ATOM     21  C   LIG    1       10.225   3.012   1.076  0.00  0.00    +0.240 A 
ATOM     22  N   LIG    1       10.253   2.977  -0.234  0.00  0.00    -0.370 NA
ATOM     23  O   LIG    1        9.279   2.390  -0.655  0.00  0.00    +0.090 OA
BRANCH  21  24
ATOM     24  C   LIG    1       11.232   3.636   1.959  0.00  0.00    -0.140 A 
ATOM     25  C   LIG    1       12.349   4.267   1.543  0.00  0.00    +0.060 A 
ATOM     26  C   LIG    1       13.136   4.774   2.554  0.00  0.00    +0.010 A 
ATOM     27  C   LIG    1       12.678   4.554   3.792  0.00  0.00    -0.030 A 
ATOM     28  S   LIG    1       11.163   3.664   3.716  0.00  0.00    +0.190 S 
ENDBRANCH  21  24
ENDBRANCH  18  19
ENDBRANCH  17  18
ENDBRANCH   3  17
TORSDOF 5
