REMARK  Name = ZINCrH000004v9Jt.0
REMARK                            x       y       z     vdW  Elec       q    Type
REMARK                         _______ _______ _______ _____ _____    ______ ____
ROOT
ATOM      1  O   LIG    1       -4.183   2.716  -1.340  0.00  0.00    -0.490 OA
ATOM      2  C   LIG    1       -3.718   3.092  -0.285  0.00  0.00    +0.540 C 
ATOM      3  N   LIG    1       -2.458   2.755   0.054  0.00  0.00    -0.670 N 
ATOM      4  H   LIG    1       -2.113   2.988   0.930  0.00  0.00    +0.410 HD
ENDROOT
BRANCH   3   5
ATOM      5  C   LIG    1       -1.647   2.067  -0.858  0.00  0.00    +0.190 A 
ATOM      6  C   LIG    1       -1.817   2.262  -2.222  0.00  0.00    +0.050 A 
ATOM      7  C   LIG    1       -1.021   1.581  -3.123  0.00  0.00    +0.090 A 
ATOM      8  C   LIG    1       -0.044   0.711  -2.668  0.00  0.00    +0.000 A 
ATOM      9  O   LIG    1        0.860  -0.064  -3.338  0.00  0.00    -0.290 OA
ATOM     10  C   LIG    1        1.858  -0.419  -2.364  0.00  0.00    +0.570 C 
ATOM     11  O   LIG    1        1.146  -0.378  -1.113  0.00  0.00    -0.290 OA
ATOM     12  F   LIG    1        2.351  -1.706  -2.607  0.00  0.00    -0.120 F 
ATOM     13  F   LIG    1        2.901   0.513  -2.366  0.00  0.00    -0.150 F 
ATOM     14  C   LIG    1        0.132   0.517  -1.300  0.00  0.00    +0.050 A 
ATOM     15  C   LIG    1       -0.669   1.196  -0.398  0.00  0.00    +0.030 A 
ENDBRANCH   3   5
BRANCH   2  16
ATOM     16  C   LIG    1       -4.550   3.936   0.646  0.00  0.00    +0.230 C 
ATOM     17  C   LIG    1       -5.116   5.137  -0.117  0.00  0.00    +0.040 C 
ATOM     18  C   LIG    1       -6.072   5.911   0.795  0.00  0.00    +0.030 C 
ATOM     19  C   LIG    1       -7.235   5.005   1.208  0.00  0.00    +0.010 C 
ATOM     20  C   LIG    1       -6.689   3.804   1.987  0.00  0.00    +0.270 C 
ATOM     21  N   LIG    1       -5.665   3.137   1.172  0.00  0.00    -0.600 N 
ATOM     22  C   LIG    1       -5.748   1.817   0.910  0.00  0.00    +0.590 C 
ATOM     23  O   LIG    1       -4.923   1.287   0.190  0.00  0.00    -0.490 OA
BRANCH  22  24
ATOM     24  C   LIG    1       -6.832   1.021   1.493  0.00  0.00    -0.270 A 
ATOM     25  C   LIG    1       -6.675  -0.153   2.175  0.00  0.00    +0.090 A 
ATOM     26  C   LIG    1       -7.861  -0.687   2.618  0.00  0.00    +0.010 A 
ATOM     27  C   LIG    1       -8.954   0.018   2.302  0.00  0.00    -0.070 A 
ATOM     28  S   LIG    1       -8.543   1.420   1.421  0.00  0.00    +0.220 S 
ENDBRANCH  22  24
ENDBRANCH   2  16
TORSDOF 3
