REMARK  Name = ZINCrD000000CD4p.0
REMARK                            x       y       z     vdW  Elec       q    Type
REMARK                         _______ _______ _______ _____ _____    ______ ____
ROOT
ATOM      1  O   LIG    1        5.606  -0.157  -5.102  0.00  0.00    -0.510 OA
ATOM      2  C   LIG    1        4.613  -0.641  -4.591  0.00  0.00    +0.590 C 
ATOM      3  N   LIG    1        4.296  -0.341  -3.316  0.00  0.00    -0.600 N 
ATOM      4  C   LIG    1        5.178   0.507  -2.499  0.00  0.00    +0.310 C 
ATOM      5  C   LIG    1        5.450  -0.211  -1.173  0.00  0.00    +0.180 C 
ATOM      6  N   LIG    1        4.173  -0.569  -0.541  0.00  0.00    -0.530 NA
ATOM      7  C   LIG    1        3.417  -1.517  -1.370  0.00  0.00    +0.180 C 
ATOM      8  C   LIG    1        3.061  -0.853  -2.704  0.00  0.00    +0.270 C 
ENDROOT
BRANCH   2   9
ATOM      9  C   LIG    1        3.761  -1.550  -5.363  0.00  0.00    -0.220 A 
ATOM     10  C   LIG    1        4.207  -2.551  -6.181  0.00  0.00    +0.110 A 
ATOM     11  C   LIG    1        3.190  -3.255  -6.781  0.00  0.00    +0.130 A 
ATOM     12  C   LIG    1        1.955  -2.841  -6.476  0.00  0.00    -0.210 A 
ATOM     13  S   LIG    1        2.004  -1.524  -5.392  0.00  0.00    +0.360 S 
BRANCH  12  14
ATOM     14  N   LIG    1        0.712  -3.445  -7.007  0.00  0.00    +0.060 N 
ATOM     15  O   LIG    1       -0.372  -3.001  -6.672  0.00  0.00    -0.150 OA
ATOM     16  O   LIG    1        0.774  -4.386  -7.778  0.00  0.00    -0.130 OA
ENDBRANCH  12  14
ENDBRANCH   2   9
BRANCH   6  17
ATOM     17  C   LIG    1        4.386  -1.104   0.810  0.00  0.00    +0.290 C 
BRANCH  17  18
ATOM     18  C   LIG    1        3.059  -1.229   1.515  0.00  0.00    +0.080 A 
ATOM     19  C   LIG    1        2.368  -2.373   1.529  0.00  0.00    -0.070 A 
ATOM     20  S   LIG    1        0.883  -2.110   2.442  0.00  0.00    +0.150 S 
ATOM     21  C   LIG    1        1.361  -0.439   2.729  0.00  0.00    +0.130 A 
ATOM     22  N   LIG    1        2.512  -0.220   2.154  0.00  0.00    -0.440 NA
BRANCH  21  23
ATOM     23  C   LIG    1        0.586   0.551   3.491  0.00  0.00    +0.040 A 
ATOM     24  C   LIG    1       -0.616   0.334   4.096  0.00  0.00    +0.000 A 
ATOM     25  C   LIG    1       -0.989   1.547   4.705  0.00  0.00    -0.050 A 
ATOM     26  C   LIG    1       -0.009   2.437   4.447  0.00  0.00    +0.200 A 
ATOM     27  O   LIG    1        0.942   1.831   3.718  0.00  0.00    -0.150 OA
ENDBRANCH  21  23
ENDBRANCH  17  18
ENDBRANCH   6  17
TORSDOF 5
