REMARK  Name = ZINCpe00000VVGtt.0
REMARK                            x       y       z     vdW  Elec       q    Type
REMARK                         _______ _______ _______ _____ _____    ______ ____
ROOT
ATOM      1  N   LIG    1       -1.463  -4.373   5.540  0.00  0.00    -0.490 N 
ATOM      2  C   LIG    1       -2.899  -4.409   5.228  0.00  0.00    +0.200 C 
ATOM      3  C   LIG    1       -3.114  -3.971   3.777  0.00  0.00    +0.200 C 
ATOM      4  N   LIG    1       -2.571  -2.619   3.590  0.00  0.00    -0.520 NA
ATOM      5  C   LIG    1       -1.135  -2.583   3.902  0.00  0.00    +0.190 C 
ATOM      6  C   LIG    1       -0.920  -3.020   5.353  0.00  0.00    +0.210 C 
ENDROOT
BRANCH   1  12
ATOM      7  C   LIG    1        1.722  -5.391   9.142  0.00  0.00    +0.090 C 
ATOM      8  C   LIG    1        0.314  -5.340   8.608  0.00  0.00    -0.060 A 
ATOM      9  C   LIG    1       -0.741  -5.752   9.402  0.00  0.00    -0.030 A 
ATOM     10  C   LIG    1       -2.035  -5.707   8.916  0.00  0.00    +0.030 A 
ATOM     11  C   LIG    1       -2.278  -5.250   7.636  0.00  0.00    -0.050 A 
ATOM     12  C   LIG    1       -1.221  -4.835   6.835  0.00  0.00    +0.120 A 
ATOM     13  C   LIG    1        0.078  -4.887   7.324  0.00  0.00    -0.020 A 
ENDBRANCH   1  12
BRANCH   4  14
ATOM     14  C   LIG    1       -2.826  -2.132   2.228  0.00  0.00    +0.210 C 
BRANCH  14  15
ATOM     15  C   LIG    1       -2.481  -0.668   2.144  0.00  0.00    +0.520 C 
ATOM     16  N   LIG    1       -2.635  -0.004   0.981  0.00  0.00    -0.730 N 
ATOM     17  H   LIG    1       -2.969  -0.470   0.198  0.00  0.00    +0.400 HD
ATOM     18  O   LIG    1       -2.063  -0.087   3.123  0.00  0.00    -0.510 OA
BRANCH  16  19
ATOM     19  C   LIG    1       -2.300   1.419   0.900  0.00  0.00    +0.190 C 
ATOM     20  C   LIG    1       -0.805   1.619   1.230  0.00  0.00    +0.090 C 
ATOM     21  C   LIG    1       -0.013   1.086   0.008  0.00  0.00    -0.300 C 
ATOM     22  S   LIG    1       -0.976   1.731  -1.411  0.00  0.00    +2.380 S 
ATOM     23  O   LIG    1       -1.109   0.712  -2.393  0.00  0.00    -0.930 OA
ATOM     24  O   LIG    1       -0.475   3.009  -1.778  0.00  0.00    -0.930 OA
ATOM     25  C   LIG    1       -3.152   2.206   1.897  0.00  0.00    +0.060 C 
ATOM     26  C   LIG    1       -2.566   1.934  -0.529  0.00  0.00    -0.290 C 
ENDBRANCH  16  19
ENDBRANCH  14  15
ENDBRANCH   4  14
TORSDOF 4
