REMARK  Name = ZINCAx0000000iZt.0
REMARK                            x       y       z     vdW  Elec       q    Type
REMARK                         _______ _______ _______ _____ _____    ______ ____
ROOT
ATOM      1  C   LIG    1        8.643  -1.086  -2.336  0.00  0.00    +0.540 C 
ATOM      2  N   LIG    1        7.667  -0.568  -3.108  0.00  0.00    -0.600 N 
ATOM      3  C   LIG    1        7.333  -0.996  -4.482  0.00  0.00    +0.220 C 
ATOM      4  C   LIG    1        5.852  -0.588  -4.678  0.00  0.00    +0.180 C 
ATOM      5  C   LIG    1        5.795   0.758  -3.908  0.00  0.00    +0.070 C 
ATOM      6  C   LIG    1        6.754   0.518  -2.723  0.00  0.00    +0.230 C 
ATOM      7  O   LIG    1        8.781  -0.701  -1.194  0.00  0.00    -0.500 OA
ENDROOT
BRANCH   6   8
ATOM      8  C   LIG    1        5.968   0.118  -1.500  0.00  0.00    +0.510 C 
ATOM      9  N   LIG    1        5.062   0.965  -0.975  0.00  0.00    -0.730 N 
ATOM     10  H   LIG    1        4.916   1.833  -1.383  0.00  0.00    +0.400 HD
ATOM     11  O   LIG    1        6.151  -0.967  -0.990  0.00  0.00    -0.510 OA
BRANCH   9  12
ATOM     12  C   LIG    1        4.298   0.576   0.213  0.00  0.00    +0.290 C 
ATOM     13  C   LIG    1        5.111   0.897   1.470  0.00  0.00    +0.040 C 
BRANCH  12  14
ATOM     14  C   LIG    1        2.999   1.339   0.247  0.00  0.00    -0.080 A 
ATOM     15  C   LIG    1        1.836   0.701   0.643  0.00  0.00    +0.030 A 
ATOM     16  C   LIG    1        0.644   1.394   0.676  0.00  0.00    +0.030 A 
ATOM     17  C   LIG    1        0.611   2.740   0.310  0.00  0.00    -0.010 A 
ATOM     18  C   LIG    1        1.787   3.377  -0.088  0.00  0.00    +0.040 A 
ATOM     19  C   LIG    1        2.974   2.673  -0.117  0.00  0.00    +0.020 A 
BRANCH  17  20
ATOM     20  C   LIG    1       -0.665   3.486   0.337  0.00  0.00    -0.190 A 
ATOM     21  C   LIG    1       -0.861   4.707   0.882  0.00  0.00    +0.080 A 
ATOM     22  N   LIG    1       -2.093   5.154   0.774  0.00  0.00    -0.470 NA
ATOM     23  C   LIG    1       -2.948   4.393   0.175  0.00  0.00    +0.220 A 
ATOM     24  C   LIG    1        0.237   5.489   1.555  0.00  0.00    +0.160 C 
ATOM     25  S   LIG    1       -2.199   2.946  -0.341  0.00  0.00    +0.140 S 
ENDBRANCH  17  20
ENDBRANCH  12  14
ENDBRANCH   9  12
ENDBRANCH   6   8
BRANCH   4  26
ATOM     26  O   LIG    1        5.551  -0.398  -6.062  0.00  0.00    -0.550 OA
ATOM     27  H   LIG    1        5.574  -1.211  -6.585  0.00  0.00    +0.390 HD
ENDBRANCH   4  26
BRANCH   1  28
ATOM     28  C   LIG    1        9.562  -2.142  -2.892  0.00  0.00    +0.260 C 
BRANCH  28  29
ATOM     29  C   LIG    1        9.067  -3.526  -2.464  0.00  0.00    -0.070 C 
ATOM     30  C   LIG    1        9.161  -3.653  -0.942  0.00  0.00    +0.040 C 
ATOM     31  C   LIG    1        9.933  -4.603  -3.120  0.00  0.00    +0.050 C 
ATOM     32  C   LIG    1        7.612  -3.704  -2.903  0.00  0.00    +0.040 C 
ENDBRANCH  28  29
BRANCH  28  33
ATOM     33  N   LIG    1       10.918  -1.929  -2.378  0.00  0.00    -1.100 NA
ATOM     34  H   LIG    1       11.072  -1.877  -1.422  0.00  0.00    +0.430 HD
BRANCH  33  35
ATOM     35  S   LIG    1       12.187  -1.777  -3.431  0.00  0.00    +2.680 S 
ATOM     36  O   LIG    1       12.138  -2.911  -4.286  0.00  0.00    -0.950 OA
ATOM     37  O   LIG    1       13.323  -1.446  -2.644  0.00  0.00    -0.960 OA
BRANCH  35  39
ATOM     38  C   LIG    1       12.637   0.678  -4.380  0.00  0.00    +0.240 C 
ATOM     39  C   LIG    1       11.859  -0.374  -4.445  0.00  0.00    -0.590 C 
ENDBRANCH  35  39
ENDBRANCH  33  35
ENDBRANCH  28  33
ENDBRANCH   1  28
TORSDOF 10
