REMARK  Name = ZINCpe000000VIks.0
REMARK                            x       y       z     vdW  Elec       q    Type
REMARK                         _______ _______ _______ _____ _____    ______ ____
ROOT
ATOM      1  N   LIG    1       -1.076   1.699   0.727  0.00  0.00    -0.670 N 
ATOM      2  H   LIG    1       -0.868   2.506   1.224  0.00  0.00    +0.420 HD
ATOM      3  C   LIG    1       -2.222   1.034   0.971  0.00  0.00    +0.610 C 
ATOM      4  O   LIG    1       -2.482   0.023   0.349  0.00  0.00    -0.510 OA
ENDROOT
BRANCH   3   5
ATOM      5  C   LIG    1       -3.166   1.535   1.997  0.00  0.00    +0.240 A 
ATOM      6  N   LIG    1       -4.314   0.970   2.320  0.00  0.00    -0.260 NA
ATOM      7  N   LIG    1       -4.888   1.758   3.326  0.00  0.00    -0.320 N 
ATOM      8  C   LIG    1       -6.048   1.668   4.033  0.00  0.00    +0.370 A 
ATOM      9  C   LIG    1       -6.326   2.613   4.965  0.00  0.00    -0.180 A 
ATOM     10  C   LIG    1       -5.414   3.656   5.177  0.00  0.00    +0.420 A 
ATOM     11  N   LIG    1       -4.303   3.717   4.480  0.00  0.00    -0.440 NA
ATOM     12  C   LIG    1       -4.019   2.789   3.557  0.00  0.00    +0.440 A 
ATOM     13  N   LIG    1       -2.985   2.627   2.744  0.00  0.00    -0.500 NA
BRANCH   9  14
ATOM     14  C   LIG    1       -7.602   2.543   5.765  0.00  0.00    +0.120 C 
BRANCH  14  15
ATOM     15  C   LIG    1       -7.332   1.837   7.095  0.00  0.00    +0.180 C 
BRANCH  15  16
ATOM     16  O   LIG    1       -8.542   1.770   7.853  0.00  0.00    -0.570 OA
ATOM     17  H   LIG    1       -8.445   1.334   8.710  0.00  0.00    +0.390 HD
ENDBRANCH  15  16
ENDBRANCH  14  15
ENDBRANCH   9  14
ENDBRANCH   3   5
BRANCH   1  20
ATOM     18  C   LIG    1        0.945   2.903  -0.933  0.00  0.00    +0.160 C 
ATOM     19  C   LIG    1        1.305   1.677  -0.077  0.00  0.00    -0.090 C 
ATOM     20  C   LIG    1       -0.143   1.203  -0.288  0.00  0.00    +0.250 C 
ATOM     21  C   LIG    1        2.348   0.763  -0.723  0.00  0.00    +0.080 C 
ATOM     22  C   LIG    1        1.633   2.019   1.377  0.00  0.00    +0.050 C 
ATOM     23  C   LIG    1       -0.142   2.031  -1.583  0.00  0.00    -0.110 C 
ATOM     24  C   LIG    1       -1.455   2.776  -1.835  0.00  0.00    +0.040 C 
ATOM     25  C   LIG    1        0.346   1.254  -2.807  0.00  0.00    +0.070 C 
BRANCH  18  27
ATOM     26  C   LIG    1        0.712   5.280  -0.737  0.00  0.00    +0.200 C 
ATOM     27  O   LIG    1        0.427   3.998  -0.175  0.00  0.00    -0.360 OA
ENDBRANCH  18  27
ENDBRANCH   1  20
TORSDOF 6
