REMARK  Name = ZINCpk00000xI6wd.0
REMARK                            x       y       z     vdW  Elec       q    Type
REMARK                         _______ _______ _______ _____ _____    ______ ____
ROOT
ATOM      1  S   LIG    1       -1.821   0.819   2.172  0.00  0.00    +2.710 S 
ATOM      2  O   LIG    1       -2.335   0.030   1.108  0.00  0.00    -0.950 OA
ATOM      3  O   LIG    1       -2.642   1.616   3.015  0.00  0.00    -0.950 OA
ENDROOT
BRANCH   1   4
ATOM      4  C   LIG    1       -0.946  -0.285   3.231  0.00  0.00    -0.750 A 
ATOM      5  C   LIG    1       -0.420  -1.481   2.875  0.00  0.00    +0.330 A 
ATOM      6  N   LIG    1        0.179  -2.036   3.958  0.00  0.00    -0.400 N 
ATOM      7  C   LIG    1        0.027  -1.185   5.029  0.00  0.00    -0.060 A 
ATOM      8  C   LIG    1        0.868  -3.329   3.984  0.00  0.00    +0.340 C 
ATOM      9  C   LIG    1       -0.675  -0.084   4.588  0.00  0.00    +0.110 A 
BRANCH   7  10
ATOM     10  C   LIG    1        0.523  -1.409   6.391  0.00  0.00    +0.600 C 
ATOM     11  O   LIG    1        1.041  -2.470   6.683  0.00  0.00    -0.550 OA
ATOM     12  N   LIG    1        0.405  -0.438   7.319  0.00  0.00    -0.840 N 
ATOM     13  H   LIG    1        0.797  -0.558   8.198  0.00  0.00    +0.410 HD
ATOM     14  H   LIG    1       -0.072   0.379   7.108  0.00  0.00    +0.410 HD
ENDBRANCH   7  10
ENDBRANCH   1   4
BRANCH   1  15
ATOM     15  N   LIG    1       -0.707   1.842   1.501  0.00  0.00    -0.980 NA
BRANCH  15  16
ATOM     16  C   LIG    1       -0.369   3.100   2.172  0.00  0.00    +0.300 C 
ATOM     17  C   LIG    1       -0.627   4.295   1.230  0.00  0.00    +0.050 C 
ATOM     18  C   LIG    1        0.749   4.492   0.559  0.00  0.00    +0.080 C 
ATOM     19  C   LIG    1        1.755   3.950   1.552  0.00  0.00    -0.080 A 
ATOM     20  C   LIG    1        3.123   4.142   1.637  0.00  0.00    +0.010 A 
ATOM     21  C   LIG    1        3.848   3.537   2.645  0.00  0.00    +0.010 A 
ATOM     22  C   LIG    1        3.207   2.737   3.572  0.00  0.00    +0.000 A 
ATOM     23  C   LIG    1        1.841   2.544   3.488  0.00  0.00    +0.030 A 
ATOM     24  C   LIG    1        1.113   3.150   2.478  0.00  0.00    -0.110 A 
ENDBRANCH  15  16
BRANCH  15  25
ATOM     25  C   LIG    1       -0.058   1.490   0.235  0.00  0.00    +0.430 C 
BRANCH  25  27
ATOM     26  C   LIG    1       -1.366   2.617  -1.770  0.00  0.00    +0.040 C 
ATOM     27  C   LIG    1       -0.785   2.117  -0.880  0.00  0.00    -0.210 C 
ENDBRANCH  25  27
ENDBRANCH  15  25
ENDBRANCH   1  15
TORSDOF 6
