REMARK  Name = ZINCpk00000e9Ahd.0
REMARK                            x       y       z     vdW  Elec       q    Type
REMARK                         _______ _______ _______ _____ _____    ______ ____
ROOT
ATOM      1  N   LIG    1        4.469   5.217   0.756  0.00  0.00    -0.530 NA
ATOM      2  C   LIG    1        5.111   3.912   0.961  0.00  0.00    +0.190 C 
ATOM      3  C   LIG    1        4.678   2.952  -0.152  0.00  0.00    +0.290 C 
ATOM      4  N   LIG    1        3.208   2.922  -0.197  0.00  0.00    -0.600 N 
ATOM      5  C   LIG    1        2.487   4.202  -0.271  0.00  0.00    +0.280 C 
ATOM      6  C   LIG    1        2.539   1.752  -0.176  0.00  0.00    +0.590 C 
ATOM      7  O   LIG    1        3.149   0.701  -0.242  0.00  0.00    -0.550 OA
ATOM      8  C   LIG    1        3.006   5.113   0.853  0.00  0.00    +0.170 C 
ENDROOT
BRANCH   6   9
ATOM      9  C   LIG    1        1.076   1.745  -0.075  0.00  0.00    -0.040 A 
ATOM     10  C   LIG    1        0.295   2.720   0.508  0.00  0.00    +0.000 A 
ATOM     11  C   LIG    1       -1.036   2.307   0.387  0.00  0.00    -0.060 A 
ATOM     12  C   LIG    1       -1.045   1.119  -0.262  0.00  0.00    +0.190 A 
ATOM     13  N   LIG    1        0.232   0.764  -0.545  0.00  0.00    -0.400 N 
BRANCH  13  14
ATOM     14  C   LIG    1        0.646  -0.460  -1.236  0.00  0.00    +0.360 C 
BRANCH  14  15
ATOM     15  C   LIG    1        0.680  -1.604  -0.255  0.00  0.00    -0.170 A 
ATOM     16  C   LIG    1       -0.436  -2.407  -0.075  0.00  0.00    +0.070 A 
ATOM     17  C   LIG    1       -0.359  -3.448   0.838  0.00  0.00    -0.040 A 
ATOM     18  C   LIG    1        0.818  -3.648   1.534  0.00  0.00    +0.270 A 
ATOM     19  N   LIG    1        1.860  -2.863   1.337  0.00  0.00    -0.490 NA
ATOM     20  C   LIG    1        1.825  -1.868   0.473  0.00  0.00    +0.310 A 
ENDBRANCH  14  15
ENDBRANCH  13  14
ENDBRANCH   6   9
BRANCH   1  21
ATOM     21  C   LIG    1        4.989   6.215   1.700  0.00  0.00    +0.190 C 
BRANCH  21  22
ATOM     22  C   LIG    1        4.580   5.832   3.123  0.00  0.00    +0.170 C 
BRANCH  22  24
ATOM     23  C   LIG    1        4.463   6.625   5.490  0.00  0.00    +0.010 C 
ATOM     24  C   LIG    1        4.982   6.950   4.088  0.00  0.00    -0.010 C 
ENDBRANCH  22  24
BRANCH  22  25
ATOM     25  O   LIG    1        5.239   4.620   3.499  0.00  0.00    -0.560 OA
ATOM     26  H   LIG    1        6.204   4.676   3.484  0.00  0.00    +0.370 HD
ENDBRANCH  22  25
ENDBRANCH  21  22
ENDBRANCH   1  21
TORSDOF 7
