REMARK  Name = ZINCrH00000No4AD.0
REMARK                            x       y       z     vdW  Elec       q    Type
REMARK                         _______ _______ _______ _____ _____    ______ ____
ROOT
ATOM      1  N   LIG    1       -4.182  -4.668   0.806  0.00  0.00    -0.600 N 
ATOM      2  C   LIG    1       -5.042  -5.089   1.755  0.00  0.00    +0.550 C 
ATOM      3  O   LIG    1       -6.020  -4.419   2.030  0.00  0.00    -0.540 OA
ATOM      4  C   LIG    1       -3.005  -5.473   0.475  0.00  0.00    +0.280 C 
ENDROOT
BRANCH   1   6
ATOM      5  C   LIG    1       -4.417  -3.647  -1.404  0.00  0.00    +0.040 C 
ATOM      6  C   LIG    1       -4.426  -3.404   0.106  0.00  0.00    +0.290 C 
BRANCH   6   7
ATOM      7  C   LIG    1       -3.344  -2.416   0.463  0.00  0.00    -0.100 A 
ATOM      8  C   LIG    1       -2.016  -2.745   0.262  0.00  0.00    +0.050 A 
ATOM      9  C   LIG    1       -1.023  -1.842   0.587  0.00  0.00    +0.030 A 
ATOM     10  C   LIG    1       -1.359  -0.603   1.116  0.00  0.00    +0.150 A 
ATOM     11  C   LIG    1       -2.693  -0.278   1.322  0.00  0.00    +0.000 A 
ATOM     12  C   LIG    1       -3.682  -1.183   0.989  0.00  0.00    +0.060 A 
BRANCH  10  13
ATOM     13  N   LIG    1       -0.353   0.315   1.447  0.00  0.00    -0.330 N 
ATOM     14  C   LIG    1       -0.523   1.547   1.966  0.00  0.00    +0.480 A 
ATOM     15  N   LIG    1        0.659   2.084   2.131  0.00  0.00    -0.540 NA
ATOM     16  C   LIG    1        1.603   1.231   1.732  0.00  0.00    +0.430 A 
ATOM     17  N   LIG    1        1.032   0.134   1.306  0.00  0.00    -0.310 NA
ENDBRANCH  10  13
ENDBRANCH   6   7
ENDBRANCH   1   6
BRANCH   2  18
ATOM     18  C   LIG    1       -4.799  -6.350   2.454  0.00  0.00    -0.060 C 
ATOM     19  C   LIG    1       -5.660  -6.772   3.404  0.00  0.00    +0.120 C 
BRANCH  19  20
ATOM     20  C   LIG    1       -5.416  -8.040   4.106  0.00  0.00    -0.140 A 
ATOM     21  C   LIG    1       -5.148  -9.208   3.379  0.00  0.00    +0.140 A 
ATOM     22  C   LIG    1       -4.914 -10.394   4.048  0.00  0.00    -0.010 A 
ATOM     23  C   LIG    1       -4.956 -10.433   5.431  0.00  0.00    +0.100 A 
ATOM     24  C   LIG    1       -5.226  -9.287   6.157  0.00  0.00    -0.010 A 
ATOM     25  F   LIG    1       -5.112  -9.173   2.029  0.00  0.00    -0.120 F 
ATOM     26  C   LIG    1       -5.456  -8.090   5.506  0.00  0.00    +0.150 A 
ATOM     27  F   LIG    1       -5.719  -6.972   6.216  0.00  0.00    -0.120 F 
ENDBRANCH  19  20
ENDBRANCH   2  18
TORSDOF 5
