REMARK  Name = ZINCkj000018REt5.0
REMARK                            x       y       z     vdW  Elec       q    Type
REMARK                         _______ _______ _______ _____ _____    ______ ____
ROOT
ATOM      1  C   LIG    1        0.772  -0.633   2.327  0.00  0.00    +0.280 C 
ENDROOT
BRANCH   1   2
ATOM      2  C   LIG    1        1.224  -0.317   0.900  0.00  0.00    -0.040 C 
ATOM      3  C   LIG    1        0.002  -0.004   0.002  0.00  0.00    +0.020 C 
ATOM      4  C   LIG    1       -0.019   1.546   0.011  0.00  0.00    +0.220 C 
ATOM      5  O   LIG    1        1.380   1.902  -0.001  0.00  0.00    -0.350 OA
ATOM      6  C   LIG    1        2.055   0.981   0.873  0.00  0.00    +0.260 C 
BRANCH   6   7
ATOM      7  C   LIG    1        3.437   0.693   0.345  0.00  0.00    -0.260 A 
ATOM      8  C   LIG    1        4.537   0.438   1.091  0.00  0.00    +0.260 A 
ATOM      9  N   LIG    1        5.568   0.230   0.246  0.00  0.00    -0.470 N 
ATOM     10  H   LIG    1        6.481   0.024   0.500  0.00  0.00    +0.450 HD
ATOM     11  N   LIG    1        5.088   0.370  -1.063  0.00  0.00    -0.280 NA
ATOM     12  C   LIG    1        3.811   0.647  -1.002  0.00  0.00    +0.270 A 
ENDBRANCH   6   7
ENDBRANCH   1   2
BRANCH   1  13
ATOM     13  N   LIG    1        0.007  -1.887   2.332  0.00  0.00    -0.510 N 
ATOM     14  H   LIG    1        0.589  -2.637   1.990  0.00  0.00    +0.430 HD
ATOM     15  H   LIG    1       -0.802  -1.791   1.737  0.00  0.00    +0.420 HD
BRANCH  13  16
ATOM     16  C   LIG    1       -0.426  -2.191   3.703  0.00  0.00    +0.370 C 
BRANCH  16  23
ATOM     17  C   LIG    1        0.793  -5.116   3.643  0.00  0.00    +0.160 C 
ATOM     18  C   LIG    1       -0.673  -4.769   3.682  0.00  0.00    +0.090 A 
ATOM     19  N   LIG    1       -1.663  -5.624   3.700  0.00  0.00    -0.270 NA
ATOM     20  N   LIG    1       -2.864  -4.903   3.728  0.00  0.00    -0.350 N 
ATOM     21  C   LIG    1       -2.559  -3.588   3.733  0.00  0.00    +0.300 A 
ATOM     22  C   LIG    1       -4.213  -5.475   3.750  0.00  0.00    +0.380 C 
ATOM     23  C   LIG    1       -1.211  -3.478   3.708  0.00  0.00    -0.330 A 
ENDBRANCH  16  23
ENDBRANCH  13  16
ENDBRANCH   1  13
TORSDOF 5
