REMARK  Name = ZINCpk00000KfLol.0
REMARK                            x       y       z     vdW  Elec       q    Type
REMARK                         _______ _______ _______ _____ _____    ______ ____
ROOT
ATOM      1  N   LIG    1        2.586  -6.572  -1.459  0.00  0.00    -0.530 NA
ATOM      2  C   LIG    1        3.850  -5.828  -1.520  0.00  0.00    +0.190 C 
ATOM      3  C   LIG    1        3.939  -4.879  -0.319  0.00  0.00    +0.300 C 
ATOM      4  N   LIG    1        2.728  -4.046  -0.292  0.00  0.00    -0.620 N 
ATOM      5  C   LIG    1        1.420  -4.716  -0.361  0.00  0.00    +0.270 C 
ATOM      6  C   LIG    1        2.813  -2.704  -0.200  0.00  0.00    +0.710 C 
ATOM      7  N   LIG    1        1.694  -1.965  -0.069  0.00  0.00    -0.690 N 
ATOM      8  H   LIG    1        0.834  -2.401   0.037  0.00  0.00    +0.410 HD
ATOM      9  O   LIG    1        3.900  -2.160  -0.237  0.00  0.00    -0.570 OA
ATOM     10  C   LIG    1        1.431  -5.670  -1.565  0.00  0.00    +0.170 C 
ENDROOT
BRANCH   7  11
ATOM     11  C   LIG    1        1.772  -0.567  -0.084  0.00  0.00    +0.150 A 
ATOM     12  C   LIG    1        0.890   0.186   0.682  0.00  0.00    +0.010 A 
ATOM     13  C   LIG    1        0.962   1.567   0.672  0.00  0.00    +0.020 A 
ATOM     14  C   LIG    1        1.910   2.208  -0.098  0.00  0.00    +0.050 A 
ATOM     15  C   LIG    1        2.802   1.460  -0.873  0.00  0.00    -0.150 A 
ATOM     16  C   LIG    1        2.729   0.065  -0.862  0.00  0.00    +0.090 A 
BRANCH  15  17
ATOM     17  C   LIG    1        3.819   2.140  -1.692  0.00  0.00    +0.390 C 
ATOM     18  O   LIG    1        4.595   1.489  -2.359  0.00  0.00    -0.450 OA
ATOM     19  C   LIG    1        3.896   3.645  -1.702  0.00  0.00    +0.080 C 
ENDBRANCH  15  17
ENDBRANCH   7  11
BRANCH   1  20
ATOM     20  C   LIG    1        2.537  -7.614  -2.494  0.00  0.00    +0.200 C 
BRANCH  20  21
ATOM     21  C   LIG    1        2.256  -6.969  -3.853  0.00  0.00    +0.180 C 
BRANCH  21  22
ATOM     22  O   LIG    1        3.363  -6.146  -4.227  0.00  0.00    -0.550 OA
ATOM     23  H   LIG    1        4.200  -6.623  -4.305  0.00  0.00    +0.370 HD
ENDBRANCH  21  22
BRANCH  21  24
ATOM     24  C   LIG    1        2.056  -8.063  -4.904  0.00  0.00    +0.140 C 
BRANCH  24  25
ATOM     25  O   LIG    1        1.680  -7.466  -6.146  0.00  0.00    -0.380 OA
BRANCH  25  27
ATOM     26  C   LIG    1        1.070  -7.660  -8.477  0.00  0.00    +0.040 C 
ATOM     27  C   LIG    1        1.467  -8.406  -7.202  0.00  0.00    +0.160 C 
ENDBRANCH  25  27
ENDBRANCH  24  25
ENDBRANCH  21  24
ENDBRANCH  20  21
ENDBRANCH   1  20
TORSDOF 8
