REMARK  Name = ZINCrD000000A7bj.0
REMARK                            x       y       z     vdW  Elec       q    Type
REMARK                         _______ _______ _______ _____ _____    ______ ____
ROOT
ATOM      1  C   LIG    1       -2.153   1.103  -1.206  0.00  0.00    +0.020 C 
ATOM      2  C   LIG    1       -0.701   1.583  -1.284  0.00  0.00    +0.030 C 
ATOM      3  C   LIG    1        0.061   1.091  -0.052  0.00  0.00    +0.180 C 
ATOM      4  N   LIG    1       -0.580   1.612   1.162  0.00  0.00    -0.540 NA
ATOM      5  C   LIG    1       -1.960   1.126   1.284  0.00  0.00    +0.170 C 
ATOM      6  C   LIG    1       -2.783   1.619   0.091  0.00  0.00    +0.020 C 
ENDROOT
BRANCH   1  15
ATOM      7  O   LIG    1       -1.554  -0.607  -2.721  0.00  0.00    -0.530 OA
ATOM      8  C   LIG    1       -1.524   0.159  -3.661  0.00  0.00    +0.540 C 
ATOM      9  N   LIG    1       -2.244   1.297  -3.626  0.00  0.00    -0.600 N 
ATOM     10  C   LIG    1       -2.295   2.140  -4.837  0.00  0.00    +0.250 C 
ATOM     11  C   LIG    1       -3.711   2.680  -5.109  0.00  0.00    +0.020 C 
ATOM     12  C   LIG    1       -4.736   1.608  -4.835  0.00  0.00    +0.000 C 
ATOM     13  C   LIG    1       -5.209   1.718  -3.389  0.00  0.00    +0.000 C 
ATOM     14  C   LIG    1       -4.354   1.021  -2.416  0.00  0.00    +0.010 C 
ATOM     15  C   LIG    1       -2.936   1.643  -2.404  0.00  0.00    +0.240 C 
BRANCH   8  16
ATOM     16  C   LIG    1       -0.680  -0.162  -4.867  0.00  0.00    -0.080 C 
ATOM     17  C   LIG    1       -1.119  -1.336  -5.744  0.00  0.00    +0.050 C 
ATOM     18  C   LIG    1        0.114  -1.470  -4.846  0.00  0.00    +0.060 C 
ENDBRANCH   8  16
ENDBRANCH   1  15
BRANCH   4  19
ATOM     19  C   LIG    1        0.204   1.274   2.358  0.00  0.00    +0.350 C 
BRANCH  19  20
ATOM     20  C   LIG    1       -0.343   2.024   3.545  0.00  0.00    +0.170 A 
ATOM     21  N   LIG    1       -1.275   1.611   4.355  0.00  0.00    -0.280 NA
ATOM     22  N   LIG    1       -1.490   2.507   5.253  0.00  0.00    -0.290 NA
ATOM     23  C   LIG    1       -0.701   3.523   5.046  0.00  0.00    +0.200 A 
ATOM     24  O   LIG    1        0.045   3.240   3.965  0.00  0.00    -0.210 OA
BRANCH  23  25
ATOM     25  C   LIG    1       -0.635   4.783   5.871  0.00  0.00    +0.050 C 
ATOM     26  C   LIG    1       -1.425   4.812   7.180  0.00  0.00    +0.080 C 
ATOM     27  C   LIG    1       -1.907   5.626   5.977  0.00  0.00    +0.060 C 
ENDBRANCH  23  25
ENDBRANCH  19  20
ENDBRANCH   4  19
TORSDOF 5
