REMARK  Name = ZINCvU0000000EtL.0
REMARK                            x       y       z     vdW  Elec       q    Type
REMARK                         _______ _______ _______ _____ _____    ______ ____
ROOT
ATOM      1  O   LIG    1       -5.465   1.483  -7.228  0.00  0.00    -0.500 OA
ATOM      2  C   LIG    1       -6.391   0.933  -6.663  0.00  0.00    +0.560 C 
ATOM      3  N   LIG    1       -7.408   0.418  -7.382  0.00  0.00    -0.660 N 
ATOM      4  H   LIG    1       -8.172   0.026  -6.930  0.00  0.00    +0.410 HD
ENDROOT
BRANCH   2   5
ATOM      5  C   LIG    1       -6.400   0.828  -5.189  0.00  0.00    -0.120 A 
ATOM      6  C   LIG    1       -7.462   0.197  -4.538  0.00  0.00    +0.020 A 
ATOM      7  C   LIG    1       -7.468   0.100  -3.162  0.00  0.00    +0.040 A 
ATOM      8  C   LIG    1       -6.426   0.627  -2.422  0.00  0.00    +0.030 A 
ATOM      9  C   LIG    1       -5.364   1.258  -3.061  0.00  0.00    +0.140 A 
ATOM     10  C   LIG    1       -5.351   1.365  -4.442  0.00  0.00    +0.100 A 
BRANCH   9  11
ATOM     11  N   LIG    1       -4.312   1.791  -2.307  0.00  0.00    -0.680 N 
ATOM     12  H   LIG    1       -4.492   2.216  -1.454  0.00  0.00    +0.410 HD
ATOM     13  C   LIG    1       -3.047   1.713  -2.767  0.00  0.00    +0.510 C 
ATOM     14  O   LIG    1       -2.810   1.108  -3.791  0.00  0.00    -0.490 OA
BRANCH  13  15
ATOM     15  C   LIG    1       -1.927   2.378  -2.009  0.00  0.00    +0.160 C 
ATOM     16  C   LIG    1       -2.123   3.906  -2.018  0.00  0.00    +0.020 C 
ATOM     17  C   LIG    1       -0.833   4.450  -2.679  0.00  0.00    +0.020 C 
ATOM     18  C   LIG    1        0.157   3.274  -2.476  0.00  0.00    +0.210 C 
ATOM     19  O   LIG    1       -0.671   2.104  -2.651  0.00  0.00    -0.350 OA
ENDBRANCH  13  15
ENDBRANCH   9  11
ENDBRANCH   2   5
BRANCH   3  20
ATOM     20  C   LIG    1       -7.363   0.450  -8.781  0.00  0.00    +0.140 A 
ATOM     21  C   LIG    1       -6.561   1.377  -9.431  0.00  0.00    +0.040 A 
ATOM     22  C   LIG    1       -6.518   1.405 -10.812  0.00  0.00    +0.040 A 
ATOM     23  C   LIG    1       -7.274   0.513 -11.549  0.00  0.00    +0.000 A 
ATOM     24  C   LIG    1       -8.076  -0.414 -10.909  0.00  0.00    +0.040 A 
ATOM     25  C   LIG    1       -8.120  -0.454  -9.525  0.00  0.00    +0.040 A 
BRANCH  25  26
ATOM     26  O   LIG    1       -8.904  -1.368  -8.894  0.00  0.00    -0.240 OA
BRANCH  26  27
ATOM     27  C   LIG    1      -10.082  -0.942  -8.367  0.00  0.00    +0.120 A 
ATOM     28  C   LIG    1      -10.508   0.361  -8.578  0.00  0.00    -0.050 A 
ATOM     29  C   LIG    1      -11.706   0.791  -8.041  0.00  0.00    +0.060 A 
ATOM     30  C   LIG    1      -12.481  -0.075  -7.293  0.00  0.00    +0.000 A 
ATOM     31  C   LIG    1      -12.060  -1.375  -7.080  0.00  0.00    +0.070 A 
ATOM     32  C   LIG    1      -10.865  -1.813  -7.620  0.00  0.00    -0.070 A 
ATOM     33 CL   LIG    1      -10.341  -3.447  -7.360  0.00  0.00    -0.050 Cl
ENDBRANCH  26  27
ENDBRANCH  25  26
ENDBRANCH   3  20
TORSDOF 6
