REMARK  Name = ZINCrg00000SjSy5.0
REMARK                            x       y       z     vdW  Elec       q    Type
REMARK                         _______ _______ _______ _____ _____    ______ ____
ROOT
ATOM      1  C   LIG    1        1.037   5.961  -0.304  0.00  0.00    +0.520 C 
ATOM      2  N   LIG    1       -0.072   5.249  -0.022  0.00  0.00    -0.550 N 
ATOM      3  C   LIG    1       -0.047   3.776   0.003  0.00  0.00    +0.290 C 
ATOM      4  C   LIG    1       -0.866   3.318   1.218  0.00  0.00    +0.170 C 
ATOM      5  O   LIG    1       -2.194   3.834   1.099  0.00  0.00    -0.280 OA
ATOM      6  C   LIG    1       -2.337   5.158   0.825  0.00  0.00    +0.090 A 
ATOM      7  C   LIG    1       -3.536   5.793   1.112  0.00  0.00    +0.020 A 
ATOM      8  C   LIG    1       -3.695   7.136   0.825  0.00  0.00    +0.030 A 
ATOM      9  C   LIG    1       -2.658   7.855   0.260  0.00  0.00    +0.000 A 
ATOM     10  C   LIG    1       -1.456   7.232  -0.024  0.00  0.00    +0.050 A 
ATOM     11  C   LIG    1       -1.294   5.885   0.259  0.00  0.00    +0.070 A 
ATOM     12  O   LIG    1        0.976   7.169  -0.392  0.00  0.00    -0.480 OA
ENDROOT
BRANCH   4  13
ATOM     13  C   LIG    1       -0.912   1.813   1.261  0.00  0.00    +0.530 C 
ATOM     14  O   LIG    1       -1.966   1.233   1.107  0.00  0.00    -0.500 OA
ATOM     15  N   LIG    1        0.219   1.110   1.472  0.00  0.00    -0.850 N 
ATOM     16  H   LIG    1        0.190   0.141   1.501  0.00  0.00    +0.410 HD
ATOM     17  H   LIG    1        1.062   1.574   1.596  0.00  0.00    +0.400 HD
ENDBRANCH   4  13
BRANCH   1  18
ATOM     18  C   LIG    1        2.353   5.256  -0.510  0.00  0.00    +0.270 C 
BRANCH  18  19
ATOM     19  O   LIG    1        3.407   6.239  -0.682  0.00  0.00    -0.320 OA
BRANCH  19  20
ATOM     20  C   LIG    1        4.655   5.770  -0.878  0.00  0.00    +0.530 C 
ATOM     21  O   LIG    1        4.857   4.572  -0.905  0.00  0.00    -0.530 OA
BRANCH  20  27
ATOM     22  C   LIG    1        9.481   6.620  -1.885  0.00  0.00    +0.090 C 
ATOM     23  C   LIG    1        8.103   7.127  -1.546  0.00  0.00    -0.180 A 
ATOM     24  C   LIG    1        7.883   8.482  -1.404  0.00  0.00    +0.100 A 
ATOM     25  C   LIG    1        6.620   8.959  -1.092  0.00  0.00    -0.060 A 
ATOM     26  C   LIG    1        5.568   8.085  -0.920  0.00  0.00    +0.130 A 
ATOM     27  C   LIG    1        5.774   6.710  -1.060  0.00  0.00    -0.220 A 
ATOM     28  C   LIG    1        7.057   6.229  -1.370  0.00  0.00    +0.290 A 
BRANCH  28  29
ATOM     29  N   LIG    1        7.277   4.866  -1.507  0.00  0.00    -0.850 N 
ATOM     30  H   LIG    1        8.145   4.541  -1.795  0.00  0.00    +0.400 HD
ATOM     31  H   LIG    1        6.563   4.237  -1.314  0.00  0.00    +0.420 HD
ENDBRANCH  28  29
ENDBRANCH  20  27
ENDBRANCH  19  20
ENDBRANCH  18  19
ENDBRANCH   1  18
TORSDOF 6
