REMARK  Name = ZINCkj000005fhRN.1
REMARK                            x       y       z     vdW  Elec       q    Type
REMARK                         _______ _______ _______ _____ _____    ______ ____
ROOT
ATOM      1  C   LIG    1       -1.466  -1.250   1.979  0.00  0.00    +0.500 C 
ATOM      2  N   LIG    1       -2.099  -0.453   1.096  0.00  0.00    -0.700 N 
ATOM      3  H   LIG    1       -2.526  -0.838   0.315  0.00  0.00    +0.410 HD
ATOM      4  O   LIG    1       -1.012  -0.781   3.002  0.00  0.00    -0.520 OA
ENDROOT
BRANCH   2   5
ATOM      5  C   LIG    1       -2.144   0.995   1.315  0.00  0.00    +0.180 C 
ATOM      6  C   LIG    1       -2.880   1.657   0.151  0.00  0.00    +0.070 C 
ATOM      7  C   LIG    1       -4.208   0.937  -0.099  0.00  0.00    +0.110 C 
ATOM      8  S   LIG    1       -5.262   1.114   1.371  0.00  0.00    -0.240 S 
ATOM      9  C   LIG    1       -4.175   0.515   2.698  0.00  0.00    +0.100 C 
ATOM     10  C   LIG    1       -2.851   1.281   2.637  0.00  0.00    +0.060 C 
BRANCH   5  11
ATOM     11  C   LIG    1       -0.715   1.538   1.380  0.00  0.00    +0.190 C 
BRANCH  11  12
ATOM     12  O   LIG    1       -0.008   1.163   0.196  0.00  0.00    -0.570 OA
ATOM     13  H   LIG    1        0.907   1.475   0.169  0.00  0.00    +0.390 HD
ENDBRANCH  11  12
ENDBRANCH   5  11
ENDBRANCH   2   5
BRANCH   1  14
ATOM     14  C   LIG    1       -1.322  -2.723   1.697  0.00  0.00    +0.370 C 
BRANCH  14  20
ATOM     15  C   LIG    1       -1.141  -3.819   3.952  0.00  0.00    +0.330 C 
ATOM     16  N   LIG    1       -0.189  -4.324   4.688  0.00  0.00    -0.470 N 
ATOM     17  C   LIG    1        0.979  -4.210   4.040  0.00  0.00    +0.240 C 
ATOM     18  C   LIG    1        0.742  -3.617   2.855  0.00  0.00    +0.250 C 
ATOM     19  H   LIG    1       -0.309  -4.719   5.566  0.00  0.00    +0.460 HD
ATOM     20  N   LIG    1       -0.602  -3.363   2.800  0.00  0.00    -0.390 N 
BRANCH  15  22
ATOM     21  C   LIG    1       -2.976  -4.998   5.131  0.00  0.00    +0.080 C 
ATOM     22  C   LIG    1       -2.600  -3.753   4.325  0.00  0.00    +0.080 C 
ATOM     23  C   LIG    1       -2.855  -2.503   5.168  0.00  0.00    +0.080 C 
ENDBRANCH  15  22
ENDBRANCH  14  20
ENDBRANCH   1  14
TORSDOF 6
