REMARK  Name = ZINCqH0000003tAO.0
REMARK                            x       y       z     vdW  Elec       q    Type
REMARK                         _______ _______ _______ _____ _____    ______ ____
ROOT
ATOM      1  N   LIG    1       -2.306  -2.549   1.638  0.00  0.00    -0.620 N 
ATOM      2  H   LIG    1       -1.698  -2.776   0.917  0.00  0.00    +0.430 HD
ATOM      3  C   LIG    1       -3.349  -1.728   1.408  0.00  0.00    +0.520 C 
ATOM      4  O   LIG    1       -4.109  -1.445   2.310  0.00  0.00    -0.500 OA
ENDROOT
BRANCH   1   8
ATOM      5  C   LIG    1       -1.121  -4.255   4.522  0.00  0.00    +0.040 A 
ATOM      6  C   LIG    1       -2.121  -3.757   5.280  0.00  0.00    -0.070 A 
ATOM      7  S   LIG    1       -3.113  -2.756   4.313  0.00  0.00    +0.300 S 
ATOM      8  C   LIG    1       -2.101  -3.072   2.909  0.00  0.00    +0.250 A 
ATOM      9  N   LIG    1       -1.135  -3.868   3.243  0.00  0.00    -0.460 NA
BRANCH   5  10
ATOM     10  C   LIG    1       -0.093  -5.157   5.063  0.00  0.00    +0.550 C 
ATOM     11  O   LIG    1       -0.124  -5.480   6.234  0.00  0.00    -0.500 OA
BRANCH  10  12
ATOM     12  O   LIG    1        0.883  -5.626   4.260  0.00  0.00    -0.340 OA
BRANCH  12  14
ATOM     13  C   LIG    1        2.883  -6.938   3.804  0.00  0.00    +0.070 C 
ATOM     14  C   LIG    1        1.863  -6.512   4.862  0.00  0.00    +0.200 C 
ENDBRANCH  12  14
ENDBRANCH  10  12
ENDBRANCH   5  10
ENDBRANCH   1   8
BRANCH   3  15
ATOM     15  C   LIG    1       -3.571  -1.160   0.029  0.00  0.00    +0.090 C 
BRANCH  15  16
ATOM     16  C   LIG    1       -4.895  -0.394   0.001  0.00  0.00    +0.060 C 
ATOM     17  C   LIG    1       -6.047  -1.369   0.230  0.00  0.00    +0.020 C 
ATOM     18  C   LIG    1       -7.366  -0.627  -0.015  0.00  0.00    +0.020 C 
ATOM     19  C   LIG    1       -7.484  -0.336  -1.510  0.00  0.00    +0.080 C 
ATOM     20  C   LIG    1       -6.232   0.329  -2.021  0.00  0.00    -0.030 A 
ATOM     21  C   LIG    1       -6.304   0.987  -3.241  0.00  0.00    -0.020 A 
ATOM     22  C   LIG    1       -5.185   1.607  -3.771  0.00  0.00    +0.130 A 
ATOM     23  C   LIG    1       -3.985   1.569  -3.076  0.00  0.00    -0.080 A 
ATOM     24  C   LIG    1       -3.918   0.916  -1.863  0.00  0.00    +0.040 A 
ATOM     25  C   LIG    1       -5.041   0.296  -1.331  0.00  0.00    -0.110 A 
BRANCH  22  26
ATOM     26  O   LIG    1       -5.262   2.250  -4.966  0.00  0.00    -0.320 OA
ATOM     27  C   LIG    1       -4.067   2.867  -5.449  0.00  0.00    +0.250 C 
ENDBRANCH  22  26
ENDBRANCH  15  16
ENDBRANCH   3  15
TORSDOF 7
