REMARK  Name = ZINCrH000004mRAV.0
REMARK                            x       y       z     vdW  Elec       q    Type
REMARK                         _______ _______ _______ _____ _____    ______ ____
ROOT
ATOM      1  S   LIG    1        6.284  -0.452  -1.740  0.00  0.00    +2.700 S 
ATOM      2  O   LIG    1        6.824  -1.469  -0.907  0.00  0.00    -0.930 OA
ATOM      3  O   LIG    1        7.063   0.609  -2.276  0.00  0.00    -0.960 OA
ENDROOT
BRANCH   1   9
ATOM      4  C   LIG    1        4.800  -2.424  -2.915  0.00  0.00    +0.220 A 
ATOM      5  C   LIG    1        4.220  -3.071  -3.997  0.00  0.00    -0.060 A 
ATOM      6  C   LIG    1        4.387  -2.569  -5.272  0.00  0.00    +0.130 A 
ATOM      7  C   LIG    1        5.136  -1.417  -5.473  0.00  0.00    +0.090 A 
ATOM      8  C   LIG    1        5.712  -0.768  -4.389  0.00  0.00    +0.140 A 
ATOM      9  C   LIG    1        5.549  -1.273  -3.115  0.00  0.00    -0.690 A 
BRANCH   7  10
ATOM     10  N   LIG    1        5.306  -0.907  -6.766  0.00  0.00    -0.670 N 
ATOM     11  H   LIG    1        6.131  -0.457  -7.006  0.00  0.00    +0.410 HD
ATOM     12  C   LIG    1        4.322  -1.043  -7.678  0.00  0.00    +0.510 C 
ATOM     13  O   LIG    1        3.256  -1.522  -7.354  0.00  0.00    -0.530 OA
ATOM     14  C   LIG    1        4.548  -0.599  -9.101  0.00  0.00    +0.110 C 
ENDBRANCH   7  10
BRANCH   4  16
ATOM     15  C   LIG    1        3.852  -4.107  -1.528  0.00  0.00    +0.250 C 
ATOM     16  O   LIG    1        4.635  -2.918  -1.660  0.00  0.00    -0.310 OA
ENDBRANCH   4  16
ENDBRANCH   1   9
BRANCH   1  17
ATOM     17  N   LIG    1        5.060   0.256  -0.879  0.00  0.00    -1.100 NA
ATOM     18  H   LIG    1        4.989   1.223  -0.841  0.00  0.00    +0.420 HD
BRANCH  17  19
ATOM     19  C   LIG    1        4.082  -0.577  -0.175  0.00  0.00    +0.310 C 
BRANCH  19  20
ATOM     20  C   LIG    1        2.728  -0.413  -0.816  0.00  0.00    -0.090 A 
ATOM     21  C   LIG    1        1.903  -1.510  -0.981  0.00  0.00    +0.000 A 
ATOM     22  C   LIG    1        0.661  -1.360  -1.568  0.00  0.00    +0.000 A 
ATOM     23  C   LIG    1        0.243  -0.111  -1.990  0.00  0.00    +0.000 A 
ATOM     24  C   LIG    1        1.067   0.986  -1.824  0.00  0.00    +0.000 A 
ATOM     25  C   LIG    1        2.310   0.835  -1.238  0.00  0.00    +0.010 A 
ENDBRANCH  19  20
BRANCH  19  26
ATOM     26  C   LIG    1        4.008  -0.148   1.292  0.00  0.00    +0.040 C 
BRANCH  26  27
ATOM     27  C   LIG    1        5.344  -0.442   1.977  0.00  0.00    -0.030 C 
ATOM     28  C   LIG    1        5.587  -1.953   1.994  0.00  0.00    +0.020 C 
ATOM     29  C   LIG    1        5.307   0.084   3.413  0.00  0.00    +0.010 C 
ENDBRANCH  26  27
ENDBRANCH  19  26
ENDBRANCH  17  19
ENDBRANCH   1  17
TORSDOF 8
