REMARK  Name = ZINCqH0000034J7a.1
REMARK                            x       y       z     vdW  Elec       q    Type
REMARK                         _______ _______ _______ _____ _____    ______ ____
ROOT
ATOM      1  N   LIG    1        0.376   4.748   5.421  0.00  0.00    -0.650 N 
ATOM      2  H   LIG    1        1.002   4.146   4.990  0.00  0.00    +0.410 HD
ATOM      3  C   LIG    1        0.760   5.997   5.751  0.00  0.00    +0.560 C 
ATOM      4  O   LIG    1        0.003   6.724   6.364  0.00  0.00    -0.510 OA
ENDROOT
BRANCH   1  10
ATOM      5  C   LIG    1       -1.579   3.445   4.829  0.00  0.00    +0.060 A 
ATOM      6  C   LIG    1       -2.872   3.029   5.108  0.00  0.00    -0.010 A 
ATOM      7  C   LIG    1       -3.509   3.473   6.253  0.00  0.00    +0.000 A 
ATOM      8  C   LIG    1       -2.865   4.340   7.115  0.00  0.00    +0.030 A 
ATOM      9  C   LIG    1       -1.577   4.765   6.841  0.00  0.00    +0.020 A 
ATOM     10  C   LIG    1       -0.929   4.320   5.699  0.00  0.00    +0.170 A 
BRANCH   5  15
ATOM     11  C   LIG    1       -0.036   1.067   0.022  0.00  0.00    +0.190 C 
ATOM     12  N   LIG    1       -0.717   1.542   1.234  0.00  0.00    -0.550 NA
ATOM     13  C   LIG    1       -0.841   3.007   1.229  0.00  0.00    +0.180 C 
ATOM     14  C   LIG    1       -1.624   3.454   2.465  0.00  0.00    +0.190 C 
ATOM     15  N   LIG    1       -0.930   2.992   3.675  0.00  0.00    -0.500 N 
ATOM     16  C   LIG    1       -0.806   1.528   3.681  0.00  0.00    +0.190 C 
ATOM     17  C   LIG    1       -0.023   1.080   2.444  0.00  0.00    +0.180 C 
ENDBRANCH   5  15
ENDBRANCH   1  10
BRANCH   3  18
ATOM     18  C   LIG    1        2.103   6.482   5.370  0.00  0.00    -0.140 A 
ATOM     19  C   LIG    1        2.978   5.648   4.671  0.00  0.00    +0.090 A 
ATOM     20  C   LIG    1        4.228   6.109   4.314  0.00  0.00    +0.030 A 
ATOM     21  C   LIG    1        4.620   7.391   4.655  0.00  0.00    +0.100 A 
ATOM     22  C   LIG    1        3.759   8.221   5.351  0.00  0.00    -0.190 A 
ATOM     23  C   LIG    1        2.505   7.775   5.710  0.00  0.00    +0.140 A 
BRANCH  22  24
ATOM     24  C   LIG    1        4.195   9.617   5.719  0.00  0.00    +0.510 C 
ATOM     25  F   LIG    1        3.077  10.456   5.767  0.00  0.00    -0.170 F 
ATOM     26  F   LIG    1        5.095  10.092   4.760  0.00  0.00    -0.170 F 
ATOM     27  F   LIG    1        4.816   9.596   6.972  0.00  0.00    -0.170 F 
ENDBRANCH  22  24
ENDBRANCH   3  18
TORSDOF 4
