REMARK  Name = ZINCqH0000004U5o.0
REMARK                            x       y       z     vdW  Elec       q    Type
REMARK                         _______ _______ _______ _____ _____    ______ ____
ROOT
ATOM      1  C   LIG    1        0.672  -0.491  -1.297  0.00  0.00    +0.340 C 
ATOM      2  C   LIG    1        0.425   0.041   0.118  0.00  0.00    +0.030 C 
ATOM      3  C   LIG    1        0.448   1.571   0.096  0.00  0.00    +0.020 C 
ATOM      4  C   LIG    1        1.824   2.055  -0.369  0.00  0.00    +0.010 C 
ATOM      5  C   LIG    1        2.087   1.546  -1.790  0.00  0.00    +0.260 C 
ATOM      6  N   LIG    1        1.924   0.086  -1.807  0.00  0.00    -0.620 N 
ATOM      7  C   LIG    1        2.903  -0.709  -2.281  0.00  0.00    +0.710 C 
ATOM      8  N   LIG    1        4.078  -0.173  -2.669  0.00  0.00    -0.750 N 
ATOM      9  H   LIG    1        4.245   0.773  -2.539  0.00  0.00    +0.390 HD
ATOM     10  O   LIG    1        2.728  -1.909  -2.359  0.00  0.00    -0.540 OA
ENDROOT
BRANCH   1  15
ATOM     11  N   LIG    1       -0.039  -2.861  -1.883  0.00  0.00    -0.450 N 
ATOM     12  C   LIG    1        0.411  -4.122  -1.600  0.00  0.00    +0.110 A 
ATOM     13  C   LIG    1        1.491  -3.982  -0.807  0.00  0.00    +0.140 A 
ATOM     14  N   LIG    1        1.698  -2.671  -0.616  0.00  0.00    -0.450 NA
ATOM     15  C   LIG    1        0.787  -1.993  -1.260  0.00  0.00    +0.230 A 
BRANCH  11  17
ATOM     16  C   LIG    1       -0.739  -2.240  -4.142  0.00  0.00    +0.020 C 
ATOM     17  C   LIG    1       -1.199  -2.517  -2.709  0.00  0.00    +0.280 C 
ENDBRANCH  11  17
ENDBRANCH   1  15
BRANCH   8  18
ATOM     18  C   LIG    1        5.101  -1.020  -3.287  0.00  0.00    +0.360 C 
BRANCH  18  19
ATOM     19  C   LIG    1        6.308  -0.184  -3.625  0.00  0.00    -0.200 A 
ATOM     20  C   LIG    1        6.403   0.426  -4.864  0.00  0.00    +0.180 A 
ATOM     21  C   LIG    1        7.511   1.197  -5.173  0.00  0.00    -0.040 A 
ATOM     22  C   LIG    1        8.527   1.351  -4.246  0.00  0.00    +0.170 A 
ATOM     23  C   LIG    1        8.434   0.737  -3.008  0.00  0.00    -0.040 A 
ATOM     24  F   LIG    1        9.610   2.100  -4.549  0.00  0.00    -0.120 F 
ATOM     25  F   LIG    1        5.413   0.272  -5.770  0.00  0.00    -0.110 F 
ATOM     26  C   LIG    1        7.325  -0.031  -2.698  0.00  0.00    +0.180 A 
ATOM     27  F   LIG    1        7.235  -0.630  -1.491  0.00  0.00    -0.110 F 
ENDBRANCH  18  19
ENDBRANCH   8  18
TORSDOF 4
