REMARK  Name = ZINCpk00000y6xJU.0
REMARK                            x       y       z     vdW  Elec       q    Type
REMARK                         _______ _______ _______ _____ _____    ______ ____
ROOT
ATOM      1  N   LIG    1       -3.038  -2.946   2.037  0.00  0.00    -0.740 N 
ATOM      2  H   LIG    1       -2.345  -2.486   2.535  0.00  0.00    +0.400 HD
ATOM      3  C   LIG    1       -2.854  -4.223   1.645  0.00  0.00    +0.710 C 
ATOM      4  N   LIG    1       -1.668  -4.827   1.857  0.00  0.00    -0.630 N 
ATOM      5  C   LIG    1       -0.606  -4.150   2.613  0.00  0.00    +0.270 C 
ATOM      6  C   LIG    1       -0.151  -5.067   3.753  0.00  0.00    +0.030 C 
ATOM      7  C   LIG    1        0.257  -6.425   3.177  0.00  0.00    +0.020 C 
ATOM      8  C   LIG    1       -0.948  -7.072   2.490  0.00  0.00    +0.140 C 
ATOM      9  C   LIG    1       -1.415  -6.180   1.341  0.00  0.00    +0.270 C 
ATOM     10  O   LIG    1       -3.757  -4.828   1.101  0.00  0.00    -0.580 OA
ENDROOT
BRANCH   1  15
ATOM     11  C   LIG    1       -4.053  -0.729   1.677  0.00  0.00    -0.010 C 
ATOM     12  C   LIG    1       -4.472  -0.249   3.089  0.00  0.00    +0.020 C 
ATOM     13  C   LIG    1       -5.702  -1.137   3.400  0.00  0.00    +0.010 C 
ATOM     14  C   LIG    1       -5.336  -2.513   2.806  0.00  0.00    +0.010 C 
ATOM     15  C   LIG    1       -4.287  -2.253   1.710  0.00  0.00    +0.270 C 
BRANCH  11  16
ATOM     16  C   LIG    1       -2.576  -0.420   1.423  0.00  0.00    +0.270 C 
BRANCH  16  17
ATOM     17  N   LIG    1       -2.383   1.031   1.367  0.00  0.00    -1.120 NA
ATOM     18  H   LIG    1       -3.149   1.619   1.265  0.00  0.00    +0.420 HD
BRANCH  17  20
ATOM     19  C   LIG    1       -0.013   1.078  -0.017  0.00  0.00    -0.280 C 
ATOM     20  S   LIG    1       -0.859   1.669   1.476  0.00  0.00    +2.610 S 
ATOM     21  O   LIG    1       -1.062   3.074   1.411  0.00  0.00    -0.960 OA
ATOM     22  O   LIG    1       -0.307   1.061   2.635  0.00  0.00    -0.960 OA
ENDBRANCH  17  20
ENDBRANCH  16  17
ENDBRANCH  11  16
ENDBRANCH   1  15
BRANCH   8  23
ATOM     23  O   LIG    1       -0.575  -8.353   1.979  0.00  0.00    -0.360 OA
BRANCH  23  24
ATOM     24  C   LIG    1       -1.647  -9.298   1.941  0.00  0.00    +0.150 C 
ATOM     25  C   LIG    1       -1.472 -10.467   2.924  0.00  0.00    +0.000 C 
ATOM     26  C   LIG    1       -2.024 -11.379   1.815  0.00  0.00    +0.020 C 
ATOM     27  C   LIG    1       -1.516 -10.332   0.810  0.00  0.00    +0.020 C 
ENDBRANCH  23  24
ENDBRANCH   8  23
TORSDOF 6
