REMARK  Name = ZINCpk00000y6urz.0
REMARK                            x       y       z     vdW  Elec       q    Type
REMARK                         _______ _______ _______ _____ _____    ______ ____
ROOT
ATOM      1  N   LIG    1        3.403   0.504   0.451  0.00  0.00    -0.710 N 
ATOM      2  H   LIG    1        3.512  -0.255  -0.144  0.00  0.00    +0.410 HD
ATOM      3  C   LIG    1        4.475   1.236   0.811  0.00  0.00    +0.590 C 
ATOM      4  O   LIG    1        4.338   2.188   1.558  0.00  0.00    -0.540 OA
ENDROOT
BRANCH   3   5
ATOM      5  C   LIG    1        5.808   0.887   0.304  0.00  0.00    -0.230 A 
ATOM      6  C   LIG    1        6.118  -0.143  -0.535  0.00  0.00    +0.290 A 
ATOM      7  N   LIG    1        7.450  -0.148  -0.781  0.00  0.00    -0.470 N 
ATOM      8  C   LIG    1        8.068   0.886  -0.109  0.00  0.00    +0.080 A 
ATOM      9  C   LIG    1        9.390   1.312  -0.026  0.00  0.00    -0.010 A 
ATOM     10  C   LIG    1        9.712   2.407   0.746  0.00  0.00    +0.030 A 
ATOM     11  C   LIG    1        8.729   3.093   1.445  0.00  0.00    -0.010 A 
ATOM     12  C   LIG    1        7.414   2.686   1.375  0.00  0.00    +0.070 A 
ATOM     13  C   LIG    1        8.137  -1.115  -1.641  0.00  0.00    +0.330 C 
ATOM     14  C   LIG    1        7.074   1.585   0.595  0.00  0.00    -0.060 A 
ENDBRANCH   3   5
BRANCH   1  19
ATOM     15  C   LIG    1        1.152  -0.389   0.959  0.00  0.00    +0.150 C 
ATOM     16  C   LIG    1        0.002  -0.004   0.002  0.00  0.00    +0.200 C 
ATOM     17  O   LIG    1       -0.018   1.440   0.010  0.00  0.00    -0.360 OA
ATOM     18  C   LIG    1        1.370   1.839  -0.001  0.00  0.00    +0.210 C 
ATOM     19  C   LIG    1        2.073   0.852   0.957  0.00  0.00    +0.240 C 
BRANCH  15  20
ATOM     20  O   LIG    1        1.850  -1.534   0.468  0.00  0.00    -0.290 OA
BRANCH  20  24
ATOM     21  C   LIG    1        1.449  -6.361   1.098  0.00  0.00    +0.370 C 
ATOM     22  N   LIG    1        1.225  -4.915   1.187  0.00  0.00    -0.370 N 
ATOM     23  C   LIG    1        1.938  -3.954   0.544  0.00  0.00    +0.210 A 
ATOM     24  C   LIG    1        1.417  -2.753   0.896  0.00  0.00    -0.030 A 
ATOM     25  C   LIG    1        0.349  -2.987   1.773  0.00  0.00    +0.190 A 
ATOM     26  N   LIG    1        0.234  -4.279   1.947  0.00  0.00    -0.270 NA
ENDBRANCH  20  24
ENDBRANCH  15  20
ENDBRANCH   1  19
TORSDOF 4
