REMARK  Name = ZINCpk00000KfLmR.0
REMARK                            x       y       z     vdW  Elec       q    Type
REMARK                         _______ _______ _______ _____ _____    ______ ____
ROOT
ATOM      1  N   LIG    1       -3.128   3.653  -1.739  0.00  0.00    -0.740 N 
ATOM      2  H   LIG    1       -3.817   3.043  -2.047  0.00  0.00    +0.390 HD
ATOM      3  C   LIG    1       -3.139   4.940  -2.139  0.00  0.00    +0.710 C 
ATOM      4  N   LIG    1       -4.107   5.379  -2.968  0.00  0.00    -0.530 N 
ATOM      5  H   LIG    1       -4.115   6.305  -3.257  0.00  0.00    +0.450 HD
ATOM      6  O   LIG    1       -2.276   5.704  -1.753  0.00  0.00    -0.560 OA
ENDROOT
BRANCH   1  11
ATOM      7  C   LIG    1       -1.089   0.679   2.274  0.00  0.00    +0.520 C 
ATOM      8  N   LIG    1       -1.071   1.586   1.277  0.00  0.00    -0.620 N 
ATOM      9  C   LIG    1       -0.771   1.177  -0.102  0.00  0.00    +0.290 C 
ATOM     10  C   LIG    1       -1.895   1.667  -1.020  0.00  0.00    +0.020 C 
ATOM     11  C   LIG    1       -2.076   3.175  -0.838  0.00  0.00    +0.260 C 
ATOM     12  C   LIG    1       -2.473   3.472   0.610  0.00  0.00    +0.000 C 
ATOM     13  C   LIG    1       -1.355   3.002   1.548  0.00  0.00    +0.280 C 
ATOM     14  O   LIG    1       -1.247   1.041   3.420  0.00  0.00    -0.530 OA
BRANCH   7  16
ATOM     15  C   LIG    1        0.579  -1.114   1.882  0.00  0.00    +0.050 C 
ATOM     16  C   LIG    1       -0.913  -0.785   1.963  0.00  0.00    -0.030 C 
ATOM     17  C   LIG    1       -1.560  -1.622   3.069  0.00  0.00    +0.050 C 
ENDBRANCH   7  16
ENDBRANCH   1  11
BRANCH   4  18
ATOM     18  N   LIG    1       -5.101   4.498  -3.413  0.00  0.00    -0.530 N 
ATOM     19  H   LIG    1       -5.093   3.572  -3.125  0.00  0.00    +0.420 HD
ATOM     20  C   LIG    1       -6.069   4.938  -4.242  0.00  0.00    +0.570 C 
ATOM     21  O   LIG    1       -6.079   6.098  -4.604  0.00  0.00    -0.520 OA
BRANCH  20  22
ATOM     22  C   LIG    1       -7.117   4.009  -4.712  0.00  0.00    -0.140 A 
ATOM     23  C   LIG    1       -7.105   2.674  -4.303  0.00  0.00    +0.070 A 
ATOM     24  C   LIG    1       -8.088   1.812  -4.739  0.00  0.00    -0.010 A 
ATOM     25  C   LIG    1       -9.083   2.267  -5.592  0.00  0.00    +0.130 A 
ATOM     26  C   LIG    1       -9.097   3.590  -6.005  0.00  0.00    -0.010 A 
ATOM     27  F   LIG    1      -10.041   1.417  -6.022  0.00  0.00    -0.130 F 
ATOM     28  C   LIG    1       -8.121   4.461  -5.571  0.00  0.00    +0.130 A 
ENDBRANCH  20  22
ENDBRANCH   4  18
TORSDOF 4
