REMARK  Name = ZINCyk0000000npy.0
REMARK                            x       y       z     vdW  Elec       q    Type
REMARK                         _______ _______ _______ _____ _____    ______ ____
ROOT
ATOM      1  O   LIG    1       -5.354   3.666  -6.837  0.00  0.00    -0.510 OA
ATOM      2  C   LIG    1       -4.561   2.775  -7.053  0.00  0.00    +0.510 C 
ATOM      3  N   LIG    1       -3.431   2.687  -6.324  0.00  0.00    -0.660 N 
ATOM      4  H   LIG    1       -2.760   2.021  -6.546  0.00  0.00    +0.420 HD
ENDROOT
BRANCH   3   5
ATOM      5  C   LIG    1       -3.224   3.555  -5.246  0.00  0.00    +0.120 A 
ATOM      6  C   LIG    1       -4.302   3.990  -4.487  0.00  0.00    +0.080 A 
ATOM      7  C   LIG    1       -4.095   4.848  -3.424  0.00  0.00    +0.020 A 
ATOM      8  C   LIG    1       -2.816   5.271  -3.115  0.00  0.00    +0.120 A 
ATOM      9  C   LIG    1       -1.740   4.839  -3.869  0.00  0.00    -0.660 A 
ATOM     10  C   LIG    1       -1.941   3.986  -4.936  0.00  0.00    +0.100 A 
BRANCH   9  11
ATOM     11  S   LIG    1       -0.112   5.382  -3.471  0.00  0.00    +2.690 S 
ATOM     12  O   LIG    1        0.655   5.259  -4.661  0.00  0.00    -0.950 OA
ATOM     13  O   LIG    1       -0.258   6.606  -2.764  0.00  0.00    -0.940 OA
BRANCH  11  14
ATOM     14  N   LIG    1        0.519   4.293  -2.394  0.00  0.00    -1.000 NA
ATOM     15  C   LIG    1        1.268   3.115  -2.859  0.00  0.00    +0.260 C 
ATOM     16  C   LIG    1        2.597   3.055  -2.096  0.00  0.00    +0.220 C 
ATOM     17  O   LIG    1        2.338   3.130  -0.692  0.00  0.00    -0.380 OA
ATOM     18  C   LIG    1        1.720   4.349  -0.275  0.00  0.00    +0.220 C 
ATOM     19  C   LIG    1        0.347   4.475  -0.944  0.00  0.00    +0.270 C 
ENDBRANCH  11  14
ENDBRANCH   9  11
ENDBRANCH   3   5
BRANCH   2  20
ATOM     20  C   LIG    1       -4.838   1.765  -8.137  0.00  0.00    +0.320 C 
BRANCH  20  21
ATOM     21  N   LIG    1       -6.119   2.076  -8.778  0.00  0.00    -0.710 N 
ATOM     22  H   LIG    1       -6.638   2.839  -8.479  0.00  0.00    +0.420 HD
BRANCH  21  23
ATOM     23  C   LIG    1       -6.592   1.274  -9.820  0.00  0.00    +0.250 A 
ATOM     24  C   LIG    1       -5.839   0.182 -10.251  0.00  0.00    +0.010 A 
ATOM     25  C   LIG    1       -6.283  -0.620 -11.264  0.00  0.00    +0.110 A 
ATOM     26  C   LIG    1       -7.500  -0.343 -11.889  0.00  0.00    +0.030 A 
ATOM     27  N   LIG    1       -7.973  -1.109 -12.900  0.00  0.00    -0.480 N 
ATOM     28  C   LIG    1       -9.108  -0.861 -13.497  0.00  0.00    +0.470 C 
ATOM     29  C   LIG    1       -9.753  -1.628 -14.640  0.00  0.00    +0.180 C 
ATOM     30  C   LIG    1      -10.813  -0.657 -15.203  0.00  0.00    +0.110 C 
ATOM     31  C   LIG    1      -11.121   0.223 -13.974  0.00  0.00    +0.320 C 
ATOM     32  N   LIG    1       -9.905   0.184 -13.145  0.00  0.00    -0.510 N 
ATOM     33  C   LIG    1       -9.538   1.025 -12.144  0.00  0.00    +0.550 C 
ATOM     34  O   LIG    1      -10.242   1.964 -11.822  0.00  0.00    -0.430 OA
ATOM     35  H   LIG    1       -7.448  -1.870 -13.193  0.00  0.00    +0.450 HD
ATOM     36  C   LIG    1       -8.264   0.766 -11.460  0.00  0.00    -0.090 A 
ATOM     37  C   LIG    1       -7.803   1.572 -10.423  0.00  0.00    +0.050 A 
ENDBRANCH  21  23
ENDBRANCH  20  21
ENDBRANCH   2  20
TORSDOF 6
