REMARK  Name = ZINCrg000000pupl.1
REMARK                            x       y       z     vdW  Elec       q    Type
REMARK                         _______ _______ _______ _____ _____    ______ ____
ROOT
ATOM      1  N   LIG    1       -1.934   3.371   4.951  0.00  0.00    -0.600 N 
ATOM      2  C   LIG    1       -2.581   2.355   5.555  0.00  0.00    +0.530 C 
ATOM      3  O   LIG    1       -2.688   1.285   4.994  0.00  0.00    -0.490 OA
ENDROOT
BRANCH   2   4
ATOM      4  C   LIG    1       -3.171   2.547   6.928  0.00  0.00    +0.170 C 
ATOM      5  C   LIG    1       -4.441   3.395   6.824  0.00  0.00    +0.050 C 
BRANCH   4   6
ATOM      6  O   LIG    1       -3.493   1.274   7.491  0.00  0.00    -0.280 OA
BRANCH   6   7
ATOM      7  C   LIG    1       -3.532   1.191   8.847  0.00  0.00    +0.120 A 
ATOM      8  C   LIG    1       -3.371   2.333   9.618  0.00  0.00    -0.080 A 
ATOM      9  C   LIG    1       -3.417   2.247  10.996  0.00  0.00    +0.050 A 
ATOM     10  C   LIG    1       -3.612   1.022  11.607  0.00  0.00    -0.120 A 
ATOM     11  C   LIG    1       -3.768  -0.118  10.841  0.00  0.00    +0.050 A 
ATOM     12  C   LIG    1       -3.656   0.930  13.111  0.00  0.00    +0.100 C 
ATOM     13  C   LIG    1       -3.728  -0.037   9.463  0.00  0.00    -0.010 A 
ENDBRANCH   6   7
ENDBRANCH   4   6
ENDBRANCH   2   4
BRANCH   1  14
ATOM     14  C   LIG    1       -1.915   4.699   5.570  0.00  0.00    +0.360 C 
BRANCH  14  15
ATOM     15  C   LIG    1       -3.042   5.529   5.012  0.00  0.00    +0.430 C 
ATOM     16  O   LIG    1       -3.784   5.061   4.182  0.00  0.00    -0.480 OA
BRANCH  15  18
ATOM     17  C   LIG    1       -4.326   7.531   4.855  0.00  0.00    +0.280 C 
ATOM     18  O   LIG    1       -3.220   6.790   5.437  0.00  0.00    -0.360 OA
ENDBRANCH  15  18
ENDBRANCH  14  15
ENDBRANCH   1  14
BRANCH   1  19
ATOM     19  C   LIG    1       -1.250   3.148   3.675  0.00  0.00    +0.290 C 
BRANCH  19  20
ATOM     20  C   LIG    1       -2.220   3.418   2.522  0.00  0.00    +0.170 C 
BRANCH  20  21
ATOM     21  N   LIG    1       -1.534   3.195   1.243  0.00  0.00    -0.540 NA
ATOM     22  C   LIG    1       -0.774   1.937   1.265  0.00  0.00    +0.180 C 
ATOM     23  C   LIG    1       -0.013   1.781  -0.053  0.00  0.00    +0.180 C 
ATOM     24  N   LIG    1       -0.966   1.798  -1.172  0.00  0.00    -0.550 NA
ATOM     25  C   LIG    1       -1.725   3.056  -1.194  0.00  0.00    +0.180 C 
ATOM     26  C   LIG    1       -0.280   1.574  -2.452  0.00  0.00    +0.200 C 
ATOM     27  C   LIG    1       -2.487   3.212   0.124  0.00  0.00    +0.180 C 
ENDBRANCH  20  21
ENDBRANCH  19  20
ENDBRANCH   1  19
TORSDOF 9
