REMARK  Name = ZINCtV000002zDz6.0
REMARK                            x       y       z     vdW  Elec       q    Type
REMARK                         _______ _______ _______ _____ _____    ______ ____
ROOT
ATOM      1  C   LIG    1        0.795   0.862  -3.185  0.00  0.00    +0.220 C 
ATOM      2  N   LIG    1        1.698   1.254  -2.095  0.00  0.00    -0.480 N 
ATOM      3  C   LIG    1        2.797   1.942  -2.583  0.00  0.00    +0.120 A 
ATOM      4  C   LIG    1        2.763   3.322  -2.731  0.00  0.00    +0.030 A 
ATOM      5  C   LIG    1        3.848   3.984  -3.270  0.00  0.00    +0.050 A 
ATOM      6  C   LIG    1        4.974   3.283  -3.673  0.00  0.00    +0.000 A 
ATOM      7  C   LIG    1        5.030   1.912  -3.524  0.00  0.00    +0.100 A 
ATOM      8  C   LIG    1        3.952   1.236  -2.960  0.00  0.00    -0.170 A 
ATOM      9  C   LIG    1        3.978  -0.226  -2.764  0.00  0.00    +0.570 C 
ATOM     10  N   LIG    1        3.008  -0.774  -1.998  0.00  0.00    -0.590 N 
ATOM     11  O   LIG    1        4.842  -0.914  -3.274  0.00  0.00    -0.500 OA
ATOM     12  C   LIG    1        2.073   0.095  -1.282  0.00  0.00    +0.470 C 
ENDROOT
BRANCH  10  13
ATOM     13  C   LIG    1        2.897  -2.164  -1.890  0.00  0.00    +0.170 A 
ATOM     14  C   LIG    1        1.998  -2.855  -2.691  0.00  0.00    +0.030 A 
ATOM     15  C   LIG    1        1.895  -4.229  -2.586  0.00  0.00    +0.040 A 
ATOM     16  C   LIG    1        2.679  -4.915  -1.676  0.00  0.00    +0.040 A 
ATOM     17  C   LIG    1        3.572  -4.230  -0.873  0.00  0.00    +0.040 A 
ATOM     18  C   LIG    1        3.684  -2.857  -0.977  0.00  0.00    -0.050 A 
ATOM     19 CL   LIG    1        4.806  -1.997   0.031  0.00  0.00    -0.050 Cl
ENDBRANCH  10  13
BRANCH  12  20
ATOM     20  C   LIG    1        0.833  -0.689  -0.940  0.00  0.00    -0.120 A 
ATOM     21  C   LIG    1        0.927  -2.037  -0.649  0.00  0.00    +0.070 A 
ATOM     22  C   LIG    1       -0.210  -2.758  -0.334  0.00  0.00    -0.020 A 
ATOM     23  C   LIG    1       -1.443  -2.129  -0.310  0.00  0.00    +0.120 A 
ATOM     24  C   LIG    1       -1.535  -0.778  -0.597  0.00  0.00    -0.030 A 
ATOM     25  F   LIG    1       -2.554  -2.833  -0.002  0.00  0.00    -0.140 F 
ATOM     26  C   LIG    1       -0.398  -0.060  -0.916  0.00  0.00    +0.010 A 
BRANCH  26  27
ATOM     27  C   LIG    1       -0.499   1.409  -1.234  0.00  0.00    +0.040 C 
ATOM     28  C   LIG    1       -1.847   2.093  -0.995  0.00  0.00    +0.000 C 
ATOM     29  C   LIG    1       -1.372   1.817  -2.423  0.00  0.00    +0.020 C 
ENDBRANCH  26  27
ENDBRANCH  12  20
TORSDOF 3
