REMARK  Name = ZINCvU0000000Fk4.0
REMARK                            x       y       z     vdW  Elec       q    Type
REMARK                         _______ _______ _______ _____ _____    ______ ____
ROOT
ATOM      1  C   LIG    1        0.254  -5.645   5.091  0.00  0.00    -0.130 A 
ATOM      2  C   LIG    1       -0.305  -6.307   6.184  0.00  0.00    +0.040 A 
ATOM      3  C   LIG    1       -1.586  -6.000   6.594  0.00  0.00    +0.010 A 
ATOM      4  C   LIG    1       -2.324  -5.037   5.927  0.00  0.00    +0.040 A 
ATOM      5  C   LIG    1       -1.785  -4.367   4.847  0.00  0.00    +0.020 A 
ATOM      6  C   LIG    1       -0.496  -4.667   4.414  0.00  0.00    +0.010 A 
ENDROOT
BRANCH   6   7
ATOM      7  C   LIG    1        0.084  -3.954   3.252  0.00  0.00    -0.030 A 
ATOM      8  C   LIG    1       -0.570  -3.975   2.020  0.00  0.00    +0.020 A 
ATOM      9  C   LIG    1       -0.024  -3.310   0.941  0.00  0.00    +0.040 A 
ATOM     10  C   LIG    1        1.169  -2.624   1.079  0.00  0.00    -0.110 A 
ATOM     11  C   LIG    1        1.825  -2.604   2.297  0.00  0.00    +0.020 A 
ATOM     12  C   LIG    1        1.286  -3.260   3.385  0.00  0.00    +0.030 A 
BRANCH  10  13
ATOM     13  C   LIG    1        1.760  -1.900  -0.103  0.00  0.00    +0.360 C 
BRANCH  13  14
ATOM     14  N   LIG    1        1.254  -0.525  -0.137  0.00  0.00    -0.370 N 
ATOM     15  C   LIG    1        2.005   0.596  -0.165  0.00  0.00    +0.220 A 
ATOM     16  C   LIG    1        1.163   1.655  -0.190  0.00  0.00    -0.120 A 
ATOM     17  C   LIG    1       -0.147   1.164  -0.178  0.00  0.00    +0.220 A 
ATOM     18  N   LIG    1       -0.093  -0.143  -0.146  0.00  0.00    -0.290 NA
ENDBRANCH  13  14
ENDBRANCH  10  13
ENDBRANCH   6   7
BRANCH   1  21
ATOM     19  N   LIG    1        2.503  -6.510   5.513  0.00  0.00    -0.730 N 
ATOM     20  H   LIG    1        2.236  -6.686   6.429  0.00  0.00    +0.400 HD
ATOM     21  C   LIG    1        1.624  -5.970   4.647  0.00  0.00    +0.560 C 
ATOM     22  O   LIG    1        1.959  -5.750   3.499  0.00  0.00    -0.510 OA
BRANCH  19  24
ATOM     23  C   LIG    1        4.744  -5.586   5.184  0.00  0.00    +0.040 C 
ATOM     24  C   LIG    1        3.863  -6.832   5.073  0.00  0.00    +0.300 C 
BRANCH  24  25
ATOM     25  C   LIG    1        4.427  -7.925   5.943  0.00  0.00    -0.080 A 
ATOM     26  C   LIG    1        5.186  -8.934   5.380  0.00  0.00    +0.060 A 
ATOM     27  C   LIG    1        5.705  -9.938   6.176  0.00  0.00    +0.030 A 
ATOM     28  C   LIG    1        5.465  -9.933   7.539  0.00  0.00    +0.070 A 
ATOM     29  C   LIG    1        4.704  -8.921   8.104  0.00  0.00    +0.070 A 
ATOM     30  F   LIG    1        4.470  -8.914   9.435  0.00  0.00    -0.120 F 
ATOM     31  F   LIG    1        5.972 -10.914   8.318  0.00  0.00    -0.130 F 
ATOM     32  C   LIG    1        4.191  -7.915   7.305  0.00  0.00    +0.020 A 
ENDBRANCH  24  25
ENDBRANCH  19  24
ENDBRANCH   1  21
TORSDOF 6
