REMARK  Name = ZINCvU00000008eI.0
REMARK                            x       y       z     vdW  Elec       q    Type
REMARK                         _______ _______ _______ _____ _____    ______ ____
ROOT
ATOM      1  C   LIG    1       -7.470   0.008   1.236  0.00  0.00    -0.120 A 
ATOM      2  C   LIG    1       -8.775  -0.485   1.197  0.00  0.00    +0.040 A 
ATOM      3  C   LIG    1       -9.466  -0.507   0.003  0.00  0.00    +0.010 A 
ATOM      4  C   LIG    1       -8.870  -0.036  -1.153  0.00  0.00    +0.040 A 
ATOM      5  C   LIG    1       -7.578   0.460  -1.121  0.00  0.00    +0.020 A 
ATOM      6  C   LIG    1       -6.877   0.487   0.066  0.00  0.00    -0.030 A 
ENDROOT
BRANCH   1   8
ATOM      7  O   LIG    1       -5.551   0.355   2.522  0.00  0.00    -0.510 OA
ATOM      8  C   LIG    1       -6.721   0.029   2.510  0.00  0.00    +0.550 C 
ATOM      9  N   LIG    1       -7.337  -0.315   3.659  0.00  0.00    -0.730 N 
ATOM     10  H   LIG    1       -8.271  -0.575   3.649  0.00  0.00    +0.400 HD
BRANCH   9  11
ATOM     11  C   LIG    1       -6.596  -0.294   4.922  0.00  0.00    +0.270 C 
BRANCH  11  12
ATOM     12  C   LIG    1       -7.520  -0.723   6.064  0.00  0.00    +0.110 C 
BRANCH  12  13
ATOM     13  C   LIG    1       -6.757  -0.702   7.363  0.00  0.00    -0.170 A 
ATOM     14  C   LIG    1       -6.148  -1.745   7.948  0.00  0.00    +0.230 A 
ATOM     15  N   LIG    1       -5.555  -1.344   9.114  0.00  0.00    -0.590 N 
ATOM     16  H   LIG    1       -5.052  -1.921   9.711  0.00  0.00    +0.420 HD
ATOM     17  C   LIG    1       -5.782  -0.002   9.319  0.00  0.00    +0.090 A 
ATOM     18  C   LIG    1       -5.419   0.889  10.323  0.00  0.00    -0.010 A 
ATOM     19  C   LIG    1       -5.809   2.208  10.242  0.00  0.00    +0.030 A 
ATOM     20  C   LIG    1       -6.563   2.659   9.166  0.00  0.00    -0.020 A 
ATOM     21  C   LIG    1       -6.930   1.800   8.168  0.00  0.00    +0.050 A 
ATOM     22  C   LIG    1       -6.545   0.460   8.230  0.00  0.00    -0.100 A 
ENDBRANCH  12  13
ENDBRANCH  11  12
ENDBRANCH   9  11
ENDBRANCH   1   8
BRANCH   6  23
ATOM     23  C   LIG    1       -5.470   1.027   0.100  0.00  0.00    +0.170 C 
BRANCH  23  24
ATOM     24  S   LIG    1       -4.294  -0.344  -0.015  0.00  0.00    +0.020 S 
BRANCH  24  25
ATOM     25  C   LIG    1       -2.776   0.549   0.046  0.00  0.00    +0.270 A 
ATOM     26  N   LIG    1       -2.672   1.852   0.147  0.00  0.00    -0.490 NA
ATOM     27  C   LIG    1       -1.360   2.204   0.166  0.00  0.00    +0.060 A 
ATOM     28  C   LIG    1       -0.698   3.431   0.259  0.00  0.00    +0.060 A 
ATOM     29  C   LIG    1        0.679   3.466   0.260  0.00  0.00    +0.000 A 
ATOM     30  C   LIG    1        1.413   2.293   0.164  0.00  0.00    +0.030 A 
ATOM     31  C   LIG    1        0.773   1.074   0.066  0.00  0.00    +0.010 A 
ATOM     32  C   LIG    1       -0.612   1.020   0.064  0.00  0.00    +0.050 A 
ATOM     33  N   LIG    1       -1.532  -0.012  -0.018  0.00  0.00    -0.590 N 
ATOM     34  H   LIG    1       -1.331  -0.958  -0.096  0.00  0.00    +0.420 HD
ENDBRANCH  24  25
ENDBRANCH  23  24
ENDBRANCH   6  23
TORSDOF 7
