REMARK  Name = ZINCrD00000hQ6t6.0
REMARK                            x       y       z     vdW  Elec       q    Type
REMARK                         _______ _______ _______ _____ _____    ______ ____
ROOT
ATOM      1  C   LIG    1       -3.309   6.330   6.218  0.00  0.00    +0.370 A 
ATOM      2  N   LIG    1       -3.932   6.466   7.353  0.00  0.00    -0.480 NA
ATOM      3  C   LIG    1       -4.305   5.250   7.823  0.00  0.00    +0.250 A 
ATOM      4  N   LIG    1       -4.946   4.834   8.901  0.00  0.00    -0.390 NA
ATOM      5  C   LIG    1       -5.175   3.528   9.071  0.00  0.00    +0.100 A 
ATOM      6  C   LIG    1       -5.861   3.070  10.213  0.00  0.00    +0.060 A 
ATOM      7  C   LIG    1       -6.082   1.739  10.380  0.00  0.00    +0.040 A 
ATOM      8  C   LIG    1       -5.639   0.814   9.435  0.00  0.00    +0.050 A 
ATOM      9  C   LIG    1       -4.974   1.217   8.320  0.00  0.00    +0.050 A 
ATOM     10  C   LIG    1       -4.724   2.587   8.110  0.00  0.00    +0.110 A 
ATOM     11  N   LIG    1       -4.071   2.994   7.016  0.00  0.00    -0.420 NA
ATOM     12  C   LIG    1       -3.844   4.274   6.832  0.00  0.00    +0.230 A 
ATOM     13  N   LIG    1       -3.223   5.021   5.852  0.00  0.00    -0.440 N 
ENDROOT
BRANCH  13  14
ATOM     14  C   LIG    1       -2.617   4.524   4.688  0.00  0.00    +0.090 A 
ATOM     15  C   LIG    1       -1.490   3.719   4.782  0.00  0.00    +0.060 A 
ATOM     16  C   LIG    1       -0.893   3.230   3.636  0.00  0.00    +0.020 A 
ATOM     17  C   LIG    1       -1.421   3.543   2.390  0.00  0.00    +0.130 A 
ATOM     18  C   LIG    1       -2.546   4.353   2.297  0.00  0.00    -0.020 A 
ATOM     19  C   LIG    1       -3.145   4.837   3.442  0.00  0.00    +0.050 A 
BRANCH  17  20
ATOM     20  N   LIG    1       -0.817   3.048   1.230  0.00  0.00    -0.490 N 
ATOM     21  C   LIG    1       -0.731   1.580   1.266  0.00  0.00    +0.180 C 
ATOM     22  C   LIG    1       -0.013   1.086   0.008  0.00  0.00    +0.230 C 
ATOM     23  O   LIG    1       -0.706   1.560  -1.149  0.00  0.00    -0.380 OA
ATOM     24  C   LIG    1       -0.807   2.985  -1.216  0.00  0.00    +0.230 C 
ATOM     25  C   LIG    1       -1.534   3.499   0.029  0.00  0.00    +0.170 C 
ENDBRANCH  17  20
ENDBRANCH  13  14
BRANCH   1  27
ATOM     26  C   LIG    1       -3.820   7.977   4.436  0.00  0.00    +0.060 C 
ATOM     27  C   LIG    1       -2.754   7.476   5.412  0.00  0.00    +0.150 C 
ENDBRANCH   1  27
TORSDOF 3
