REMARK  Name = ZINCrH000004qnEU.0
REMARK                            x       y       z     vdW  Elec       q    Type
REMARK                         _______ _______ _______ _____ _____    ______ ____
ROOT
ATOM      1  C   LIG    1       -0.184   3.001   4.862  0.00  0.00    +0.560 C 
ATOM      2  N   LIG    1        1.161   2.944   4.929  0.00  0.00    -0.600 N 
ATOM      3  C   LIG    1        1.958   2.643   3.732  0.00  0.00    +0.260 C 
ATOM      4  C   LIG    1        3.009   3.750   3.554  0.00  0.00    +0.030 C 
ATOM      5  C   LIG    1        3.829   3.880   4.839  0.00  0.00    +0.000 C 
ATOM      6  C   LIG    1        2.908   4.272   5.997  0.00  0.00    +0.020 C 
ATOM      7  C   LIG    1        1.857   3.176   6.202  0.00  0.00    +0.290 C 
ATOM      8  O   LIG    1       -0.829   3.316   5.843  0.00  0.00    -0.510 OA
ENDROOT
BRANCH   1  12
ATOM      9  C   LIG    1       -0.922   3.776  -0.021  0.00  0.00    +0.160 C 
ATOM     10  C   LIG    1       -1.247   3.035   1.250  0.00  0.00    +0.210 A 
ATOM     11  C   LIG    1       -0.575   3.366   2.416  0.00  0.00    -0.020 A 
ATOM     12  C   LIG    1       -0.875   2.681   3.593  0.00  0.00    +0.010 A 
ATOM     13  C   LIG    1       -1.859   1.675   3.534  0.00  0.00    -0.220 A 
ATOM     14  C   LIG    1       -2.438   0.760   4.517  0.00  0.00    +0.150 A 
ATOM     15  N   LIG    1       -3.320   0.036   3.899  0.00  0.00    -0.270 NA
ATOM     16  O   LIG    1       -3.374   0.409   2.537  0.00  0.00    -0.080 OA
ATOM     17  C   LIG    1       -2.077   0.674   5.978  0.00  0.00    +0.200 C 
ATOM     18  C   LIG    1       -2.491   1.403   2.309  0.00  0.00    +0.300 A 
ATOM     19  N   LIG    1       -2.166   2.093   1.227  0.00  0.00    -0.470 NA
ENDBRANCH   1  12
BRANCH   5  20
ATOM     20  C   LIG    1        4.901   4.955   4.653  0.00  0.00    +0.180 C 
BRANCH  20  21
ATOM     21  O   LIG    1        5.829   4.535   3.651  0.00  0.00    -0.310 OA
BRANCH  21  22
ATOM     22  C   LIG    1        6.852   5.382   3.363  0.00  0.00    +0.130 A 
ATOM     23  C   LIG    1        6.957   6.596   4.027  0.00  0.00    -0.080 A 
ATOM     24  C   LIG    1        8.000   7.453   3.736  0.00  0.00    +0.040 A 
ATOM     25  C   LIG    1        8.934   7.107   2.776  0.00  0.00    -0.040 A 
ATOM     26  C   LIG    1        8.828   5.900   2.110  0.00  0.00    +0.050 A 
ATOM     27  C   LIG    1        7.790   5.037   2.401  0.00  0.00    -0.020 A 
ENDBRANCH  21  22
ENDBRANCH  20  21
ENDBRANCH   5  20
TORSDOF 4
