REMARK  Name = ZINCrH00000tj1hd.0
REMARK                            x       y       z     vdW  Elec       q    Type
REMARK                         _______ _______ _______ _____ _____    ______ ____
ROOT
ATOM      1  C   LIG    1        2.763   5.399   5.969  0.00  0.00    +0.400 A 
ATOM      2  N   LIG    1        3.473   5.743   7.026  0.00  0.00    -0.490 NA
ATOM      3  C   LIG    1        3.061   5.380   8.248  0.00  0.00    +0.160 A 
ATOM      4  C   LIG    1        3.798   5.727   9.392  0.00  0.00    +0.030 A 
ATOM      5  C   LIG    1        3.355   5.345  10.622  0.00  0.00    +0.070 A 
ATOM      6  C   LIG    1        2.178   4.613  10.763  0.00  0.00    +0.020 A 
ATOM      7  C   LIG    1        1.438   4.260   9.676  0.00  0.00    +0.100 A 
ATOM      8  C   LIG    1        1.864   4.636   8.392  0.00  0.00    +0.030 A 
ATOM      9  N   LIG    1        1.155   4.302   7.305  0.00  0.00    -0.380 NA
ATOM     10  C   LIG    1        1.572   4.665   6.117  0.00  0.00    +0.060 A 
ENDROOT
BRANCH   1  11
ATOM     11  N   LIG    1        3.190   5.769   4.703  0.00  0.00    -0.710 N 
ATOM     12  H   LIG    1        2.669   5.522   3.923  0.00  0.00    +0.410 HD
BRANCH  11  14
ATOM     13  C   LIG    1        4.670   6.809   3.057  0.00  0.00    +0.030 C 
ATOM     14  C   LIG    1        4.429   6.534   4.542  0.00  0.00    +0.260 C 
ENDBRANCH  11  14
ENDBRANCH   1  11
BRANCH  10  15
ATOM     15  C   LIG    1        0.771   4.287   4.897  0.00  0.00    -0.240 C 
BRANCH  15  16
ATOM     16  S   LIG    1        0.270   2.548   5.018  0.00  0.00    +2.520 S 
ATOM     17  O   LIG    1        1.400   1.694   4.907  0.00  0.00    -0.900 OA
ATOM     18  O   LIG    1       -0.680   2.375   6.061  0.00  0.00    -0.890 OA
BRANCH  16  19
ATOM     19  C   LIG    1       -0.646   2.251   3.543  0.00  0.00    -0.670 A 
ATOM     20  C   LIG    1       -2.012   2.464   3.522  0.00  0.00    +0.120 A 
ATOM     21  C   LIG    1       -2.731   2.231   2.365  0.00  0.00    +0.010 A 
ATOM     22  C   LIG    1       -2.083   1.789   1.226  0.00  0.00    -0.020 A 
ATOM     23  C   LIG    1       -0.718   1.572   1.248  0.00  0.00    -0.110 A 
ATOM     24  C   LIG    1       -0.013   1.086   0.008  0.00  0.00    +0.100 C 
ATOM     25  C   LIG    1       -2.866   1.540  -0.037  0.00  0.00    +0.100 C 
ATOM     26  C   LIG    1        0.001   1.806   2.405  0.00  0.00    +0.130 A 
ENDBRANCH  16  19
ENDBRANCH  15  16
BRANCH  15  27
ATOM     27  C   LIG    1       -0.426   5.139   4.813  0.00  0.00    +0.210 C 
ATOM     28  N   LIG    1       -1.351   5.796   4.748  0.00  0.00    -0.350 NA
ENDBRANCH  15  27
ENDBRANCH  10  15
TORSDOF 6
