REMARK  Name = ZINCrH000004u3dp.0
REMARK                            x       y       z     vdW  Elec       q    Type
REMARK                         _______ _______ _______ _____ _____    ______ ____
ROOT
ATOM      1  O   LIG    1       -2.217  -0.100   0.022  0.00  0.00    -0.560 OA
ATOM      2  C   LIG    1       -1.156  -0.694   0.009  0.00  0.00    +0.720 C 
ATOM      3  N   LIG    1        0.002  -0.004   0.002  0.00  0.00    -0.640 N 
ATOM      4  H   LIG    1        0.849  -0.478  -0.008  0.00  0.00    +0.420 HD
ATOM      5  N   LIG    1       -1.138  -2.041   0.002  0.00  0.00    -0.740 N 
ATOM      6  H   LIG    1       -0.291  -2.515  -0.009  0.00  0.00    +0.410 HD
ENDROOT
BRANCH   3   7
ATOM      7  C   LIG    1       -0.017   1.391   0.010  0.00  0.00    +0.260 A 
ATOM      8  N   LIG    1        1.018   2.190   0.004  0.00  0.00    -0.390 NA
ATOM      9  O   LIG    1        0.681   3.351   0.014  0.00  0.00    +0.100 OA
ATOM     10  C   LIG    1       -0.654   3.480   0.027  0.00  0.00    -0.010 A 
ATOM     11  C   LIG    1       -1.164   2.228   0.019  0.00  0.00    -0.030 A 
BRANCH  10  12
ATOM     12  C   LIG    1       -1.433   4.770   0.042  0.00  0.00    +0.100 C 
ATOM     13  C   LIG    1       -1.090   5.591  -1.205  0.00  0.00    +0.010 C 
ATOM     14  C   LIG    1       -1.823   6.933  -1.140  0.00  0.00    +0.210 C 
ATOM     15  O   LIG    1       -1.460   7.618   0.060  0.00  0.00    -0.380 OA
ATOM     16  C   LIG    1       -1.801   6.918   1.258  0.00  0.00    +0.210 C 
ATOM     17  C   LIG    1       -1.065   5.577   1.291  0.00  0.00    +0.010 C 
ENDBRANCH  10  12
ENDBRANCH   3   7
BRANCH   5  18
ATOM     18  C   LIG    1       -2.396  -2.791   0.009  0.00  0.00    +0.330 C 
BRANCH  18  19
ATOM     19  C   LIG    1       -2.096  -4.291  -0.002  0.00  0.00    +0.340 C 
ATOM     20  F   LIG    1       -1.348  -4.625   1.132  0.00  0.00    -0.180 F 
ATOM     21  F   LIG    1       -1.369  -4.613  -1.153  0.00  0.00    -0.180 F 
BRANCH  19  22
ATOM     22  C   LIG    1       -3.391  -5.062   0.006  0.00  0.00    -0.100 A 
ATOM     23  C   LIG    1       -3.970  -5.427   1.206  0.00  0.00    +0.030 A 
ATOM     24  C   LIG    1       -5.163  -6.131   1.215  0.00  0.00    +0.140 A 
ATOM     25  C   LIG    1       -5.769  -6.479   0.020  0.00  0.00    -0.010 A 
ATOM     26  C   LIG    1       -5.185  -6.118  -1.182  0.00  0.00    +0.140 A 
ATOM     27  F   LIG    1       -5.775  -6.457  -2.349  0.00  0.00    -0.120 F 
ATOM     28  F   LIG    1       -5.732  -6.482   2.389  0.00  0.00    -0.120 F 
ATOM     29  C   LIG    1       -3.995  -5.409  -1.188  0.00  0.00    +0.030 A 
ENDBRANCH  19  22
ENDBRANCH  18  19
ENDBRANCH   5  18
TORSDOF 5
