REMARK  Name = ZINCpk000000omcu.0
REMARK                            x       y       z     vdW  Elec       q    Type
REMARK                         _______ _______ _______ _____ _____    ______ ____
ROOT
ATOM      1  N   LIG    1       -0.570   0.901   8.378  0.00  0.00    -0.520 NA
ATOM      2  C   LIG    1       -0.255   2.336   8.393  0.00  0.00    +0.200 C 
ENDROOT
BRANCH   1   3
ATOM      3  C   LIG    1       -0.068   0.265   7.153  0.00  0.00    +0.220 C 
BRANCH   3   9
ATOM      4  N   LIG    1       -0.896   0.412   2.419  0.00  0.00    -0.740 N 
ATOM      5  H   LIG    1       -0.203  -0.256   2.294  0.00  0.00    +0.400 HD
ATOM      6  C   LIG    1       -1.189   0.854   3.658  0.00  0.00    +0.690 C 
ATOM      7  N   LIG    1       -0.521   0.367   4.723  0.00  0.00    -0.690 N 
ATOM      8  H   LIG    1        0.171  -0.300   4.598  0.00  0.00    +0.410 HD
ATOM      9  C   LIG    1       -0.815   0.809   5.962  0.00  0.00    +0.510 C 
ATOM     10  O   LIG    1       -1.680   1.644   6.119  0.00  0.00    -0.440 OA
ATOM     11  O   LIG    1       -2.056   1.691   3.815  0.00  0.00    -0.530 OA
BRANCH   4  12
ATOM     12  C   LIG    1       -1.622   0.941   1.262  0.00  0.00    +0.270 C 
BRANCH  12  14
ATOM     13  C   LIG    1       -1.857   0.831  -1.223  0.00  0.00    +0.030 C 
ATOM     14  C   LIG    1       -1.099   0.279  -0.014  0.00  0.00    +0.000 C 
ENDBRANCH  12  14
ENDBRANCH   4  12
ENDBRANCH   3   9
ENDBRANCH   1   3
BRANCH   1  15
ATOM     15  C   LIG    1       -0.040   0.233   9.574  0.00  0.00    +0.210 C 
BRANCH  15  16
ATOM     16  C   LIG    1       -0.769   0.752  10.814  0.00  0.00    +0.180 C 
ATOM     17  C   LIG    1       -0.162   0.123  12.075  0.00  0.00    +0.180 C 
ATOM     18  N   LIG    1       -0.832   0.689  13.251  0.00  0.00    -0.490 N 
ATOM     19  C   LIG    1       -2.225   0.630  13.142  0.00  0.00    +0.040 A 
ATOM     20  C   LIG    1       -2.989   0.729  14.300  0.00  0.00    +0.010 A 
ATOM     21  C   LIG    1       -4.367   0.685  14.231  0.00  0.00    +0.000 A 
ATOM     22  C   LIG    1       -4.996   0.542  13.008  0.00  0.00    +0.020 A 
ATOM     23  C   LIG    1       -4.245   0.441  11.852  0.00  0.00    +0.010 A 
ATOM     24  C   LIG    1       -2.860   0.484  11.913  0.00  0.00    +0.090 A 
ATOM     25  O   LIG    1       -2.149   0.378  10.757  0.00  0.00    -0.290 OA
BRANCH  18  26
ATOM     26  C   LIG    1       -0.373   0.037  14.484  0.00  0.00    +0.190 C 
ATOM     27  C   LIG    1        1.157   0.023  14.514  0.00  0.00    +0.040 C 
ENDBRANCH  18  26
ENDBRANCH  15  16
ENDBRANCH   1  15
TORSDOF 7
