REMARK  Name = ZINCpe000000VoFq.0
REMARK                            x       y       z     vdW  Elec       q    Type
REMARK                         _______ _______ _______ _____ _____    ______ ____
ROOT
ATOM      1  C   LIG    1       -1.189   2.298   0.125  0.00  0.00    +0.320 C 
ENDROOT
BRANCH   1   4
ATOM      2  N   LIG    1        1.264   1.993   0.029  0.00  0.00    -0.700 N 
ATOM      3  H   LIG    1        1.352   2.959   0.024  0.00  0.00    +0.410 HD
ATOM      4  C   LIG    1        0.041   1.429   0.082  0.00  0.00    +0.520 C 
ATOM      5  O   LIG    1       -0.070   0.221   0.089  0.00  0.00    -0.530 OA
BRANCH   2   6
ATOM      6  C   LIG    1        2.459   1.148  -0.019  0.00  0.00    +0.290 C 
BRANCH   6   7
ATOM      7  C   LIG    1        2.857   0.760   1.382  0.00  0.00    +0.450 C 
ATOM      8  O   LIG    1        2.208   1.149   2.324  0.00  0.00    -0.500 OA
BRANCH   7  10
ATOM      9  C   LIG    1        4.255  -0.353   2.959  0.00  0.00    +0.260 C 
ATOM     10  O   LIG    1        3.932  -0.019   1.583  0.00  0.00    -0.360 OA
ENDBRANCH   7  10
ENDBRANCH   6   7
BRANCH   6  11
ATOM     11  C   LIG    1        3.604   1.920  -0.678  0.00  0.00    +0.060 C 
BRANCH  11  12
ATOM     12  C   LIG    1        3.233   2.241  -2.128  0.00  0.00    -0.020 C 
ATOM     13  C   LIG    1        3.132   0.941  -2.928  0.00  0.00    +0.030 C 
ATOM     14  C   LIG    1        4.311   3.136  -2.743  0.00  0.00    +0.030 C 
ENDBRANCH  11  12
ENDBRANCH   6  11
ENDBRANCH   2   6
ENDBRANCH   1   4
BRANCH   1  15
ATOM     15  N   LIG    1       -2.384   1.452   0.171  0.00  0.00    -0.710 N 
ATOM     16  H   LIG    1       -2.295   0.486   0.170  0.00  0.00    +0.410 HD
ATOM     17  C   LIG    1       -3.608   2.015   0.215  0.00  0.00    +0.570 C 
ATOM     18  O   LIG    1       -3.720   3.226   0.216  0.00  0.00    -0.530 OA
BRANCH  17  19
ATOM     19  C   LIG    1       -4.812   1.163   0.261  0.00  0.00    -0.130 A 
ATOM     20  C   LIG    1       -4.685  -0.228   0.260  0.00  0.00    +0.070 A 
ATOM     21  C   LIG    1       -5.810  -1.023   0.305  0.00  0.00    +0.040 A 
ATOM     22  C   LIG    1       -7.072  -0.445   0.350  0.00  0.00    +0.060 A 
ATOM     23  O   LIG    1       -8.316  -1.001   0.398  0.00  0.00    -0.300 OA
ATOM     24  C   LIG    1       -9.223   0.049   0.015  0.00  0.00    +0.440 C 
ATOM     25  O   LIG    1       -8.534   1.254   0.399  0.00  0.00    -0.300 OA
ATOM     26  C   LIG    1       -7.205   0.944   0.351  0.00  0.00    +0.020 A 
ATOM     27  C   LIG    1       -6.081   1.745   0.313  0.00  0.00    +0.110 A 
ENDBRANCH  17  19
ENDBRANCH   1  15
TORSDOF 8
