REMARK  Name = ZINCrH000004jt6s.0
REMARK                            x       y       z     vdW  Elec       q    Type
REMARK                         _______ _______ _______ _____ _____    ______ ____
ROOT
ATOM      1  C   LIG    1        1.170   3.572   0.014  0.00  0.00    +0.570 C 
ATOM      2  N   LIG    1        2.328   4.255   0.104  0.00  0.00    -0.580 N 
ATOM      3  O   LIG    1        0.116   4.171  -0.080  0.00  0.00    -0.520 OA
ENDROOT
BRANCH   2   4
ATOM      4  C   LIG    1        2.310   5.716   0.217  0.00  0.00    +0.310 C 
ATOM      5  C   LIG    1        1.647   6.309  -1.025  0.00  0.00    +0.030 C 
ATOM      6  C   LIG    1        1.446   7.811  -0.796  0.00  0.00    +0.030 C 
ATOM      7  C   LIG    1        0.364   7.996   0.266  0.00  0.00    +0.080 C 
ATOM      8  C   LIG    1        0.667   7.161   1.480  0.00  0.00    -0.110 A 
ATOM      9  C   LIG    1        0.010   7.472   2.667  0.00  0.00    +0.050 A 
ATOM     10  C   LIG    1        0.267   6.708   3.793  0.00  0.00    -0.040 A 
ATOM     11  C   LIG    1        1.166   5.663   3.699  0.00  0.00    +0.250 A 
ATOM     12  N   LIG    1        1.770   5.400   2.560  0.00  0.00    -0.470 NA
ATOM     13  C   LIG    1        1.554   6.109   1.460  0.00  0.00    +0.130 A 
ENDBRANCH   2   4
BRANCH   1  19
ATOM     14  N   LIG    1        1.386  -2.012   0.289  0.00  0.00    -0.390 N 
ATOM     15  N   LIG    1        2.283  -2.084   1.365  0.00  0.00    -0.000 NA
ATOM     16  N   LIG    1        2.599  -0.895   1.741  0.00  0.00    -0.210 NA
ATOM     17  C   LIG    1        1.962   0.021   0.974  0.00  0.00    -0.030 A 
ATOM     18  C   LIG    1        1.956   1.419   0.964  0.00  0.00    +0.150 A 
ATOM     19  C   LIG    1        1.180   2.095   0.031  0.00  0.00    -0.140 A 
ATOM     20  C   LIG    1        0.406   1.381  -0.895  0.00  0.00    +0.130 A 
ATOM     21  C   LIG    1        0.407   0.017  -0.890  0.00  0.00    +0.020 A 
ATOM     22  C   LIG    1        1.179  -0.678   0.037  0.00  0.00    +0.100 A 
BRANCH  14  24
ATOM     23  C   LIG    1        1.687  -3.536  -1.600  0.00  0.00    +0.040 C 
ATOM     24  C   LIG    1        0.787  -3.141  -0.427  0.00  0.00    +0.340 C 
ENDBRANCH  14  24
ENDBRANCH   1  19
BRANCH   2  25
ATOM     25  C   LIG    1        3.605   3.537   0.089  0.00  0.00    +0.220 C 
ATOM     26  C   LIG    1        4.304   3.711   1.438  0.00  0.00    +0.040 C 
ATOM     27  C   LIG    1        4.494   4.101  -1.022  0.00  0.00    +0.030 C 
ENDBRANCH   2  25
TORSDOF 4
