REMARK  Name = ZINCpk000000nsKl.0
REMARK                            x       y       z     vdW  Elec       q    Type
REMARK                         _______ _______ _______ _____ _____    ______ ____
ROOT
ATOM      1  N   LIG    1       -4.809   8.986  -0.814  0.00  0.00    -0.600 N 
ATOM      2  C   LIG    1       -4.091   7.958  -1.307  0.00  0.00    +0.520 C 
ATOM      3  O   LIG    1       -3.847   7.903  -2.494  0.00  0.00    -0.500 OA
ENDROOT
BRANCH   1   4
ATOM      4  C   LIG    1       -5.390   9.977  -1.723  0.00  0.00    +0.280 C 
ATOM      5  C   LIG    1       -4.272  10.736  -2.459  0.00  0.00    +0.080 C 
ATOM      6  C   LIG    1       -4.894  11.514  -3.636  0.00  0.00    -0.310 C 
ATOM      7  S   LIG    1       -6.379  10.555  -4.108  0.00  0.00    +2.390 S 
ATOM      8  O   LIG    1       -6.172   9.964  -5.383  0.00  0.00    -0.930 OA
ATOM      9  O   LIG    1       -7.541  11.338  -3.868  0.00  0.00    -0.930 OA
ATOM     10  C   LIG    1       -6.236   9.268  -2.812  0.00  0.00    -0.320 C 
ENDBRANCH   1   4
BRANCH   1  11
ATOM     11  C   LIG    1       -5.008   9.113   0.632  0.00  0.00    +0.270 C 
BRANCH  11  13
ATOM     12  C   LIG    1       -6.319   8.270   2.585  0.00  0.00    +0.030 C 
ATOM     13  C   LIG    1       -6.204   8.259   1.059  0.00  0.00    -0.050 C 
ATOM     14  C   LIG    1       -7.484   8.832   0.447  0.00  0.00    +0.020 C 
ENDBRANCH  11  13
ENDBRANCH   1  11
BRANCH   2  15
ATOM     15  C   LIG    1       -3.592   6.876  -0.384  0.00  0.00    +0.240 C 
BRANCH  15  16
ATOM     16  O   LIG    1       -2.958   5.851  -1.152  0.00  0.00    -0.280 OA
BRANCH  16  17
ATOM     17  C   LIG    1       -2.449   4.792  -0.466  0.00  0.00    +0.140 A 
ATOM     18  C   LIG    1       -2.558   4.744   0.915  0.00  0.00    -0.060 A 
ATOM     19  C   LIG    1       -2.041   3.669   1.614  0.00  0.00    +0.080 A 
ATOM     20  C   LIG    1       -1.412   2.638   0.937  0.00  0.00    -0.000 A 
ATOM     21  O   LIG    1       -0.825   1.486   1.385  0.00  0.00    -0.310 OA
ATOM     22  C   LIG    1       -0.001   1.030   0.296  0.00  0.00    +0.430 C 
ATOM     23  O   LIG    1       -0.648   1.563  -0.875  0.00  0.00    -0.300 OA
ATOM     24  C   LIG    1       -1.301   2.684  -0.451  0.00  0.00    +0.080 A 
ATOM     25  C   LIG    1       -1.820   3.762  -1.149  0.00  0.00    +0.020 A 
ENDBRANCH  16  17
ENDBRANCH  15  16
ENDBRANCH   2  15
TORSDOF 6
