REMARK  Name = ZINCtV00000L6k0k.0
REMARK                            x       y       z     vdW  Elec       q    Type
REMARK                         _______ _______ _______ _____ _____    ______ ____
ROOT
ATOM      1  P   LIG    1       -1.381   1.753  -0.861  0.00  0.00    +2.410 P 
ATOM      2  O   LIG    1       -2.469   0.782  -1.114  0.00  0.00    -1.010 OA
ENDROOT
BRANCH   1   3
ATOM      3  N   LIG    1        0.061   0.971  -0.865  0.00  0.00    -1.100 N 
ATOM      4  H   LIG    1        0.093   0.014  -1.019  0.00  0.00    +0.430 HD
BRANCH   3   5
ATOM      5  C   LIG    1        1.245   1.686  -0.652  0.00  0.00    +0.130 A 
ATOM      6  C   LIG    1        1.200   3.057  -0.437  0.00  0.00    -0.040 A 
ATOM      7  C   LIG    1        2.368   3.761  -0.221  0.00  0.00    +0.040 A 
ATOM      8  C   LIG    1        3.588   3.100  -0.230  0.00  0.00    +0.110 A 
ATOM      9  C   LIG    1        3.634   1.731  -0.450  0.00  0.00    -0.030 A 
ATOM     10  C   LIG    1        2.466   1.025  -0.661  0.00  0.00    +0.020 A 
BRANCH   8  11
ATOM     11  O   LIG    1        4.738   3.795  -0.024  0.00  0.00    -0.310 OA
BRANCH  11  12
ATOM     12  C   LIG    1        5.946   3.037   0.071  0.00  0.00    +0.150 C 
ATOM     13  C   LIG    1        6.979   3.822   0.882  0.00  0.00    +0.070 C 
ATOM     14  C   LIG    1        6.494   2.772  -1.333  0.00  0.00    +0.020 C 
ENDBRANCH  11  12
ENDBRANCH   8  11
ENDBRANCH   3   5
ENDBRANCH   1   3
BRANCH   1  15
ATOM     15  O   LIG    1       -1.608   2.453   0.571  0.00  0.00    -0.640 OA
BRANCH  15  20
ATOM     16  C   LIG    1       -2.547  -1.179   4.773  0.00  0.00    +0.100 C 
ATOM     17  C   LIG    1       -2.296  -0.207   3.648  0.00  0.00    -0.080 A 
ATOM     18  C   LIG    1       -1.004   0.182   3.348  0.00  0.00    +0.030 A 
ATOM     19  C   LIG    1       -0.771   1.072   2.318  0.00  0.00    -0.010 A 
ATOM     20  C   LIG    1       -1.835   1.577   1.585  0.00  0.00    +0.080 A 
ATOM     21  C   LIG    1       -3.131   1.190   1.892  0.00  0.00    +0.040 A 
ATOM     22  C   LIG    1       -3.358   0.294   2.919  0.00  0.00    +0.040 A 
ENDBRANCH  15  20
ENDBRANCH   1  15
BRANCH   1  23
ATOM     23  O   LIG    1       -1.385   2.876  -2.014  0.00  0.00    -0.640 OA
BRANCH  23  24
ATOM     24  C   LIG    1       -1.524   2.378  -3.271  0.00  0.00    +0.090 A 
ATOM     25  C   LIG    1       -0.401   2.035  -4.011  0.00  0.00    -0.010 A 
ATOM     26  C   LIG    1       -0.545   1.523  -5.285  0.00  0.00    +0.030 A 
ATOM     27  C   LIG    1       -1.806   1.363  -5.829  0.00  0.00    -0.080 A 
ATOM     28  C   LIG    1       -2.926   1.708  -5.096  0.00  0.00    +0.040 A 
ATOM     29  C   LIG    1       -1.959   0.810  -7.223  0.00  0.00    +0.090 C 
ATOM     30  C   LIG    1       -2.788   2.215  -3.819  0.00  0.00    +0.040 A 
ENDBRANCH  23  24
ENDBRANCH   1  23
TORSDOF 8
