REMARK  Name = ZINCrH000004r1YB.0
REMARK                            x       y       z     vdW  Elec       q    Type
REMARK                         _______ _______ _______ _____ _____    ______ ____
ROOT
ATOM      1  S   LIG    1        1.130   0.180   1.572  0.00  0.00    +0.120 S 
ENDROOT
BRANCH   1   6
ATOM      2  N   LIG    1        3.873   0.141   2.086  0.00  0.00    -0.310 N 
ATOM      3  N   LIG    1        5.016   0.700   1.489  0.00  0.00    -0.070 NA
ATOM      4  N   LIG    1        4.613   1.375   0.468  0.00  0.00    -0.030 NA
ATOM      5  N   LIG    1        3.336   1.297   0.356  0.00  0.00    -0.330 NA
ATOM      6  C   LIG    1        2.833   0.559   1.322  0.00  0.00    +0.200 A 
BRANCH   2  11
ATOM      7  C   LIG    1        3.656  -3.154   6.703  0.00  0.00    +0.100 C 
ATOM      8  C   LIG    1        3.713  -2.279   5.477  0.00  0.00    -0.060 A 
ATOM      9  C   LIG    1        2.856  -1.201   5.358  0.00  0.00    +0.030 A 
ATOM     10  C   LIG    1        2.910  -0.394   4.238  0.00  0.00    +0.050 A 
ATOM     11  C   LIG    1        3.819  -0.673   3.227  0.00  0.00    +0.100 A 
ATOM     12  C   LIG    1        4.679  -1.756   3.349  0.00  0.00    -0.050 A 
ATOM     13  C   LIG    1        5.673  -2.058   2.257  0.00  0.00    +0.110 C 
ATOM     14  C   LIG    1        4.624  -2.556   4.474  0.00  0.00    +0.030 A 
ENDBRANCH   2  11
ENDBRANCH   1   6
BRANCH   1  15
ATOM     15  C   LIG    1        0.400   1.079   0.181  0.00  0.00    +0.010 C 
ATOM     16  C   LIG    1        0.623   2.581   0.371  0.00  0.00    +0.090 C 
BRANCH  15  17
ATOM     17  C   LIG    1       -1.079   0.795   0.120  0.00  0.00    +0.540 C 
ATOM     18  N   LIG    1       -1.739   0.910  -1.049  0.00  0.00    -0.710 N 
ATOM     19  H   LIG    1       -1.262   1.175  -1.851  0.00  0.00    +0.400 HD
ATOM     20  O   LIG    1       -1.674   0.463   1.123  0.00  0.00    -0.520 OA
BRANCH  18  21
ATOM     21  C   LIG    1       -3.176   0.633  -1.109  0.00  0.00    +0.240 C 
ATOM     22  C   LIG    1       -3.400  -0.869  -1.299  0.00  0.00    +0.010 C 
ATOM     23  C   LIG    1       -2.739  -1.321  -2.602  0.00  0.00    +0.000 C 
ATOM     24  C   LIG    1       -3.356  -0.561  -3.778  0.00  0.00    +0.000 C 
ATOM     25  C   LIG    1       -3.133   0.940  -3.588  0.00  0.00    -0.020 C 
ATOM     26  C   LIG    1       -3.750   1.700  -4.764  0.00  0.00    +0.030 C 
ATOM     27  C   LIG    1       -3.794   1.393  -2.285  0.00  0.00    +0.000 C 
ATOM     28  C   LIG    1       -3.571   2.895  -2.095  0.00  0.00    +0.020 C 
ENDBRANCH  18  21
ENDBRANCH  15  17
ENDBRANCH   1  15
TORSDOF 5
