REMARK  Name = ZINCrH000004qR1t.0
REMARK                            x       y       z     vdW  Elec       q    Type
REMARK                         _______ _______ _______ _____ _____    ______ ____
ROOT
ATOM      1  C   LIG    1        3.736  -0.592   0.042  0.00  0.00    +0.150 C 
ATOM      2  C   LIG    1        2.388   0.082   0.058  0.00  0.00    +0.230 A 
ATOM      3  C   LIG    1        1.230  -0.672   0.024  0.00  0.00    -0.120 A 
ATOM      4  C   LIG    1        0.004  -0.008   0.041  0.00  0.00    +0.390 A 
ATOM      5  N   LIG    1       -0.011   1.319   0.089  0.00  0.00    -0.600 NA
ATOM      6  C   LIG    1        1.121   2.006   0.120  0.00  0.00    +0.530 A 
ATOM      7  N   LIG    1        2.301   1.403   0.105  0.00  0.00    -0.550 NA
ENDROOT
BRANCH   6   8
ATOM      8  N   LIG    1        1.071   3.388   0.169  0.00  0.00    -0.460 N 
ATOM      9  C   LIG    1        1.815   3.901   1.327  0.00  0.00    +0.210 C 
ATOM     10  C   LIG    1        1.861   5.429   1.268  0.00  0.00    +0.030 C 
ATOM     11  C   LIG    1        0.432   5.979   1.273  0.00  0.00    +0.150 C 
ATOM     12  C   LIG    1       -0.336   5.391   0.086  0.00  0.00    +0.040 C 
ATOM     13  C   LIG    1       -0.318   3.864   0.178  0.00  0.00    +0.220 C 
BRANCH  11  14
ATOM     14  O   LIG    1        0.467   7.403   1.162  0.00  0.00    -0.370 OA
BRANCH  14  15
ATOM     15  C   LIG    1        0.517   8.083   2.418  0.00  0.00    +0.190 C 
BRANCH  15  16
ATOM     16  C   LIG    1        0.552   9.594   2.178  0.00  0.00    +0.160 C 
ATOM     17  C   LIG    1        0.693  10.348   3.519  0.00  0.00    +0.010 C 
ATOM     18  C   LIG    1       -0.187  11.605   3.338  0.00  0.00    +0.000 C 
ATOM     19  C   LIG    1       -0.755  11.462   1.909  0.00  0.00    +0.190 C 
ATOM     20  O   LIG    1       -0.706  10.045   1.630  0.00  0.00    -0.360 OA
ENDBRANCH  15  16
ENDBRANCH  14  15
ENDBRANCH  11  14
ENDBRANCH   6   8
BRANCH   4  21
ATOM     21  O   LIG    1       -1.157  -0.707   0.009  0.00  0.00    -0.240 OA
BRANCH  21  22
ATOM     22  C   LIG    1       -2.321  -0.017   0.128  0.00  0.00    +0.090 A 
ATOM     23  C   LIG    1       -3.016  -0.027   1.329  0.00  0.00    +0.010 A 
ATOM     24  C   LIG    1       -4.196   0.680   1.449  0.00  0.00    +0.020 A 
ATOM     25  C   LIG    1       -4.691   1.389   0.370  0.00  0.00    +0.020 A 
ATOM     26  C   LIG    1       -4.004   1.397  -0.830  0.00  0.00    +0.020 A 
ATOM     27  C   LIG    1       -2.820   0.696  -0.953  0.00  0.00    +0.020 A 
ENDBRANCH  21  22
ENDBRANCH   4  21
TORSDOF 6
