REMARK  Name = ZINCrg00000fSkLC.0
REMARK                            x       y       z     vdW  Elec       q    Type
REMARK                         _______ _______ _______ _____ _____    ______ ____
ROOT
ATOM      1  C   LIG    1        1.232   3.541   0.009  0.00  0.00    +0.090 C 
ATOM      2  N   LIG    1        0.129   4.224   0.018  0.00  0.00    -0.160 NA
ATOM      3  N   LIG    1        0.145   5.623   0.029  0.00  0.00    -0.450 N 
ATOM      4  C   LIG    1        1.246   6.294  -0.362  0.00  0.00    +0.500 C 
ATOM      5  C   LIG    1        2.471   5.532  -0.802  0.00  0.00    +0.100 C 
ATOM      6  O   LIG    1        1.253   7.506  -0.360  0.00  0.00    -0.500 OA
ATOM      7  C   LIG    1        2.570   4.232   0.000  0.00  0.00    +0.120 C 
ENDROOT
BRANCH   3   8
ATOM      8  C   LIG    1       -1.043   6.362   0.462  0.00  0.00    +0.310 C 
ATOM      9  C   LIG    1       -2.237   5.994  -0.435  0.00  0.00    +0.090 C 
ATOM     10  C   LIG    1       -3.506   6.539   0.269  0.00  0.00    -0.290 C 
ATOM     11  S   LIG    1       -3.207   6.102   2.024  0.00  0.00    +2.400 S 
ATOM     12  O   LIG    1       -3.562   7.202   2.851  0.00  0.00    -0.930 OA
ATOM     13  O   LIG    1       -3.745   4.814   2.287  0.00  0.00    -0.920 OA
ATOM     14  C   LIG    1       -1.384   5.988   1.918  0.00  0.00    -0.320 C 
ENDBRANCH   3   8
BRANCH   1  15
ATOM     15  C   LIG    1        1.176   2.076   0.002  0.00  0.00    +0.530 C 
ATOM     16  O   LIG    1        2.204   1.428  -0.011  0.00  0.00    -0.480 OA
BRANCH  15  17
ATOM     17  O   LIG    1       -0.018   1.448   0.010  0.00  0.00    -0.330 OA
BRANCH  17  18
ATOM     18  C   LIG    1        0.002  -0.004   0.002  0.00  0.00    +0.260 C 
BRANCH  18  19
ATOM     19  C   LIG    1       -1.433  -0.534   0.013  0.00  0.00    +0.230 C 
BRANCH  19  20
ATOM     20  O   LIG    1       -2.089  -0.158  -1.200  0.00  0.00    -0.310 OA
BRANCH  20  27
ATOM     21  C   LIG    1       -3.404   0.576  -3.591  0.00  0.00    +0.090 C 
ATOM     22  C   LIG    1       -4.078  -0.222  -2.504  0.00  0.00    -0.120 A 
ATOM     23  C   LIG    1       -5.390  -0.625  -2.656  0.00  0.00    +0.050 A 
ATOM     24  C   LIG    1       -6.010  -1.357  -1.659  0.00  0.00    -0.030 A 
ATOM     25  C   LIG    1       -5.317  -1.687  -0.509  0.00  0.00    +0.030 A 
ATOM     26  C   LIG    1       -4.002  -1.292  -0.355  0.00  0.00    -0.080 A 
ATOM     27  C   LIG    1       -3.380  -0.553  -1.351  0.00  0.00    +0.130 A 
ENDBRANCH  20  27
ENDBRANCH  19  20
ENDBRANCH  18  19
ENDBRANCH  17  18
ENDBRANCH  15  17
ENDBRANCH   1  15
TORSDOF 7
