REMARK  Name = ZINCrH000004nOIn.0
REMARK                            x       y       z     vdW  Elec       q    Type
REMARK                         _______ _______ _______ _____ _____    ______ ____
ROOT
ATOM      1  C   LIG    1       -0.493   0.505   3.457  0.00  0.00    +0.570 C 
ATOM      2  N   LIG    1        0.127   0.897   2.326  0.00  0.00    -0.610 N 
ATOM      3  C   LIG    1        1.539   1.302   2.349  0.00  0.00    +0.280 C 
ATOM      4  C   LIG    1        2.303   0.485   1.302  0.00  0.00    +0.030 C 
ATOM      5  C   LIG    1        1.625   0.646  -0.060  0.00  0.00    +0.040 C 
ATOM      6  C   LIG    1        0.192   0.115   0.016  0.00  0.00    +0.080 C 
ATOM      7  C   LIG    1       -0.596   0.927   1.048  0.00  0.00    +0.290 C 
ATOM      8  O   LIG    1        0.141   0.383   4.487  0.00  0.00    -0.520 OA
ENDROOT
BRANCH   6   9
ATOM      9  C   LIG    1       -0.465   0.244  -1.335  0.00  0.00    +0.100 A 
ATOM     10  N   LIG    1       -0.925  -0.742  -2.008  0.00  0.00    -0.460 NA
ATOM     11  C   LIG    1       -1.488  -0.479  -3.203  0.00  0.00    +0.080 A 
ATOM     12  C   LIG    1       -2.066  -1.360  -4.139  0.00  0.00    +0.080 A 
ATOM     13  C   LIG    1       -2.587  -0.884  -5.304  0.00  0.00    +0.030 A 
ATOM     14  C   LIG    1       -2.559   0.473  -5.592  0.00  0.00    +0.040 A 
ATOM     15  C   LIG    1       -2.000   1.357  -4.696  0.00  0.00    +0.060 A 
ATOM     16  C   LIG    1       -1.463   0.888  -3.500  0.00  0.00    -0.180 A 
ATOM     17  S   LIG    1       -0.695   1.723  -2.153  0.00  0.00    +0.100 S 
ENDBRANCH   6   9
BRANCH   1  22
ATOM     18  C   LIG    1       -3.808  -1.128   4.129  0.00  0.00    -0.670 A 
ATOM     19  C   LIG    1       -4.663  -0.301   3.423  0.00  0.00    +0.150 A 
ATOM     20  C   LIG    1       -4.166   0.787   2.728  0.00  0.00    +0.000 A 
ATOM     21  C   LIG    1       -2.814   1.058   2.739  0.00  0.00    +0.100 A 
ATOM     22  C   LIG    1       -1.944   0.224   3.445  0.00  0.00    -0.150 A 
ATOM     23  C   LIG    1       -2.452  -0.872   4.144  0.00  0.00    +0.180 A 
BRANCH  18  25
ATOM     24  C   LIG    1       -4.821  -1.862   6.663  0.00  0.00    -0.250 C 
ATOM     25  S   LIG    1       -4.450  -2.512   5.011  0.00  0.00    +2.500 S 
ATOM     26  O   LIG    1       -3.365  -3.427   5.066  0.00  0.00    -0.930 OA
ATOM     27  O   LIG    1       -5.650  -2.839   4.323  0.00  0.00    -0.930 OA
ENDBRANCH  18  25
ENDBRANCH   1  22
TORSDOF 3
