REMARK  Name = ZINCpk00000y6z35.0
REMARK                            x       y       z     vdW  Elec       q    Type
REMARK                         _______ _______ _______ _____ _____    ______ ____
ROOT
ATOM      1  C   LIG    1       -1.847   4.657   1.481  0.00  0.00    +0.160 C 
ATOM      2  C   LIG    1       -1.310   6.105   1.458  0.00  0.00    +0.270 C 
ATOM      3  N   LIG    1       -1.423   6.523   0.042  0.00  0.00    -0.600 N 
ATOM      4  C   LIG    1       -1.029   5.320  -0.731  0.00  0.00    +0.300 C 
ATOM      5  C   LIG    1       -1.801   7.725  -0.438  0.00  0.00    +0.630 C 
ATOM      6  O   LIG    1       -1.844   7.914  -1.639  0.00  0.00    -0.540 OA
ATOM      7  C   LIG    1       -1.661   4.141   0.039  0.00  0.00    +0.100 C 
ENDROOT
BRANCH   5   8
ATOM      8  C   LIG    1       -2.162   8.809   0.492  0.00  0.00    -0.050 A 
ATOM      9  C   LIG    1       -2.555  10.070   0.144  0.00  0.00    +0.250 A 
ATOM     10  N   LIG    1       -2.793  10.742   1.294  0.00  0.00    -0.550 N 
ATOM     11  H   LIG    1       -3.090  11.663   1.370  0.00  0.00    +0.430 HD
ATOM     12  C   LIG    1       -2.535   9.889   2.331  0.00  0.00    +0.250 A 
ATOM     13  N   LIG    1       -2.158   8.734   1.840  0.00  0.00    -0.440 NA
BRANCH  12  14
ATOM     14  C   LIG    1       -2.661  10.216   3.768  0.00  0.00    -0.020 A 
ATOM     15  C   LIG    1       -3.069  11.490   4.165  0.00  0.00    +0.010 A 
ATOM     16  C   LIG    1       -3.189  11.787   5.507  0.00  0.00    +0.020 A 
ATOM     17  C   LIG    1       -2.895  10.827   6.459  0.00  0.00    +0.020 A 
ATOM     18  C   LIG    1       -2.484   9.564   6.073  0.00  0.00    +0.010 A 
ATOM     19  C   LIG    1       -2.366   9.253   4.734  0.00  0.00    +0.060 A 
ENDBRANCH  12  14
ENDBRANCH   5   8
BRANCH   7  20
ATOM     20  C   LIG    1       -0.736   2.950   0.025  0.00  0.00    +0.010 A 
ATOM     21  N   LIG    1       -1.079   1.682   0.016  0.00  0.00    -0.270 NA
ATOM     22  N   LIG    1       -0.011   0.966   0.007  0.00  0.00    -0.250 N 
ATOM     23  H   LIG    1        0.002  -0.004   0.002  0.00  0.00    +0.470 HD
ATOM     24  N   LIG    1        1.037   1.711   0.001  0.00  0.00    -0.280 NA
ATOM     25  C   LIG    1        0.660   2.969   0.012  0.00  0.00    +0.180 A 
ENDBRANCH   7  20
BRANCH   1  27
ATOM     26  C   LIG    1       -3.470   4.440   3.232  0.00  0.00    +0.200 C 
ATOM     27  O   LIG    1       -3.231   4.646   1.838  0.00  0.00    -0.370 OA
ENDBRANCH   1  27
TORSDOF 4
