REMARK  Name = ZINCrg000000tXsh.0
REMARK                            x       y       z     vdW  Elec       q    Type
REMARK                         _______ _______ _______ _____ _____    ______ ____
ROOT
ATOM      1  O   LIG    1       -4.417  -3.811  -0.681  0.00  0.00    -0.520 OA
ATOM      2  C   LIG    1       -3.269  -3.465  -0.896  0.00  0.00    +0.600 A 
ATOM      3  N   LIG    1       -2.448  -4.219  -1.661  0.00  0.00    -0.660 N 
ATOM      4  H   LIG    1       -2.774  -5.047  -2.047  0.00  0.00    +0.420 HD
ATOM      5  C   LIG    1       -1.165  -3.820  -1.895  0.00  0.00    +0.680 A 
ATOM      6  N   LIG    1       -0.679  -2.706  -1.395  0.00  0.00    -0.590 NA
ATOM      7  C   LIG    1       -1.428  -1.905  -0.627  0.00  0.00    +0.390 A 
ATOM      8  N   LIG    1       -1.200  -0.722   0.010  0.00  0.00    -0.310 N 
ATOM      9  N   LIG    1       -2.373  -0.352   0.680  0.00  0.00    -0.280 NA
ATOM     10  C   LIG    1       -3.298  -1.247   0.469  0.00  0.00    +0.350 A 
ATOM     11  C   LIG    1       -2.759  -2.260  -0.350  0.00  0.00    -0.380 A 
ENDROOT
BRANCH   8  12
ATOM     12  C   LIG    1        0.002  -0.004   0.002  0.00  0.00    +0.150 A 
ATOM     13  C   LIG    1       -0.017   1.385   0.010  0.00  0.00    +0.020 A 
ATOM     14  C   LIG    1        1.171   2.090   0.002  0.00  0.00    +0.030 A 
ATOM     15  C   LIG    1        2.377   1.415  -0.013  0.00  0.00    +0.010 A 
ATOM     16  C   LIG    1        2.400   0.032  -0.021  0.00  0.00    +0.030 A 
ATOM     17  C   LIG    1        1.216  -0.679  -0.013  0.00  0.00    +0.020 A 
ENDBRANCH   8  12
BRANCH   5  18
ATOM     18  N   LIG    1       -0.357  -4.606  -2.676  0.00  0.00    -0.680 N 
ATOM     19  H   LIG    1       -0.701  -5.432  -3.052  0.00  0.00    +0.420 HD
BRANCH  18  20
ATOM     20  C   LIG    1        1.025  -4.200  -2.941  0.00  0.00    +0.280 C 
ATOM     21  C   LIG    1        1.241  -3.641  -4.358  0.00  0.00    +0.030 C 
ATOM     22  C   LIG    1        2.574  -4.409  -4.372  0.00  0.00    +0.180 C 
ATOM     23  C   LIG    1        1.943  -5.365  -3.346  0.00  0.00    +0.270 C 
BRANCH  23  24
ATOM     24  N   LIG    1        2.866  -5.780  -2.286  0.00  0.00    -0.370 N 
ATOM     25  C   LIG    1        4.069  -5.230  -2.021  0.00  0.00    +0.220 A 
ATOM     26  C   LIG    1        4.604  -5.895  -0.971  0.00  0.00    -0.120 A 
ATOM     27  C   LIG    1        3.697  -6.887  -0.582  0.00  0.00    +0.230 A 
ATOM     28  N   LIG    1        2.653  -6.815  -1.367  0.00  0.00    -0.290 NA
ENDBRANCH  23  24
BRANCH  22  29
ATOM     29  O   LIG    1        2.864  -5.027  -5.627  0.00  0.00    -0.550 OA
ATOM     30  H   LIG    1        3.219  -4.421  -6.292  0.00  0.00    +0.390 HD
ENDBRANCH  22  29
ENDBRANCH  18  20
ENDBRANCH   5  18
TORSDOF 5
