REMARK  Name = ZINCrD00000F5LId.0
REMARK                            x       y       z     vdW  Elec       q    Type
REMARK                         _______ _______ _______ _____ _____    ______ ____
ROOT
ATOM      1  C   LIG    1       -0.015   0.778   2.144  0.00  0.00    +0.550 C 
ATOM      2  N   LIG    1       -0.841   0.173   1.266  0.00  0.00    -0.550 N 
ATOM      3  C   LIG    1       -0.361  -0.938   0.433  0.00  0.00    +0.270 C 
ATOM      4  C   LIG    1       -0.862  -0.702  -0.998  0.00  0.00    +0.020 C 
ATOM      5  C   LIG    1       -2.390  -0.740  -0.999  0.00  0.00    +0.110 C 
ATOM      6  C   LIG    1       -2.941   0.181   0.058  0.00  0.00    -0.050 A 
ATOM      7  C   LIG    1       -4.262   0.626  -0.053  0.00  0.00    -0.120 A 
ATOM      8  C   LIG    1       -4.796   1.477   0.915  0.00  0.00    +0.020 A 
ATOM      9  C   LIG    1       -4.020   1.879   1.983  0.00  0.00    +0.020 A 
ATOM     10  C   LIG    1       -2.714   1.441   2.093  0.00  0.00    +0.050 A 
ATOM     11  C   LIG    1       -2.172   0.594   1.132  0.00  0.00    +0.140 A 
ATOM     12  O   LIG    1       -0.440   1.652   2.875  0.00  0.00    -0.520 OA
ENDROOT
BRANCH   7  13
ATOM     13  C   LIG    1       -5.093   0.195  -1.198  0.00  0.00    +0.570 C 
ATOM     14  N   LIG    1       -6.379   0.588  -1.282  0.00  0.00    -0.650 N 
ATOM     15  H   LIG    1       -6.742   1.206  -0.628  0.00  0.00    +0.410 HD
ATOM     16  O   LIG    1       -4.616  -0.515  -2.062  0.00  0.00    -0.490 OA
BRANCH  14  17
ATOM     17  C   LIG    1       -7.189   0.107  -2.310  0.00  0.00    +0.300 A 
ATOM     18  C   LIG    1       -6.864   0.048  -3.631  0.00  0.00    -0.210 A 
ATOM     19  C   LIG    1       -7.952  -0.501  -4.315  0.00  0.00    +0.250 A 
ATOM     20  N   LIG    1       -8.899  -0.756  -3.450  0.00  0.00    -0.280 NA
ATOM     21  C   LIG    1       -5.562   0.494  -4.245  0.00  0.00    +0.120 C 
ATOM     22  N   LIG    1       -8.448  -0.384  -2.177  0.00  0.00    -0.380 N 
BRANCH  22  23
ATOM     23  C   LIG    1       -9.201  -0.503  -0.926  0.00  0.00    +0.350 C 
BRANCH  23  24
ATOM     24  C   LIG    1       -9.909   0.820  -0.628  0.00  0.00    -0.070 C 
ATOM     25  C   LIG    1       -9.515   1.560   0.652  0.00  0.00    +0.020 C 
ATOM     26  C   LIG    1      -10.871   0.855   0.561  0.00  0.00    +0.040 C 
ENDBRANCH  23  24
ENDBRANCH  22  23
ENDBRANCH  14  17
ENDBRANCH   7  13
BRANCH   1  28
ATOM     27  C   LIG    1        2.188   0.899   3.153  0.00  0.00    +0.160 C 
ATOM     28  C   LIG    1        1.398   0.380   2.217  0.00  0.00    -0.100 C 
ENDBRANCH   1  28
TORSDOF 5
