REMARK  Name = ZINCpe000000YCeV.0
REMARK                            x       y       z     vdW  Elec       q    Type
REMARK                         _______ _______ _______ _____ _____    ______ ____
ROOT
ATOM      1  C   LIG    1       -1.708   1.347  -1.683  0.00  0.00    +0.230 A 
ATOM      2  C   LIG    1       -2.092   1.608  -2.992  0.00  0.00    +0.000 A 
ATOM      3  C   LIG    1       -1.352   2.481  -3.766  0.00  0.00    +0.170 A 
ATOM      4  C   LIG    1       -0.234   3.099  -3.237  0.00  0.00    -0.060 A 
ATOM      5  C   LIG    1        0.147   2.845  -1.932  0.00  0.00    +0.230 A 
ATOM      6  C   LIG    1       -0.587   1.973  -1.153  0.00  0.00    -0.670 A 
ENDROOT
BRANCH   1  11
ATOM      7  C   LIG    1       -3.847   0.914  -0.767  0.00  0.00    +0.170 C 
ATOM      8  C   LIG    1       -4.750  -0.229  -1.278  0.00  0.00    +0.050 C 
ATOM      9  C   LIG    1       -3.842  -1.480  -1.140  0.00  0.00    +0.050 C 
ATOM     10  C   LIG    1       -2.450  -0.896  -1.489  0.00  0.00    +0.210 C 
ATOM     11  N   LIG    1       -2.451   0.460  -0.900  0.00  0.00    -0.490 N 
BRANCH   7  15
ATOM     12  N   LIG    1       -3.347   3.266  -1.345  0.00  0.00    -0.860 N 
ATOM     13  H   LIG    1       -3.487   4.064  -1.879  0.00  0.00    +0.410 HD
ATOM     14  H   LIG    1       -2.691   3.270  -0.631  0.00  0.00    +0.400 HD
ATOM     15  C   LIG    1       -4.064   2.153  -1.597  0.00  0.00    +0.510 C 
ATOM     16  O   LIG    1       -4.885   2.149  -2.490  0.00  0.00    -0.520 OA
ENDBRANCH   7  15
ENDBRANCH   1  11
BRANCH   4  17
ATOM     17  N   LIG    1        0.556   4.034  -4.069  0.00  0.00    +0.030 N 
ATOM     18  O   LIG    1        0.221   4.258  -5.218  0.00  0.00    -0.150 OA
ATOM     19  O   LIG    1        1.541   4.578  -3.604  0.00  0.00    -0.150 OA
ENDBRANCH   4  17
BRANCH   6  20
ATOM     20  S   LIG    1       -0.100   1.650   0.509  0.00  0.00    +2.720 S 
ATOM     21  O   LIG    1        1.107   2.371   0.720  0.00  0.00    -0.950 OA
ATOM     22  O   LIG    1       -0.208   0.245   0.693  0.00  0.00    -0.920 OA
BRANCH  20  23
ATOM     23  N   LIG    1       -1.236   2.340   1.496  0.00  0.00    -1.010 NA
ATOM     24  C   LIG    1       -1.306   3.763   1.857  0.00  0.00    +0.250 C 
ATOM     25  C   LIG    1       -2.507   3.935   2.811  0.00  0.00    +0.040 C 
ATOM     26  C   LIG    1       -2.697   2.507   3.388  0.00  0.00    +0.040 C 
ATOM     27  C   LIG    1       -2.341   1.628   2.164  0.00  0.00    +0.280 C 
ENDBRANCH  20  23
ENDBRANCH   6  20
TORSDOF 5
