REMARK  Name = ZINCpe00000gLNcY.0
REMARK                            x       y       z     vdW  Elec       q    Type
REMARK                         _______ _______ _______ _____ _____    ______ ____
ROOT
ATOM      1  C   LIG    1        2.295   1.552   3.310  0.00  0.00    +0.360 C 
ATOM      2  C   LIG    1        3.664   1.210   2.685  0.00  0.00    +0.060 C 
ATOM      3  C   LIG    1        3.480   1.617   1.199  0.00  0.00    +0.060 C 
ATOM      4  C   LIG    1        1.996   1.238   0.957  0.00  0.00    +0.280 C 
ATOM      5  N   LIG    1        1.311   1.577   2.217  0.00  0.00    -0.670 N 
ENDROOT
BRANCH   5   6
ATOM      6  C   LIG    1       -0.016   1.862   2.349  0.00  0.00    +0.540 A 
ATOM      7  C   LIG    1       -0.959   0.831   2.423  0.00  0.00    -0.210 A 
ATOM      8  C   LIG    1       -2.330   1.175   2.560  0.00  0.00    +0.570 A 
ATOM      9  N   LIG    1       -2.681   2.475   2.615  0.00  0.00    -0.550 N 
ATOM     10  C   LIG    1       -1.752   3.444   2.546  0.00  0.00    +0.700 A 
ATOM     11  O   LIG    1       -2.103   4.606   2.603  0.00  0.00    -0.520 OA
ATOM     12  C   LIG    1       -4.094   2.837   2.756  0.00  0.00    +0.350 C 
ATOM     13  O   LIG    1       -3.180   0.305   2.628  0.00  0.00    -0.500 OA
ATOM     14  N   LIG    1       -0.445   3.160   2.412  0.00  0.00    -0.530 N 
ATOM     15  C   LIG    1        0.530   4.250   2.336  0.00  0.00    +0.340 C 
BRANCH   7  16
ATOM     16  C   LIG    1       -0.551  -0.540   2.362  0.00  0.00    +0.270 C 
ATOM     17  N   LIG    1       -0.227  -1.628   2.314  0.00  0.00    -0.380 NA
ENDBRANCH   7  16
ENDBRANCH   5   6
BRANCH   1  20
ATOM     18  C   LIG    1        1.434  -0.490   6.126  0.00  0.00    +0.190 A 
ATOM     19  N   LIG    1        1.770   0.682   5.643  0.00  0.00    -0.480 NA
ATOM     20  C   LIG    1        1.914   0.500   4.319  0.00  0.00    +0.130 A 
ATOM     21  N   LIG    1        1.669  -0.752   4.069  0.00  0.00    -0.350 NA
ATOM     22  O   LIG    1        1.391  -1.338   5.094  0.00  0.00    +0.090 OA
BRANCH  18  24
ATOM     23  C   LIG    1       -0.277  -1.345   7.705  0.00  0.00    +0.060 C 
ATOM     24  C   LIG    1        1.154  -0.819   7.570  0.00  0.00    +0.120 C 
ATOM     25  C   LIG    1        2.138  -1.887   8.050  0.00  0.00    +0.060 C 
ENDBRANCH  18  24
ENDBRANCH   1  20
TORSDOF 4
