REMARK  Name = ZINCpk000000ozKu.0
REMARK                            x       y       z     vdW  Elec       q    Type
REMARK                         _______ _______ _______ _____ _____    ______ ____
ROOT
ATOM      1  C   LIG    1        8.484   4.159  -0.120  0.00  0.00    -0.090 A 
ATOM      2  C   LIG    1        8.223   4.471   1.202  0.00  0.00    +0.030 A 
ATOM      3  C   LIG    1        6.933   4.397   1.689  0.00  0.00    +0.020 A 
ATOM      4  C   LIG    1        5.897   4.008   0.850  0.00  0.00    +0.170 A 
ATOM      5  C   LIG    1        6.163   3.690  -0.475  0.00  0.00    -0.020 A 
ATOM      6  C   LIG    1        7.455   3.771  -0.958  0.00  0.00    +0.030 A 
ENDROOT
BRANCH   4   7
ATOM      7  N   LIG    1        4.588   3.931   1.340  0.00  0.00    -0.680 N 
ATOM      8  H   LIG    1        3.988   3.243   1.014  0.00  0.00    +0.410 HD
ATOM      9  C   LIG    1        4.163   4.813   2.266  0.00  0.00    +0.710 C 
ATOM     10  N   LIG    1        2.877   4.799   2.670  0.00  0.00    -0.730 N 
ATOM     11  H   LIG    1        2.258   4.153   2.294  0.00  0.00    +0.400 HD
ATOM     12  O   LIG    1        4.939   5.623   2.736  0.00  0.00    -0.560 OA
BRANCH  10  13
ATOM     13  C   LIG    1        2.414   5.758   3.676  0.00  0.00    +0.280 C 
ATOM     14  C   LIG    1        1.201   5.181   4.409  0.00  0.00    +0.040 C 
ATOM     15  C   LIG    1        0.569   6.294   5.253  0.00  0.00    +0.040 C 
ATOM     16  C   LIG    1       -0.026   7.344   4.316  0.00  0.00    +0.260 C 
ATOM     17  N   LIG    1        0.951   7.751   3.314  0.00  0.00    -0.720 N 
ATOM     18  H   LIG    1        0.803   8.589   2.849  0.00  0.00    +0.400 HD
ATOM     19  C   LIG    1        2.038   7.046   3.001  0.00  0.00    +0.500 C 
ATOM     20  O   LIG    1        2.762   7.467   2.124  0.00  0.00    -0.530 OA
ENDBRANCH  10  13
ENDBRANCH   4   7
BRANCH   1  21
ATOM     21  C   LIG    1        9.893   4.240  -0.648  0.00  0.00    +0.100 C 
BRANCH  21  23
ATOM     22  N   LIG    1       11.854   2.748  -0.862  0.00  0.00    -0.620 N 
ATOM     23  C   LIG    1       10.578   2.911  -0.460  0.00  0.00    +0.520 C 
ATOM     24  O   LIG    1        9.980   1.988   0.051  0.00  0.00    -0.530 OA
BRANCH  22  26
ATOM     25  C   LIG    1       12.288   0.584  -1.916  0.00  0.00    +0.010 C 
ATOM     26  C   LIG    1       12.519   1.455  -0.680  0.00  0.00    +0.270 C 
ENDBRANCH  22  26
BRANCH  22  27
ATOM     27  C   LIG    1       12.576   3.863  -1.480  0.00  0.00    +0.260 C 
ATOM     28  C   LIG    1       13.290   4.672  -0.395  0.00  0.00    +0.020 C 
ENDBRANCH  22  27
ENDBRANCH  21  23
ENDBRANCH   1  21
TORSDOF 6
