REMARK  Name = ZINCrD000000Ahsd.0
REMARK                            x       y       z     vdW  Elec       q    Type
REMARK                         _______ _______ _______ _____ _____    ______ ____
ROOT
ATOM      1  O   LIG    1        1.602  10.034   0.386  0.00  0.00    -0.530 OA
ATOM      2  C   LIG    1        2.334   9.506   1.196  0.00  0.00    +0.510 C 
ATOM      3  N   LIG    1        3.184  10.256   1.925  0.00  0.00    -0.730 N 
ATOM      4  H   LIG    1        3.770   9.834   2.573  0.00  0.00    +0.400 HD
ENDROOT
BRANCH   3   5
ATOM      5  C   LIG    1        3.224  11.709   1.738  0.00  0.00    +0.260 C 
BRANCH   5   6
ATOM      6  C   LIG    1        4.266  12.316   2.679  0.00  0.00    +0.030 C 
BRANCH   6   7
ATOM      7  C   LIG    1        4.308  13.832   2.484  0.00  0.00    +0.160 C 
BRANCH   7   8
ATOM      8  O   LIG    1        5.281  14.399   3.363  0.00  0.00    -0.380 OA
BRANCH   8   9
ATOM      9  C   LIG    1        5.401  15.820   3.260  0.00  0.00    +0.220 C 
BRANCH   9  10
ATOM     10  C   LIG    1        6.449  16.307   4.227  0.00  0.00    -0.090 A 
ATOM     11  C   LIG    1        6.090  16.668   5.512  0.00  0.00    +0.020 A 
ATOM     12  C   LIG    1        7.052  17.110   6.400  0.00  0.00    +0.000 A 
ATOM     13  C   LIG    1        8.372  17.202   6.000  0.00  0.00    +0.010 A 
ATOM     14  C   LIG    1        8.731  16.847   4.713  0.00  0.00    +0.000 A 
ATOM     15  C   LIG    1        7.769  16.399   3.826  0.00  0.00    +0.020 A 
ENDBRANCH   9  10
ENDBRANCH   8   9
ENDBRANCH   7   8
ENDBRANCH   6   7
ENDBRANCH   5   6
ENDBRANCH   3   5
BRANCH   2  16
ATOM     16  C   LIG    1        2.293   8.012   1.388  0.00  0.00    +0.060 C 
BRANCH  16  17
ATOM     17  C   LIG    1        1.251   7.405   0.447  0.00  0.00    +0.080 C 
BRANCH  17  18
ATOM     18  C   LIG    1        1.298   5.879   0.549  0.00  0.00    +0.010 C 
ATOM     19  C   LIG    1        0.860   5.450   1.950  0.00  0.00    +0.110 C 
ATOM     20  C   LIG    1        0.628   3.961   1.975  0.00  0.00    -0.130 A 
ATOM     21  C   LIG    1        0.881   3.244   3.128  0.00  0.00    +0.050 A 
ATOM     22  C   LIG    1        0.632   1.884   3.166  0.00  0.00    -0.010 A 
ATOM     23  C   LIG    1        0.140   1.237   2.048  0.00  0.00    +0.040 A 
ATOM     24  C   LIG    1       -0.108   1.948   0.890  0.00  0.00    -0.020 A 
ATOM     25  C   LIG    1        0.143   3.313   0.847  0.00  0.00    +0.160 A 
ATOM     26  N   LIG    1       -0.105   4.034  -0.324  0.00  0.00    -0.660 N 
ATOM     27  H   LIG    1       -0.631   3.631  -1.033  0.00  0.00    +0.410 HD
ATOM     28  C   LIG    1        0.376   5.279  -0.479  0.00  0.00    +0.520 C 
ATOM     29  O   LIG    1        0.065   5.926  -1.457  0.00  0.00    -0.510 OA
ENDBRANCH  17  18
ENDBRANCH  16  17
ENDBRANCH   2  16
TORSDOF 9
