REMARK  Name = ZINCpk00000eajfb.0
REMARK                            x       y       z     vdW  Elec       q    Type
REMARK                         _______ _______ _______ _____ _____    ______ ____
ROOT
ATOM      1  N   LIG    1        2.631   3.336   4.270  0.00  0.00    -0.720 N 
ATOM      2  H   LIG    1        3.395   3.933   4.286  0.00  0.00    +0.400 HD
ATOM      3  C   LIG    1        2.746   2.111   3.719  0.00  0.00    +0.550 C 
ATOM      4  O   LIG    1        1.789   1.361   3.699  0.00  0.00    -0.500 OA
ENDROOT
BRANCH   3   5
ATOM      5  C   LIG    1        4.035   1.679   3.139  0.00  0.00    -0.120 A 
ATOM      6  C   LIG    1        5.166   2.487   3.263  0.00  0.00    +0.040 A 
ATOM      7  C   LIG    1        6.365   2.081   2.715  0.00  0.00    +0.000 A 
ATOM      8  C   LIG    1        6.449   0.872   2.047  0.00  0.00    +0.040 A 
ATOM      9  C   LIG    1        5.333   0.063   1.925  0.00  0.00    +0.010 A 
ATOM     10  C   LIG    1        4.128   0.458   2.469  0.00  0.00    -0.030 A 
BRANCH  10  11
ATOM     11  C   LIG    1        2.914  -0.425   2.334  0.00  0.00    +0.230 C 
BRANCH  11  12
ATOM     12  N   LIG    1        2.632  -1.069   3.624  0.00  0.00    -0.510 NA
ATOM     13  C   LIG    1        1.511  -2.013   3.507  0.00  0.00    +0.150 C 
ATOM     14  C   LIG    1        1.213  -2.615   4.883  0.00  0.00    +0.230 C 
ATOM     15  O   LIG    1        2.395  -3.240   5.390  0.00  0.00    -0.390 OA
ATOM     16  C   LIG    1        3.507  -2.349   5.517  0.00  0.00    +0.230 C 
ATOM     17  C   LIG    1        3.828  -1.744   4.148  0.00  0.00    +0.130 C 
ENDBRANCH  11  12
ENDBRANCH  10  11
ENDBRANCH   3   5
BRANCH   1  20
ATOM     18  C   LIG    1        1.377   6.215   5.149  0.00  0.00    +0.160 C 
ATOM     19  C   LIG    1        1.577   4.879   5.886  0.00  0.00    +0.030 C 
ATOM     20  C   LIG    1        1.354   3.764   4.845  0.00  0.00    +0.250 C 
ATOM     21  C   LIG    1        0.466   4.424   3.761  0.00  0.00    +0.020 C 
ATOM     22  C   LIG    1        1.039   5.865   3.686  0.00  0.00    +0.170 C 
BRANCH  18  24
ATOM     23  C   LIG    1        2.646   7.879   6.319  0.00  0.00    +0.200 C 
ATOM     24  O   LIG    1        2.578   6.988   5.203  0.00  0.00    -0.380 OA
ENDBRANCH  18  24
BRANCH  22  25
ATOM     25  O   LIG    1        0.058   6.767   3.169  0.00  0.00    -0.380 OA
ATOM     26  C   LIG    1        0.159   6.992   1.762  0.00  0.00    +0.200 C 
ENDBRANCH  22  25
ENDBRANCH   1  20
TORSDOF 6
