REMARK  Name = ZINCpk000000ozHX.0
REMARK                            x       y       z     vdW  Elec       q    Type
REMARK                         _______ _______ _______ _____ _____    ______ ____
ROOT
ATOM      1  C   LIG    1        1.185   2.086   0.002  0.00  0.00    -0.130 A 
ATOM      2  C   LIG    1       -0.017   1.373   0.010  0.00  0.00    +0.090 A 
ATOM      3  C   LIG    1        0.002  -0.004   0.002  0.00  0.00    -0.100 A 
ATOM      4  C   LIG    1        1.214  -0.684  -0.013  0.00  0.00    +0.110 A 
ATOM      5  C   LIG    1        2.412   0.021  -0.021  0.00  0.00    -0.100 A 
ATOM      6  C   LIG    1        3.723  -0.721  -0.038  0.00  0.00    +0.100 C 
ATOM      7  C   LIG    1       -1.293  -0.774   0.010  0.00  0.00    +0.110 C 
ATOM      8  C   LIG    1        2.401   1.398  -0.013  0.00  0.00    +0.050 A 
ENDROOT
BRANCH   1  11
ATOM      9  N   LIG    1        2.330   4.248   0.002  0.00  0.00    -0.720 N 
ATOM     10  H   LIG    1        3.175   3.772  -0.008  0.00  0.00    +0.410 HD
ATOM     11  C   LIG    1        1.169   3.562   0.009  0.00  0.00    +0.560 C 
ATOM     12  O   LIG    1        0.110   4.159   0.022  0.00  0.00    -0.530 OA
BRANCH   9  13
ATOM     13  C   LIG    1        2.314   5.713   0.010  0.00  0.00    +0.300 C 
BRANCH  13  15
ATOM     14  N   LIG    1        3.962   7.558   0.004  0.00  0.00    -0.610 N 
ATOM     15  C   LIG    1        3.730   6.230  -0.001  0.00  0.00    +0.510 C 
ATOM     16  O   LIG    1        4.660   5.452  -0.014  0.00  0.00    -0.540 OA
BRANCH  14  18
ATOM     17  C   LIG    1        2.461   8.818   1.466  0.00  0.00    +0.020 C 
ATOM     18  C   LIG    1        2.839   8.498   0.019  0.00  0.00    +0.270 C 
ENDBRANCH  14  18
BRANCH  14  19
ATOM     19  C   LIG    1        5.338   8.061  -0.007  0.00  0.00    +0.280 C 
ATOM     20  C   LIG    1        5.803   8.243  -1.453  0.00  0.00    +0.020 C 
ENDBRANCH  14  19
ENDBRANCH  13  15
ENDBRANCH   9  13
ENDBRANCH   1  11
BRANCH   4  21
ATOM     21  O   LIG    1        1.228  -2.042  -0.021  0.00  0.00    -0.310 OA
BRANCH  21  22
ATOM     22  C   LIG    1        1.223  -2.683  -1.297  0.00  0.00    +0.270 C 
BRANCH  22  23
ATOM     23  C   LIG    1        1.240  -4.178  -1.108  0.00  0.00    +0.460 C 
ATOM     24  O   LIG    1        1.256  -4.646   0.006  0.00  0.00    -0.480 OA
BRANCH  23  25
ATOM     25  O   LIG    1        1.239  -4.990  -2.177  0.00  0.00    -0.360 OA
ATOM     26  C   LIG    1        1.256  -6.419  -1.919  0.00  0.00    +0.290 C 
ENDBRANCH  23  25
ENDBRANCH  22  23
ENDBRANCH  21  22
ENDBRANCH   4  21
TORSDOF 9
