REMARK  Name = ZINCpk00000KfKmo.2
REMARK                            x       y       z     vdW  Elec       q    Type
REMARK                         _______ _______ _______ _____ _____    ______ ____
ROOT
ATOM      1  C   LIG    1       -2.819   1.602  -0.015  0.00  0.00    +0.270 C 
ATOM      2  C   LIG    1       -2.097   1.094   1.236  0.00  0.00    +0.190 C 
ATOM      3  N   LIG    1       -0.703   1.561   1.216  0.00  0.00    -0.540 NA
ATOM      4  C   LIG    1       -0.013   1.086   0.008  0.00  0.00    +0.150 C 
ATOM      5  C   LIG    1       -0.755   1.594  -1.231  0.00  0.00    +0.250 C 
ATOM      6  O   LIG    1       -2.115   1.157  -1.178  0.00  0.00    -0.370 OA
ENDROOT
BRANCH   1  11
ATOM      7  C   LIG    1       -5.892  -0.313  -0.018  0.00  0.00    +0.230 A 
ATOM      8  N   LIG    1       -6.417   0.879  -0.126  0.00  0.00    -0.300 NA
ATOM      9  N   LIG    1       -5.349   1.792  -0.142  0.00  0.00    -0.470 N 
ATOM     10  H   LIG    1       -5.411   2.758  -0.212  0.00  0.00    +0.440 HD
ATOM     11  C   LIG    1       -4.225   1.062  -0.040  0.00  0.00    +0.290 A 
ATOM     12  N   LIG    1       -4.566  -0.200   0.028  0.00  0.00    -0.510 NA
BRANCH   7  13
ATOM     13  C   LIG    1       -6.663  -1.607   0.038  0.00  0.00    +0.150 C 
BRANCH  13  15
ATOM     14  C   LIG    1       -7.642  -3.460  -1.322  0.00  0.00    +0.030 C 
ATOM     15  C   LIG    1       -6.859  -2.146  -1.380  0.00  0.00    +0.010 C 
ENDBRANCH  13  15
ENDBRANCH   7  13
ENDBRANCH   1  11
BRANCH   3  16
ATOM     16  C   LIG    1        0.012   1.142   2.429  0.00  0.00    +0.210 C 
BRANCH  16  17
ATOM     17  C   LIG    1        1.371   1.841   2.488  0.00  0.00    +0.080 C 
BRANCH  17  18
ATOM     18  C   LIG    1        2.105   1.411   3.732  0.00  0.00    +0.530 C 
ATOM     19  N   LIG    1        3.332   1.903   3.995  0.00  0.00    -0.630 N 
ATOM     20  H   LIG    1        3.743   2.533   3.384  0.00  0.00    +0.420 HD
ATOM     21  O   LIG    1        1.590   0.623   4.497  0.00  0.00    -0.510 OA
BRANCH  19  22
ATOM     22  C   LIG    1        4.010   1.505   5.147  0.00  0.00    +0.240 A 
ATOM     23  N   LIG    1        5.197   1.894   5.533  0.00  0.00    -0.390 NA
ATOM     24  O   LIG    1        5.517   1.373   6.576  0.00  0.00    +0.100 OA
ATOM     25  C   LIG    1        4.562   0.550   7.033  0.00  0.00    -0.020 A 
ATOM     26  C   LIG    1        4.607  -0.267   8.299  0.00  0.00    +0.190 C 
ATOM     27  C   LIG    1        3.547   0.601   6.140  0.00  0.00    -0.040 A 
ENDBRANCH  19  22
ENDBRANCH  17  18
ENDBRANCH  16  17
ENDBRANCH   3  16
TORSDOF 7
