REMARK  Name = ZINCpk00000KfKmo.0
REMARK                            x       y       z     vdW  Elec       q    Type
REMARK                         _______ _______ _______ _____ _____    ______ ____
ROOT
ATOM      1  C   LIG    1       -1.855   5.466   5.605  0.00  0.00    +0.280 C 
ATOM      2  C   LIG    1       -3.042   6.433   5.625  0.00  0.00    +0.190 C 
ATOM      3  N   LIG    1       -3.007   7.217   6.868  0.00  0.00    -0.540 NA
ATOM      4  C   LIG    1       -3.057   6.334   8.043  0.00  0.00    +0.150 C 
ATOM      5  C   LIG    1       -1.869   5.368   7.998  0.00  0.00    +0.240 C 
ATOM      6  O   LIG    1       -1.901   4.637   6.769  0.00  0.00    -0.370 OA
ENDROOT
BRANCH   1  10
ATOM      7  C   LIG    1       -1.455   3.595   2.515  0.00  0.00    +0.190 A 
ATOM      8  N   LIG    1       -2.658   3.266   2.900  0.00  0.00    -0.290 NA
ATOM      9  N   LIG    1       -2.939   3.865   4.002  0.00  0.00    -0.260 NA
ATOM     10  C   LIG    1       -1.928   4.605   4.370  0.00  0.00    +0.170 A 
ATOM     11  N   LIG    1       -0.956   4.450   3.440  0.00  0.00    -0.570 N 
ATOM     12  H   LIG    1       -0.081   4.869   3.435  0.00  0.00    +0.430 HD
BRANCH   7  13
ATOM     13  C   LIG    1       -0.750   3.109   1.275  0.00  0.00    +0.150 C 
BRANCH  13  15
ATOM     14  C   LIG    1       -0.013   1.086   0.008  0.00  0.00    +0.020 C 
ATOM     15  C   LIG    1       -0.729   1.579   1.267  0.00  0.00    +0.020 C 
ENDBRANCH  13  15
ENDBRANCH   7  13
ENDBRANCH   1  10
BRANCH   3  16
ATOM     16  C   LIG    1       -4.099   8.199   6.902  0.00  0.00    +0.210 C 
BRANCH  16  17
ATOM     17  C   LIG    1       -4.186   8.818   8.298  0.00  0.00    +0.080 C 
BRANCH  17  18
ATOM     18  C   LIG    1       -5.306   9.825   8.333  0.00  0.00    +0.530 C 
ATOM     19  N   LIG    1       -5.571  10.501   9.469  0.00  0.00    -0.630 N 
ATOM     20  H   LIG    1       -5.040  10.339  10.264  0.00  0.00    +0.420 HD
ATOM     21  O   LIG    1       -5.970  10.028   7.338  0.00  0.00    -0.510 OA
BRANCH  19  22
ATOM     22  C   LIG    1       -6.608  11.433   9.500  0.00  0.00    +0.240 A 
ATOM     23  N   LIG    1       -6.979  12.160  10.522  0.00  0.00    -0.390 NA
ATOM     24  O   LIG    1       -7.911  12.877  10.240  0.00  0.00    +0.100 OA
ATOM     25  C   LIG    1       -8.291  12.718   8.964  0.00  0.00    -0.020 A 
ATOM     26  C   LIG    1       -9.413  13.440   8.262  0.00  0.00    +0.190 C 
ATOM     27  C   LIG    1       -7.468  11.788   8.428  0.00  0.00    -0.040 A 
ENDBRANCH  19  22
ENDBRANCH  17  18
ENDBRANCH  16  17
ENDBRANCH   3  16
TORSDOF 7
