REMARK  Name = ZINCpk00000KfKmo.1
REMARK                            x       y       z     vdW  Elec       q    Type
REMARK                         _______ _______ _______ _____ _____    ______ ____
ROOT
ATOM      1  C   LIG    1       -8.420  -1.549   0.240  0.00  0.00    +0.290 C 
ATOM      2  C   LIG    1       -7.230  -0.587   0.302  0.00  0.00    +0.170 C 
ATOM      3  N   LIG    1       -5.989  -1.333   0.048  0.00  0.00    -0.530 NA
ATOM      4  C   LIG    1       -5.819  -2.410   1.034  0.00  0.00    +0.140 C 
ATOM      5  C   LIG    1       -7.022  -3.354   0.965  0.00  0.00    +0.250 C 
ATOM      6  O   LIG    1       -8.222  -2.606   1.183  0.00  0.00    -0.370 OA
ENDROOT
BRANCH   1   9
ATOM      7  C   LIG    1      -11.585   0.196   0.323  0.00  0.00    +0.290 A 
ATOM      8  N   LIG    1      -10.618  -0.428  -0.299  0.00  0.00    -0.530 NA
ATOM      9  C   LIG    1       -9.687  -0.805   0.576  0.00  0.00    +0.230 A 
ATOM     10  N   LIG    1      -10.052  -0.429   1.773  0.00  0.00    -0.280 NA
ATOM     11  N   LIG    1      -11.284   0.231   1.633  0.00  0.00    -0.480 N 
ATOM     12  H   LIG    1      -11.814   0.629   2.341  0.00  0.00    +0.440 HD
BRANCH   7  13
ATOM     13  C   LIG    1      -12.822   0.774  -0.316  0.00  0.00    +0.150 C 
BRANCH  13  15
ATOM     14  C   LIG    1      -13.851   2.845  -1.260  0.00  0.00    +0.030 C 
ATOM     15  C   LIG    1      -12.597   2.258  -0.611  0.00  0.00    +0.010 C 
ENDBRANCH  13  15
ENDBRANCH   7  13
ENDBRANCH   1   9
BRANCH   3  16
ATOM     16  C   LIG    1       -4.827  -0.436   0.043  0.00  0.00    +0.210 C 
BRANCH  16  17
ATOM     17  C   LIG    1       -3.542  -1.266   0.027  0.00  0.00    +0.070 C 
BRANCH  17  18
ATOM     18  C   LIG    1       -2.349  -0.345   0.021  0.00  0.00    +0.530 C 
ATOM     19  N   LIG    1       -1.102  -0.857   0.007  0.00  0.00    -0.630 N 
ATOM     20  H   LIG    1       -0.973  -1.818   0.001  0.00  0.00    +0.420 HD
ATOM     21  O   LIG    1       -2.511   0.857   0.029  0.00  0.00    -0.510 OA
BRANCH  19  22
ATOM     22  C   LIG    1        0.002  -0.004   0.002  0.00  0.00    +0.240 A 
ATOM     23  N   LIG    1        1.262  -0.352  -0.012  0.00  0.00    -0.390 NA
ATOM     24  O   LIG    1        1.988   0.615  -0.014  0.00  0.00    +0.100 OA
ATOM     25  C   LIG    1        1.291   1.760  -0.001  0.00  0.00    -0.020 A 
ATOM     26  C   LIG    1        1.854   3.158   0.001  0.00  0.00    +0.190 C 
ATOM     27  C   LIG    1       -0.017   1.416   0.010  0.00  0.00    -0.040 A 
ENDBRANCH  19  22
ENDBRANCH  17  18
ENDBRANCH  16  17
ENDBRANCH   3  16
TORSDOF 7
