REMARK  Name = ZINCrg00000PrUJn.0
REMARK                            x       y       z     vdW  Elec       q    Type
REMARK                         _______ _______ _______ _____ _____    ______ ____
ROOT
ATOM      1  C   LIG    1       -2.571   4.370  -0.034  0.00  0.00    +0.510 C 
ATOM      2  N   LIG    1       -1.460   3.608  -0.053  0.00  0.00    -0.610 N 
ATOM      3  C   LIG    1       -0.770   3.260   1.196  0.00  0.00    +0.260 C 
ATOM      4  C   LIG    1       -0.609   1.737   1.262  0.00  0.00    +0.030 C 
ATOM      5  C   LIG    1        0.097   1.247  -0.004  0.00  0.00    +0.030 C 
ATOM      6  C   LIG    1       -0.753   1.591  -1.230  0.00  0.00    +0.110 C 
ATOM      7  C   LIG    1       -0.915   3.111  -1.324  0.00  0.00    +0.330 C 
ATOM      8  O   LIG    1       -3.132   4.652  -1.072  0.00  0.00    -0.510 OA
ENDROOT
BRANCH   6   9
ATOM      9  C   LIG    1       -0.072   1.079  -2.473  0.00  0.00    +0.510 C 
ATOM     10  N   LIG    1       -0.791   0.853  -3.590  0.00  0.00    -0.610 N 
ATOM     11  C   LIG    1       -2.220   1.155  -3.766  0.00  0.00    +0.260 C 
ATOM     12  C   LIG    1       -2.612   0.705  -5.189  0.00  0.00    +0.020 C 
ATOM     13  C   LIG    1       -1.524  -0.348  -5.530  0.00  0.00    +0.040 C 
ATOM     14  C   LIG    1       -0.278   0.256  -4.837  0.00  0.00    +0.250 C 
ATOM     15  O   LIG    1        1.122   0.871  -2.468  0.00  0.00    -0.530 OA
ENDBRANCH   6   9
BRANCH   6  16
ATOM     16  O   LIG    1       -2.039   0.981  -1.104  0.00  0.00    -0.530 OA
ATOM     17  H   LIG    1       -2.009   0.025  -0.958  0.00  0.00    +0.380 HD
ENDBRANCH   6  16
BRANCH   1  18
ATOM     18  C   LIG    1       -3.118   4.873   1.278  0.00  0.00    +0.090 C 
BRANCH  18  29
ATOM     19  O   LIG    1       -5.506   4.168  -0.495  0.00  0.00    -0.460 OA
ATOM     20  C   LIG    1       -5.502   4.828   0.523  0.00  0.00    +0.530 C 
ATOM     21  N   LIG    1       -6.498   4.918   1.425  0.00  0.00    -0.670 N 
ATOM     22  H   LIG    1       -7.343   4.448   1.346  0.00  0.00    +0.410 HD
ATOM     23  C   LIG    1       -6.176   5.765   2.486  0.00  0.00    +0.150 A 
ATOM     24  C   LIG    1       -6.908   6.133   3.613  0.00  0.00    -0.010 A 
ATOM     25  C   LIG    1       -6.366   7.001   4.538  0.00  0.00    +0.050 A 
ATOM     26  C   LIG    1       -5.095   7.512   4.356  0.00  0.00    -0.010 A 
ATOM     27  C   LIG    1       -4.361   7.152   3.239  0.00  0.00    +0.070 A 
ATOM     28  C   LIG    1       -4.899   6.286   2.314  0.00  0.00    -0.140 A 
ATOM     29  C   LIG    1       -4.374   5.707   1.020  0.00  0.00    +0.060 C 
ENDBRANCH  18  29
ENDBRANCH   1  18
TORSDOF 4
