REMARK  Name = ZINCqH0000050zN4.0
REMARK                            x       y       z     vdW  Elec       q    Type
REMARK                         _______ _______ _______ _____ _____    ______ ____
ROOT
ATOM      1  O   LIG    1        3.403   2.261  -0.425  0.00  0.00    -0.320 OA
ENDROOT
BRANCH   1   2
ATOM      2  C   LIG    1        2.447   1.225  -0.076  0.00  0.00    +0.190 C 
ATOM      3  C   LIG    1        2.709   0.751   1.355  0.00  0.00    +0.080 C 
BRANCH   2   6
ATOM      4  N   LIG    1       -0.011   0.966   0.007  0.00  0.00    -0.670 N 
ATOM      5  H   LIG    1        0.123   0.012   0.124  0.00  0.00    +0.410 HD
ATOM      6  C   LIG    1        1.049   1.778  -0.174  0.00  0.00    +0.520 C 
ATOM      7  O   LIG    1        0.877   2.954  -0.417  0.00  0.00    -0.490 OA
BRANCH   4  13
ATOM      8  C   LIG    1       -4.800   0.474  -0.991  0.00  0.00    +0.090 C 
ATOM      9  C   LIG    1       -3.645   1.281  -0.455  0.00  0.00    -0.070 A 
ATOM     10  C   LIG    1       -3.865   2.548   0.052  0.00  0.00    -0.010 A 
ATOM     11  C   LIG    1       -2.808   3.292   0.544  0.00  0.00    +0.030 A 
ATOM     12  C   LIG    1       -1.530   2.768   0.536  0.00  0.00    +0.000 A 
ATOM     13  C   LIG    1       -1.305   1.497   0.022  0.00  0.00    +0.150 A 
ATOM     14  C   LIG    1       -2.369   0.753  -0.472  0.00  0.00    -0.010 A 
ENDBRANCH   4  13
ENDBRANCH   2   6
ENDBRANCH   1   2
BRANCH   1  15
ATOM     15  C   LIG    1        4.556   1.863  -0.985  0.00  0.00    +0.490 C 
ATOM     16  O   LIG    1        4.760   0.688  -1.178  0.00  0.00    -0.490 OA
BRANCH  15  17
ATOM     17  C   LIG    1        5.596   2.882  -1.374  0.00  0.00    +0.120 C 
BRANCH  17  18
ATOM     18  S   LIG    1        7.025   2.039  -2.098  0.00  0.00    +0.160 S 
BRANCH  18  19
ATOM     19  C   LIG    1        8.053   3.427  -2.450  0.00  0.00    +0.200 A 
ATOM     20  N   LIG    1        9.240   3.362  -2.998  0.00  0.00    -0.450 NA
ATOM     21  C   LIG    1        9.735   4.624  -3.118  0.00  0.00    +0.030 A 
ATOM     22  C   LIG    1       10.928   5.147  -3.618  0.00  0.00    +0.080 A 
ATOM     23  C   LIG    1       11.138   6.509  -3.600  0.00  0.00    +0.020 A 
ATOM     24  C   LIG    1       10.171   7.360  -3.087  0.00  0.00    +0.050 A 
ATOM     25  C   LIG    1        8.987   6.856  -2.588  0.00  0.00    +0.050 A 
ATOM     26  C   LIG    1        8.760   5.489  -2.599  0.00  0.00    +0.010 A 
ATOM     27  O   LIG    1        7.729   4.709  -2.201  0.00  0.00    -0.210 OA
ENDBRANCH  18  19
ENDBRANCH  17  18
ENDBRANCH  15  17
ENDBRANCH   1  15
TORSDOF 7
