REMARK  Name = ZINCah0000002oTR.0
REMARK                            x       y       z     vdW  Elec       q    Type
REMARK                         _______ _______ _______ _____ _____    ______ ____
ROOT
ATOM      1  N   LIG    1        0.629   3.161   0.013  0.00  0.00    -0.410 N 
ATOM      2  C   LIG    1        1.078   1.885   0.002  0.00  0.00    +0.160 A 
ATOM      3  C   LIG    1       -0.013   1.076   0.008  0.00  0.00    +0.150 A 
ATOM      4  N   LIG    1       -1.101   1.838   0.017  0.00  0.00    -0.430 NA
ATOM      5  C   LIG    1       -0.738   3.107   0.026  0.00  0.00    +0.080 A 
ENDROOT
BRANCH   5   6
ATOM      6  C   LIG    1       -1.644   4.259   0.041  0.00  0.00    +0.570 C 
ATOM      7  O   LIG    1       -1.193   5.385   0.042  0.00  0.00    -0.460 OA
ENDBRANCH   5   6
BRANCH   1   8
ATOM      8  C   LIG    1        1.452   4.373   0.012  0.00  0.00    +0.310 C 
BRANCH   8  10
ATOM      9  C   LIG    1        2.507   6.123   1.450  0.00  0.00    +0.030 C 
ATOM     10  C   LIG    1        1.648   4.857   1.450  0.00  0.00    +0.010 C 
ENDBRANCH   8  10
ENDBRANCH   1   8
TORSDOF 3
