REMARK  Name = ZINCpe00000MJL1u.1
REMARK                            x       y       z     vdW  Elec       q    Type
REMARK                         _______ _______ _______ _____ _____    ______ ____
ROOT
ATOM      1  C   LIG    1        2.579  -2.568   3.496  0.00  0.00    +0.690 C 
ATOM      2  N   LIG    1        2.652  -2.527   2.151  0.00  0.00    -0.720 N 
ATOM      3  H   LIG    1        3.518  -2.508   1.713  0.00  0.00    +0.400 HD
ATOM      4  O   LIG    1        1.492  -2.592   4.046  0.00  0.00    -0.610 OA
ENDROOT
BRANCH   1   9
ATOM      5  N   LIG    1        4.156  -2.683   7.725  0.00  0.00    -0.390 N 
ATOM      6  C   LIG    1        2.795  -2.690   7.631  0.00  0.00    +0.350 A 
ATOM      7  C   LIG    1        2.446  -2.654   6.328  0.00  0.00    -0.110 A 
ATOM      8  C   LIG    1        3.627  -2.622   5.555  0.00  0.00    +0.500 A 
ATOM      9  N   LIG    1        3.699  -2.582   4.228  0.00  0.00    -0.690 NA
ATOM     10  N   LIG    1        4.687  -2.646   6.429  0.00  0.00    -0.480 N 
ATOM     11  H   LIG    1        5.627  -2.637   6.192  0.00  0.00    +0.450 HD
BRANCH   5  12
ATOM     12  C   LIG    1        4.930  -2.714   8.969  0.00  0.00    +0.350 C 
BRANCH  12  13
ATOM     13  C   LIG    1        5.082  -1.291   9.511  0.00  0.00    +0.160 C 
BRANCH  13  15
ATOM     14  C   LIG    1        7.241  -1.750  10.506  0.00  0.00    +0.190 C 
ATOM     15  N   LIG    1        5.859  -1.322  10.757  0.00  0.00    -0.540 NA
ATOM     16  C   LIG    1        5.826  -0.017  11.431  0.00  0.00    +0.200 C 
ENDBRANCH  13  15
ENDBRANCH  12  13
ENDBRANCH   5  12
ENDBRANCH   1   9
BRANCH   2  17
ATOM     17  C   LIG    1        1.425  -2.512   1.351  0.00  0.00    +0.250 C 
ATOM     18  C   LIG    1        0.988  -3.953   1.004  0.00  0.00    +0.010 C 
ATOM     19  C   LIG    1        1.034  -3.998  -0.540  0.00  0.00    +0.200 C 
ATOM     20  O   LIG    1        0.886  -2.622  -0.954  0.00  0.00    -0.340 OA
ATOM     21  C   LIG    1        1.685  -1.857  -0.024  0.00  0.00    +0.240 C 
BRANCH  21  22
ATOM     22  C   LIG    1        1.240  -0.418  -0.012  0.00  0.00    +0.200 A 
ATOM     23  N   LIG    1        0.002  -0.004   0.002  0.00  0.00    -0.460 NA
ATOM     24  C   LIG    1       -0.016   1.337   0.009  0.00  0.00    +0.140 A 
ATOM     25  C   LIG    1        1.259   1.771  -0.000  0.00  0.00    +0.130 A 
ATOM     26  N   LIG    1        2.056   0.658  -0.014  0.00  0.00    -0.450 N 
ATOM     27  C   LIG    1        3.521   0.638  -0.027  0.00  0.00    +0.330 C 
ENDBRANCH  21  22
ENDBRANCH   2  17
TORSDOF 6
