REMARK  Name = ZINCrH000004uJb7.0
REMARK                            x       y       z     vdW  Elec       q    Type
REMARK                         _______ _______ _______ _____ _____    ______ ____
ROOT
ATOM      1  O   LIG    1        2.770   3.968  -1.238  0.00  0.00    -0.520 OA
ATOM      2  C   LIG    1        2.206   4.973  -1.616  0.00  0.00    +0.540 C 
ATOM      3  N   LIG    1        1.529   5.737  -0.736  0.00  0.00    -0.720 N 
ATOM      4  H   LIG    1        1.140   6.579  -1.023  0.00  0.00    +0.410 HD
ENDROOT
BRANCH   2   5
ATOM      5  C   LIG    1        2.262   5.368  -3.070  0.00  0.00    -0.030 C 
ATOM      6  C   LIG    1        3.227   4.441  -3.815  0.00  0.00    +0.040 C 
ATOM      7  C   LIG    1        4.638   4.620  -3.242  0.00  0.00    +0.220 C 
ATOM      8  O   LIG    1        5.027   5.990  -3.357  0.00  0.00    -0.380 OA
ATOM      9  C   LIG    1        4.187   6.898  -2.641  0.00  0.00    +0.210 C 
ATOM     10  C   LIG    1        2.760   6.811  -3.190  0.00  0.00    +0.020 C 
BRANCH   5  11
ATOM     11  C   LIG    1        0.887   5.257  -3.676  0.00  0.00    -0.080 A 
ATOM     12  C   LIG    1        0.314   6.353  -4.294  0.00  0.00    +0.020 A 
ATOM     13  C   LIG    1       -0.945   6.250  -4.855  0.00  0.00    +0.000 A 
ATOM     14  C   LIG    1       -1.636   5.054  -4.788  0.00  0.00    +0.000 A 
ATOM     15  C   LIG    1       -1.065   3.960  -4.164  0.00  0.00    +0.010 A 
ATOM     16  C   LIG    1        0.197   4.061  -3.609  0.00  0.00    +0.010 A 
ENDBRANCH   5  11
ENDBRANCH   2   5
BRANCH   3  17
ATOM     17  C   LIG    1        1.379   5.297   0.653  0.00  0.00    +0.430 C 
BRANCH  17  18
ATOM     18  C   LIG    1        0.587   6.322   1.422  0.00  0.00    +0.170 A 
ATOM     19  N   LIG    1       -0.710   6.335   1.552  0.00  0.00    -0.450 NA
ATOM     20  C   LIG    1       -1.061   7.391   2.301  0.00  0.00    +0.170 A 
ATOM     21  C   LIG    1        0.077   8.049   2.640  0.00  0.00    +0.010 A 
ATOM     22  O   LIG    1        1.103   7.368   2.083  0.00  0.00    -0.190 OA
BRANCH  21  23
ATOM     23  C   LIG    1        0.176   9.274   3.462  0.00  0.00    -0.020 A 
ATOM     24  C   LIG    1       -0.979   9.873   3.969  0.00  0.00    +0.040 A 
ATOM     25  C   LIG    1       -0.879  11.012   4.739  0.00  0.00    +0.020 A 
ATOM     26  C   LIG    1        0.360  11.568   5.001  0.00  0.00    +0.020 A 
ATOM     27  C   LIG    1        1.508  10.983   4.496  0.00  0.00    +0.010 A 
ATOM     28  C   LIG    1        1.423   9.840   3.729  0.00  0.00    +0.030 A 
ENDBRANCH  21  23
ENDBRANCH  17  18
ENDBRANCH   3  17
TORSDOF 5
