REMARK  Name = ZINCkj000005feGG.0
REMARK                            x       y       z     vdW  Elec       q    Type
REMARK                         _______ _______ _______ _____ _____    ______ ____
ROOT
ATOM      1  C   LIG    1       -3.642   2.463   2.110  0.00  0.00    +0.500 C 
ATOM      2  N   LIG    1       -3.016   1.514   1.387  0.00  0.00    -0.590 N 
ATOM      3  C   LIG    1       -2.714   0.214   1.991  0.00  0.00    +0.300 C 
ATOM      4  O   LIG    1       -3.892   3.540   1.611  0.00  0.00    -0.510 OA
ENDROOT
BRANCH   1   5
ATOM      5  C   LIG    1       -4.032   2.187   3.539  0.00  0.00    +0.180 C 
BRANCH   5   6
ATOM      6  N   LIG    1       -4.244   3.459   4.244  0.00  0.00    -0.620 N 
ATOM      7  H   LIG    1       -4.505   3.274   5.200  0.00  0.00    +0.440 HD
ATOM      8  H   LIG    1       -4.980   3.977   3.788  0.00  0.00    +0.440 HD
ATOM      9  H   LIG    1       -3.392   3.999   4.226  0.00  0.00    +0.440 HD
ENDBRANCH   5   6
BRANCH   5  11
ATOM     10  C   LIG    1       -5.720   1.088   5.017  0.00  0.00    +0.060 C 
ATOM     11  C   LIG    1       -5.324   1.368   3.566  0.00  0.00    +0.020 C 
ATOM     12  C   LIG    1       -6.441   2.154   2.876  0.00  0.00    +0.060 C 
ENDBRANCH   5  11
ENDBRANCH   1   5
BRANCH   2  13
ATOM     13  C   LIG    1       -2.636   1.782  -0.002  0.00  0.00    +0.410 C 
BRANCH  13  14
ATOM     14  C   LIG    1       -1.266   2.408  -0.037  0.00  0.00    -0.220 A 
ATOM     15  C   LIG    1       -0.468   2.636   1.032  0.00  0.00    +0.240 A 
ATOM     16  N   LIG    1        0.666   3.214   0.582  0.00  0.00    -0.350 N 
ATOM     17  N   LIG    1        0.564   3.340  -0.809  0.00  0.00    -0.220 NA
ATOM     18  C   LIG    1        1.804   3.634   1.404  0.00  0.00    +0.380 C 
ATOM     19  C   LIG    1       -0.593   2.854  -1.179  0.00  0.00    -0.000 A 
BRANCH  19  20
ATOM     20  C   LIG    1       -1.114   2.791  -2.592  0.00  0.00    +0.550 C 
ATOM     21  F   LIG    1       -2.300   3.526  -2.685  0.00  0.00    -0.160 F 
ATOM     22  F   LIG    1       -1.363   1.458  -2.938  0.00  0.00    -0.160 F 
ATOM     23  F   LIG    1       -0.162   3.329  -3.465  0.00  0.00    -0.160 F 
ENDBRANCH  19  20
ENDBRANCH  13  14
ENDBRANCH   2  13
TORSDOF 6
