REMARK  Name = ZINCtV00000L6kEU.0
REMARK                            x       y       z     vdW  Elec       q    Type
REMARK                         _______ _______ _______ _____ _____    ______ ____
ROOT
ATOM      1  C   LIG    1       -1.661   1.069   3.102  0.00  0.00    +0.120 A 
ATOM      2  C   LIG    1       -0.570   0.240   2.880  0.00  0.00    -0.030 A 
ATOM      3  C   LIG    1        0.260  -0.130   3.923  0.00  0.00    +0.020 A 
ATOM      4  C   LIG    1        0.000   0.330   5.204  0.00  0.00    +0.120 A 
ATOM      5  C   LIG    1       -1.092   1.173   5.422  0.00  0.00    -0.020 A 
ATOM      6  C   LIG    1       -1.336   1.685   6.821  0.00  0.00    -0.100 A 
ATOM      7  C   LIG    1       -0.341   1.504   7.751  0.00  0.00    -0.070 A 
ATOM      8  C   LIG    1        0.991   0.851   7.418  0.00  0.00    +0.240 C 
ATOM      9  C   LIG    1        1.495   0.067   8.632  0.00  0.00    +0.110 C 
ATOM     10  C   LIG    1        2.011   1.928   7.044  0.00  0.00    +0.070 C 
ATOM     11  S   LIG    1       -0.759   2.094   9.304  0.00  0.00    +0.110 S 
ATOM     12  S   LIG    1       -2.635   2.791   8.781  0.00  0.00    +0.120 S 
ATOM     13  C   LIG    1       -2.542   2.317   7.139  0.00  0.00    +0.050 A 
ATOM     14  S   LIG    1       -3.795   2.589   6.005  0.00  0.00    -0.330 S 
ATOM     15  N   LIG    1        0.802  -0.062   6.285  0.00  0.00    -0.540 N 
ATOM     16  C   LIG    1        1.397  -1.271   6.283  0.00  0.00    +0.520 C 
ATOM     17  O   LIG    1        2.044  -1.630   7.244  0.00  0.00    -0.500 OA
ATOM     18  C   LIG    1       -1.924   1.545   4.380  0.00  0.00    +0.080 A 
ENDROOT
BRANCH   1  19
ATOM     19  O   LIG    1       -2.470   1.419   2.067  0.00  0.00    -0.310 OA
BRANCH  19  21
ATOM     20  C   LIG    1       -3.153   1.396  -0.252  0.00  0.00    +0.070 C 
ATOM     21  C   LIG    1       -2.137   0.898   0.778  0.00  0.00    +0.170 C 
ENDBRANCH  19  21
ENDBRANCH   1  19
BRANCH  16  22
ATOM     22  C   LIG    1        1.258  -2.177   5.087  0.00  0.00    +0.120 C 
BRANCH  22  23
ATOM     23  C   LIG    1        1.572  -3.595   5.492  0.00  0.00    -0.090 A 
ATOM     24  C   LIG    1        2.868  -4.067   5.403  0.00  0.00    +0.060 A 
ATOM     25  C   LIG    1        3.159  -5.365   5.779  0.00  0.00    -0.010 A 
ATOM     26  C   LIG    1        2.149  -6.196   6.234  0.00  0.00    +0.100 A 
ATOM     27  C   LIG    1        0.850  -5.723   6.317  0.00  0.00    -0.010 A 
ATOM     28  F   LIG    1        2.430  -7.466   6.596  0.00  0.00    -0.140 F 
ATOM     29  C   LIG    1        0.563  -4.423   5.946  0.00  0.00    +0.050 A 
ENDBRANCH  22  23
ENDBRANCH  16  22
TORSDOF 4
