REMARK  Name = ZINCnE000008J5d0.0
REMARK                            x       y       z     vdW  Elec       q    Type
REMARK                         _______ _______ _______ _____ _____    ______ ____
ROOT
ATOM      1  C   LIG    1       -2.648  -0.170   0.013  0.00  0.00    +0.120 C 
ATOM      2  C   LIG    1       -2.464   1.326   0.021  0.00  0.00    -0.020 A 
ATOM      3  C   LIG    1       -1.252   1.913   0.018  0.00  0.00    -0.230 A 
ATOM      4  S   LIG    1       -1.427   3.659   0.036  0.00  0.00    +0.260 S 
ATOM      5  C   LIG    1       -3.131   3.552   0.038  0.00  0.00    -0.020 A 
ATOM      6  N   LIG    1       -4.094   4.535   0.049  0.00  0.00    -0.580 N 
ATOM      7  H   LIG    1       -3.824   5.466   0.053  0.00  0.00    +0.420 HD
ATOM      8  C   LIG    1       -5.402   4.228   0.053  0.00  0.00    +0.450 A 
ATOM      9  N   LIG    1       -5.837   2.999   0.048  0.00  0.00    -0.580 NA
ATOM     10  C   LIG    1       -4.991   1.956   0.037  0.00  0.00    +0.550 A 
ATOM     11  O   LIG    1       -5.415   0.812   0.032  0.00  0.00    -0.480 OA
ATOM     12  C   LIG    1       -3.534   2.220   0.032  0.00  0.00    -0.220 A 
ENDROOT
BRANCH   3  13
ATOM     13  C   LIG    1       -0.015   1.221   0.009  0.00  0.00    +0.540 C 
ATOM     14  O   LIG    1        1.038   1.848   0.002  0.00  0.00    -0.690 OA
ATOM     15  O   LIG    1        0.002  -0.004   0.002  0.00  0.00    -0.660 OA
ENDBRANCH   3  13
BRANCH   8  16
ATOM     16  C   LIG    1       -6.407   5.350   0.065  0.00  0.00    +0.160 C 
BRANCH  16  17
ATOM     17  S   LIG    1       -8.085   4.659   0.068  0.00  0.00    +0.030 S 
BRANCH  17  18
ATOM     18  C   LIG    1       -9.105   6.096   0.082  0.00  0.00    -0.120 A 
ATOM     19  C   LIG    1       -8.527   7.359   0.092  0.00  0.00    +0.020 A 
ATOM     20  C   LIG    1       -9.329   8.484   0.097  0.00  0.00    +0.010 A 
ATOM     21  C   LIG    1      -10.708   8.352   0.102  0.00  0.00    +0.090 A 
ATOM     22  C   LIG    1      -11.286   7.094   0.098  0.00  0.00    +0.010 A 
ATOM     23  F   LIG    1      -11.490   9.454   0.113  0.00  0.00    -0.140 F 
ATOM     24  C   LIG    1      -10.488   5.967   0.087  0.00  0.00    +0.070 A 
ENDBRANCH  17  18
ENDBRANCH  16  17
ENDBRANCH   8  16
TORSDOF 4
