REMARK  Name = ZINCrH000004mUj4.0
REMARK                            x       y       z     vdW  Elec       q    Type
REMARK                         _______ _______ _______ _____ _____    ______ ____
ROOT
ATOM      1  C   LIG    1        2.517   5.584   0.011  0.00  0.00    +0.190 C 
ATOM      2  C   LIG    1        2.620   6.114  -1.431  0.00  0.00    +0.020 C 
ATOM      3  C   LIG    1        1.384   7.023  -1.617  0.00  0.00    +0.020 C 
ATOM      4  C   LIG    1        1.005   7.394  -0.162  0.00  0.00    +0.180 C 
ATOM      5  N   LIG    1        1.275   6.141   0.589  0.00  0.00    -0.490 NA
ENDROOT
BRANCH   1  10
ATOM      6  C   LIG    1        1.158   2.058  -0.004  0.00  0.00    +0.090 A 
ATOM      7  C   LIG    1        2.326   1.310  -0.011  0.00  0.00    -0.040 A 
ATOM      8  C   LIG    1        3.553   1.946  -0.021  0.00  0.00    -0.040 A 
ATOM      9  C   LIG    1        3.616   3.331  -0.012  0.00  0.00    +0.090 A 
ATOM     10  C   LIG    1        2.448   4.079   0.001  0.00  0.00    -0.070 A 
ATOM     11  C   LIG    1        1.222   3.443   0.005  0.00  0.00    +0.070 A 
BRANCH   6  13
ATOM     12  C   LIG    1       -0.039   0.003  -0.010  0.00  0.00    +0.230 C 
ATOM     13  O   LIG    1       -0.049   1.432   0.000  0.00  0.00    -0.320 OA
ENDBRANCH   6  13
BRANCH   9  14
ATOM     14  O   LIG    1        4.824   3.957  -0.016  0.00  0.00    -0.320 OA
ATOM     15  C   LIG    1        5.986   3.124  -0.030  0.00  0.00    +0.230 C 
ENDBRANCH   9  14
ENDBRANCH   1  10
BRANCH   5  16
ATOM     16  C   LIG    1        1.438   6.413   2.024  0.00  0.00    +0.210 C 
BRANCH  16  17
ATOM     17  C   LIG    1        0.254   7.199   2.524  0.00  0.00    +0.520 C 
ATOM     18  N   LIG    1        0.186   7.564   3.820  0.00  0.00    -0.670 N 
ATOM     19  H   LIG    1        0.865   7.264   4.444  0.00  0.00    +0.420 HD
ATOM     20  O   LIG    1       -0.638   7.504   1.761  0.00  0.00    -0.500 OA
BRANCH  18  21
ATOM     21  C   LIG    1       -0.864   8.377   4.264  0.00  0.00    +0.170 A 
ATOM     22  C   LIG    1       -2.131   8.239   3.712  0.00  0.00    +0.060 A 
ATOM     23  C   LIG    1       -3.166   9.041   4.151  0.00  0.00    +0.050 A 
ATOM     24  C   LIG    1       -2.943   9.982   5.141  0.00  0.00    +0.050 A 
ATOM     25  C   LIG    1       -1.679  10.122   5.695  0.00  0.00    +0.090 A 
ATOM     26  F   LIG    1       -1.462  11.040   6.662  0.00  0.00    -0.120 F 
ATOM     27  F   LIG    1       -3.957  10.766   5.569  0.00  0.00    -0.130 F 
ATOM     28  C   LIG    1       -0.641   9.316   5.262  0.00  0.00    -0.010 A 
ENDBRANCH  18  21
ENDBRANCH  16  17
ENDBRANCH   5  16
TORSDOF 6
