REMARK  Name = ZINCvU0000000IFP.0
REMARK                            x       y       z     vdW  Elec       q    Type
REMARK                         _______ _______ _______ _____ _____    ______ ____
ROOT
ATOM      1  O   LIG    1        1.115   5.993   1.238  0.00  0.00    -0.570 OA
ATOM      2  C   LIG    1        2.095   5.309   1.457  0.00  0.00    +0.730 C 
ATOM      3  N   LIG    1        3.070   5.768   2.267  0.00  0.00    -0.640 N 
ATOM      4  C   LIG    1        4.301   5.046   2.622  0.00  0.00    +0.240 C 
ATOM      5  C   LIG    1        5.124   5.970   3.544  0.00  0.00    +0.040 C 
ATOM      6  C   LIG    1        4.571   7.381   3.209  0.00  0.00    -0.010 C 
ATOM      7  C   LIG    1        3.075   7.075   2.950  0.00  0.00    +0.280 C 
ATOM      8  N   LIG    1        2.208   4.092   0.890  0.00  0.00    -0.740 N 
ATOM      9  H   LIG    1        2.991   3.546   1.065  0.00  0.00    +0.400 HD
ENDROOT
BRANCH   6  10
ATOM     10  C   LIG    1        4.739   8.331   4.397  0.00  0.00    +0.090 C 
BRANCH  10  11
ATOM     11  C   LIG    1        4.162   9.679   4.047  0.00  0.00    -0.070 A 
ATOM     12  C   LIG    1        4.964  10.643   3.465  0.00  0.00    -0.010 A 
ATOM     13  C   LIG    1        4.436  11.879   3.138  0.00  0.00    +0.030 A 
ATOM     14  C   LIG    1        3.109  12.156   3.402  0.00  0.00    -0.020 A 
ATOM     15  C   LIG    1        2.304  11.192   3.991  0.00  0.00    +0.110 A 
ATOM     16  C   LIG    1        2.834   9.951   4.313  0.00  0.00    -0.010 A 
BRANCH  15  17
ATOM     17  O   LIG    1        0.997  11.462   4.251  0.00  0.00    -0.500 OA
ATOM     18  H   LIG    1        0.841  11.843   5.126  0.00  0.00    +0.390 HD
ENDBRANCH  15  17
ENDBRANCH  10  11
ENDBRANCH   6  10
BRANCH   8  19
ATOM     19  C   LIG    1        1.149   3.592   0.010  0.00  0.00    +0.350 C 
BRANCH  19  20
ATOM     20  C   LIG    1        1.171   2.086   0.002  0.00  0.00    -0.100 A 
ATOM     21  C   LIG    1        2.378   1.413  -0.013  0.00  0.00    +0.090 A 
ATOM     22  C   LIG    1        2.399   0.030  -0.021  0.00  0.00    +0.000 A 
ATOM     23  C   LIG    1        1.211  -0.679  -0.013  0.00  0.00    +0.150 A 
ATOM     24  C   LIG    1        0.002  -0.004   0.002  0.00  0.00    -0.220 A 
ATOM     25  F   LIG    1        1.230  -2.030  -0.020  0.00  0.00    -0.120 F 
ATOM     26  C   LIG    1       -0.017   1.377   0.010  0.00  0.00    +0.120 A 
BRANCH  24  27
ATOM     27  C   LIG    1       -1.292  -0.775   0.011  0.00  0.00    +0.510 C 
ATOM     28  F   LIG    1       -1.344  -1.587   1.149  0.00  0.00    -0.170 F 
ATOM     29  F   LIG    1       -1.367  -1.575  -1.135  0.00  0.00    -0.170 F 
ATOM     30  F   LIG    1       -2.368   0.119   0.026  0.00  0.00    -0.170 F 
ENDBRANCH  24  27
ENDBRANCH  19  20
BRANCH  19  31
ATOM     31  C   LIG    1        1.379   4.113  -1.410  0.00  0.00    -0.060 C 
ATOM     32  C   LIG    1        2.699   4.833  -1.694  0.00  0.00    +0.010 C 
ATOM     33  C   LIG    1        1.394   5.630  -1.613  0.00  0.00    +0.030 C 
ENDBRANCH  19  31
ENDBRANCH   8  19
TORSDOF 7
