REMARK  Name = ZINCvU0000000AAI.0
REMARK                            x       y       z     vdW  Elec       q    Type
REMARK                         _______ _______ _______ _____ _____    ______ ____
ROOT
ATOM      1  C   LIG    1        4.663   1.377   0.463  0.00  0.00    +0.370 A 
ATOM      2  N   LIG    1        3.511   1.999   0.509  0.00  0.00    -0.520 NA
ATOM      3  C   LIG    1        2.376   1.422   0.051  0.00  0.00    +0.160 A 
ATOM      4  C   LIG    1        1.147   2.086   0.100  0.00  0.00    +0.030 A 
ATOM      5  C   LIG    1        0.016   1.464  -0.378  0.00  0.00    +0.070 A 
ATOM      6  C   LIG    1        0.080   0.182  -0.910  0.00  0.00    +0.000 A 
ATOM      7  C   LIG    1        1.278  -0.494  -0.969  0.00  0.00    +0.100 A 
ATOM      8  C   LIG    1        2.436   0.117  -0.491  0.00  0.00    -0.200 A 
ATOM      9  C   LIG    1        3.741  -0.557  -0.531  0.00  0.00    +0.560 A 
ATOM     10  O   LIG    1        3.856  -1.681  -0.985  0.00  0.00    -0.490 OA
ATOM     11  N   LIG    1        4.809   0.115  -0.044  0.00  0.00    -0.490 N 
ENDROOT
BRANCH  11  12
ATOM     12  C   LIG    1        6.074  -0.486  -0.059  0.00  0.00    +0.110 A 
ATOM     13  C   LIG    1        6.495  -1.249   1.022  0.00  0.00    +0.060 A 
ATOM     14  C   LIG    1        7.744  -1.840   1.005  0.00  0.00    +0.060 A 
ATOM     15  C   LIG    1        8.574  -1.673  -0.087  0.00  0.00    +0.050 A 
ATOM     16  C   LIG    1        8.158  -0.914  -1.167  0.00  0.00    -0.030 A 
ATOM     17 CL   LIG    1        9.204  -0.708  -2.538  0.00  0.00    -0.050 Cl
ATOM     18  C   LIG    1        6.908  -0.325  -1.158  0.00  0.00    +0.060 A 
ENDBRANCH  11  12
BRANCH   1  19
ATOM     19  S   LIG    1        6.090   2.203   1.083  0.00  0.00    +0.020 S 
BRANCH  19  20
ATOM     20  C   LIG    1        5.345   3.768   1.606  0.00  0.00    +0.110 C 
BRANCH  20  21
ATOM     21  C   LIG    1        6.426   4.676   2.195  0.00  0.00    +0.070 C 
BRANCH  21  22
ATOM     22  C   LIG    1        5.796   5.999   2.637  0.00  0.00    +0.210 C 
BRANCH  22  23
ATOM     23  O   LIG    1        6.806   6.847   3.187  0.00  0.00    -0.310 OA
BRANCH  23  27
ATOM     24  C   LIG    1        5.605  10.560   4.533  0.00  0.00    +0.090 A 
ATOM     25  C   LIG    1        6.937  10.186   4.627  0.00  0.00    +0.030 A 
ATOM     26  C   LIG    1        7.339   8.943   4.176  0.00  0.00    +0.030 A 
ATOM     27  C   LIG    1        6.410   8.070   3.631  0.00  0.00    +0.090 A 
ATOM     28  C   LIG    1        5.079   8.446   3.533  0.00  0.00    -0.040 A 
ATOM     29  C   LIG    1        4.676   9.686   3.988  0.00  0.00    -0.040 A 
BRANCH  24  31
ATOM     30  C   LIG    1        3.822  12.102   4.849  0.00  0.00    +0.230 C 
ATOM     31  O   LIG    1        5.210  11.783   4.976  0.00  0.00    -0.320 OA
ENDBRANCH  24  31
ENDBRANCH  23  27
ENDBRANCH  22  23
ENDBRANCH  21  22
ENDBRANCH  20  21
ENDBRANCH  19  20
ENDBRANCH   1  19
TORSDOF 8
