REMARK  Name = ZINCrD000000f5Wn.0
REMARK                            x       y       z     vdW  Elec       q    Type
REMARK                         _______ _______ _______ _____ _____    ______ ____
ROOT
ATOM      1  N   LIG    1        2.533  -2.465  -2.150  0.00  0.00    -0.730 N 
ATOM      2  H   LIG    1        3.350  -2.353  -1.638  0.00  0.00    +0.400 HD
ATOM      3  C   LIG    1        2.535  -2.246  -3.479  0.00  0.00    +0.510 C 
ATOM      4  O   LIG    1        1.514  -2.385  -4.119  0.00  0.00    -0.520 OA
ENDROOT
BRANCH   1   5
ATOM      5  C   LIG    1        1.297  -2.870  -1.476  0.00  0.00    +0.250 C 
BRANCH   5   6
ATOM      6  C   LIG    1        1.136  -4.389  -1.578  0.00  0.00    +0.160 C 
BRANCH   6   8
ATOM      7  C   LIG    1        0.809  -5.072  -4.113  0.00  0.00    +0.030 C 
ATOM      8  C   LIG    1        0.954  -4.769  -2.989  0.00  0.00    -0.190 C 
ENDBRANCH   6   8
ENDBRANCH   5   6
BRANCH   5   9
ATOM      9  C   LIG    1        1.361  -2.462  -0.003  0.00  0.00    +0.080 C 
BRANCH   9  10
ATOM     10  C   LIG    1        1.396  -0.959   0.101  0.00  0.00    -0.080 A 
ATOM     11  C   LIG    1        0.216  -0.245   0.193  0.00  0.00    +0.010 A 
ATOM     12  C   LIG    1        0.249   1.134   0.288  0.00  0.00    +0.000 A 
ATOM     13  C   LIG    1        1.461   1.798   0.290  0.00  0.00    +0.000 A 
ATOM     14  C   LIG    1        2.641   1.084   0.198  0.00  0.00    +0.000 A 
ATOM     15  C   LIG    1        2.609  -0.295   0.103  0.00  0.00    +0.010 A 
ENDBRANCH   9  10
ENDBRANCH   5   9
ENDBRANCH   1   5
BRANCH   3  16
ATOM     16  C   LIG    1        3.807  -1.828  -4.172  0.00  0.00    +0.040 C 
BRANCH  16  17
ATOM     17  C   LIG    1        3.538  -1.647  -5.667  0.00  0.00    +0.080 C 
BRANCH  17  18
ATOM     18  C   LIG    1        4.794  -1.101  -6.350  0.00  0.00    +0.010 C 
ATOM     19  C   LIG    1        5.909  -2.144  -6.269  0.00  0.00    +0.110 C 
ATOM     20  C   LIG    1        7.045  -1.743  -7.174  0.00  0.00    -0.130 A 
ATOM     21  C   LIG    1        8.345  -2.058  -6.831  0.00  0.00    +0.050 A 
ATOM     22  C   LIG    1        9.386  -1.721  -7.677  0.00  0.00    -0.010 A 
ATOM     23  C   LIG    1        9.128  -1.068  -8.868  0.00  0.00    +0.040 A 
ATOM     24  C   LIG    1        7.830  -0.744  -9.213  0.00  0.00    -0.020 A 
ATOM     25  C   LIG    1        6.784  -1.076  -8.363  0.00  0.00    +0.160 A 
ATOM     26  N   LIG    1        5.472  -0.735  -8.704  0.00  0.00    -0.670 N 
ATOM     27  H   LIG    1        5.270  -0.453  -9.610  0.00  0.00    +0.410 HD
ATOM     28  C   LIG    1        4.487  -0.795  -7.792  0.00  0.00    +0.520 C 
ATOM     29  O   LIG    1        3.340  -0.600  -8.133  0.00  0.00    -0.510 OA
ENDBRANCH  17  18
ENDBRANCH  16  17
ENDBRANCH   3  16
TORSDOF 8
