REMARK  Name = ZINCtV00001bB39p.0
REMARK                            x       y       z     vdW  Elec       q    Type
REMARK                         _______ _______ _______ _____ _____    ______ ____
ROOT
ATOM      1  C   LIG    1       -0.017   1.401   0.010  0.00  0.00    -0.190 A 
ATOM      2  C   LIG    1        1.191   2.108   0.002  0.00  0.00    +0.150 A 
ATOM      3  C   LIG    1        2.387   1.423  -0.013  0.00  0.00    -0.140 A 
ATOM      4  C   LIG    1        2.400   0.037  -0.021  0.00  0.00    +0.130 A 
ATOM      5  C   LIG    1        1.216  -0.674  -0.013  0.00  0.00    -0.070 A 
ATOM      6 BR   LIG    1        4.018   2.379  -0.024  0.00  0.00    -0.040 Br
ATOM      7  C   LIG    1        0.002  -0.004   0.002  0.00  0.00    +0.210 A 
ENDROOT
BRANCH   1   9
ATOM      8  O   LIG    1       -2.340   1.505   0.021  0.00  0.00    -0.400 OA
ATOM      9  C   LIG    1       -1.295   2.122   0.020  0.00  0.00    +0.400 C 
BRANCH   9  10
ATOM     10  C   LIG    1       -1.310   3.629   0.028  0.00  0.00    +0.130 C 
ATOM     11  O   LIG    1       -2.368   4.288  -0.670  0.00  0.00    -0.300 OA
ATOM     12  C   LIG    1       -1.088   4.351  -1.302  0.00  0.00    +0.250 C 
BRANCH  12  13
ATOM     13  C   LIG    1       -0.870   3.507  -2.532  0.00  0.00    +0.020 A 
ATOM     14  C   LIG    1        0.328   3.171  -3.029  0.00  0.00    -0.010 A 
ATOM     15  C   LIG    1        0.063   2.351  -4.217  0.00  0.00    -0.130 A 
ATOM     16  C   LIG    1        0.868   1.707  -5.155  0.00  0.00    +0.060 A 
ATOM     17  C   LIG    1        0.282   1.002  -6.184  0.00  0.00    -0.010 A 
ATOM     18  C   LIG    1       -1.100   0.933  -6.287  0.00  0.00    +0.050 A 
ATOM     19  C   LIG    1       -1.906   1.567  -5.366  0.00  0.00    +0.020 A 
ATOM     20  C   LIG    1       -1.336   2.282  -4.321  0.00  0.00    +0.060 A 
ATOM     21  O   LIG    1       -1.849   2.988  -3.292  0.00  0.00    -0.180 OA
ENDBRANCH  12  13
ENDBRANCH   9  10
ENDBRANCH   1   9
BRANCH   7  22
ATOM     22  O   LIG    1       -1.161  -0.701   0.009  0.00  0.00    -0.270 OA
BRANCH  22  23
ATOM     23  C   LIG    1       -1.063  -2.127   0.000  0.00  0.00    +0.250 C 
BRANCH  23  24
ATOM     24  C   LIG    1       -2.446  -2.726   0.010  0.00  0.00    -0.100 A 
ATOM     25  C   LIG    1       -3.067  -3.012   1.211  0.00  0.00    +0.030 A 
ATOM     26  C   LIG    1       -4.337  -3.557   1.220  0.00  0.00    +0.010 A 
ATOM     27  C   LIG    1       -4.983  -3.824   0.027  0.00  0.00    +0.020 A 
ATOM     28  C   LIG    1       -4.359  -3.543  -1.174  0.00  0.00    +0.010 A 
ATOM     29  C   LIG    1       -3.091  -2.994  -1.183  0.00  0.00    +0.030 A 
ENDBRANCH  23  24
ENDBRANCH  22  23
ENDBRANCH   7  22
TORSDOF 6
