REMARK  Name = ZINCrD000000AKX9.0
REMARK                            x       y       z     vdW  Elec       q    Type
REMARK                         _______ _______ _______ _____ _____    ______ ____
ROOT
ATOM      1  C   LIG    1        1.494  -4.713   2.760  0.00  0.00    +0.190 C 
ENDROOT
BRANCH   1   2
ATOM      2  N   LIG    1        1.396  -4.871   1.302  0.00  0.00    -0.510 NA
ATOM      3  C   LIG    1        2.428  -5.790   0.802  0.00  0.00    +0.150 C 
ATOM      4  C   LIG    1        2.328  -5.879  -0.724  0.00  0.00    +0.250 C 
ATOM      5  O   LIG    1        1.009  -6.297  -1.086  0.00  0.00    -0.380 OA
ATOM      6  C   LIG    1       -0.021  -5.424  -0.615  0.00  0.00    +0.220 C 
ATOM      7  C   LIG    1        0.055  -5.331   0.911  0.00  0.00    +0.180 C 
BRANCH   6   8
ATOM      8  C   LIG    1       -1.367  -5.970  -1.019  0.00  0.00    -0.130 A 
ATOM      9  C   LIG    1       -1.521  -7.323  -1.254  0.00  0.00    +0.120 A 
ATOM     10  C   LIG    1       -2.754  -7.825  -1.625  0.00  0.00    -0.020 A 
ATOM     11  C   LIG    1       -3.837  -6.973  -1.761  0.00  0.00    +0.130 A 
ATOM     12  C   LIG    1       -3.683  -5.617  -1.526  0.00  0.00    -0.040 A 
ATOM     13  F   LIG    1       -5.042  -7.463  -2.123  0.00  0.00    -0.130 F 
ATOM     14  C   LIG    1       -2.448  -5.115  -1.155  0.00  0.00    +0.140 A 
ATOM     15  F   LIG    1       -2.297  -3.793  -0.925  0.00  0.00    -0.120 F 
ENDBRANCH   6   8
ENDBRANCH   1   2
BRANCH   1  16
ATOM     16  C   LIG    1        0.378  -3.824   3.245  0.00  0.00    -0.090 A 
ATOM     17  C   LIG    1        0.095  -2.646   2.579  0.00  0.00    +0.050 A 
ATOM     18  C   LIG    1       -0.931  -1.832   3.022  0.00  0.00    +0.010 A 
ATOM     19  C   LIG    1       -1.668  -2.191   4.135  0.00  0.00    +0.010 A 
ATOM     20  C   LIG    1       -1.381  -3.367   4.803  0.00  0.00    +0.000 A 
ATOM     21  C   LIG    1       -0.358  -4.183   4.358  0.00  0.00    +0.010 A 
ENDBRANCH   1  16
BRANCH   1  23
ATOM     22  O   LIG    1        3.377  -3.363   2.315  0.00  0.00    -0.510 OA
ATOM     23  C   LIG    1        2.821  -4.091   3.109  0.00  0.00    +0.530 C 
ATOM     24  N   LIG    1        3.389  -4.343   4.305  0.00  0.00    -0.700 N 
ATOM     25  H   LIG    1        2.944  -4.925   4.941  0.00  0.00    +0.400 HD
BRANCH  24  26
ATOM     26  C   LIG    1        4.679  -3.738   4.645  0.00  0.00    +0.220 C 
ATOM     27  C   LIG    1        5.725  -4.632   5.315  0.00  0.00    +0.010 C 
ATOM     28  C   LIG    1        5.005  -3.554   6.129  0.00  0.00    +0.020 C 
ENDBRANCH  24  26
ENDBRANCH   1  23
TORSDOF 5
