REMARK  Name = ZINCrH000004uFj6.0
REMARK                            x       y       z     vdW  Elec       q    Type
REMARK                         _______ _______ _______ _____ _____    ______ ____
ROOT
ATOM      1  C   LIG    1        1.351  -0.428  -0.013  0.00  0.00    -0.280 A 
ATOM      2  C   LIG    1        2.138   0.719  -0.015  0.00  0.00    +0.370 A 
ATOM      3  N   LIG    1        1.300   1.777  -0.001  0.00  0.00    -0.310 N 
ATOM      4  N   LIG    1       -0.016   1.300   0.009  0.00  0.00    -0.260 NA
ATOM      5  C   LIG    1        0.002  -0.004   0.002  0.00  0.00    +0.300 A 
ENDROOT
BRANCH   3   6
ATOM      6  C   LIG    1        1.682   3.126   0.002  0.00  0.00    +0.120 A 
ATOM      7  C   LIG    1        2.823   3.523   0.687  0.00  0.00    +0.060 A 
ATOM      8  C   LIG    1        3.200   4.851   0.686  0.00  0.00    +0.020 A 
ATOM      9  C   LIG    1        2.437   5.788   0.010  0.00  0.00    +0.110 A 
ATOM     10  C   LIG    1        1.296   5.395  -0.670  0.00  0.00    +0.010 A 
ATOM     11  F   LIG    1        2.805   7.088   0.014  0.00  0.00    -0.130 F 
ATOM     12  C   LIG    1        0.918   4.067  -0.675  0.00  0.00    +0.080 A 
ENDBRANCH   3   6
BRANCH   2  13
ATOM     13  N   LIG    1        3.527   0.766  -0.027  0.00  0.00    -0.400 N 
ATOM     14  C   LIG    1        4.290   1.578  -0.819  0.00  0.00    +0.130 A 
ATOM     15  C   LIG    1        5.587   1.339  -0.540  0.00  0.00    -0.020 A 
ATOM     16  C   LIG    1        5.630   0.337   0.451  0.00  0.00    -0.050 A 
ATOM     17  C   LIG    1        4.358   0.005   0.747  0.00  0.00    +0.220 A 
ENDBRANCH   2  13
BRANCH   1  19
ATOM     18  O   LIG    1        3.025  -2.048  -0.038  0.00  0.00    -0.530 OA
ATOM     19  C   LIG    1        1.831  -1.817  -0.025  0.00  0.00    +0.590 C 
ATOM     20  N   LIG    1        0.947  -2.835  -0.022  0.00  0.00    -0.720 N 
ATOM     21  H   LIG    1       -0.005  -2.651  -0.011  0.00  0.00    +0.400 HD
BRANCH  20  22
ATOM     22  C   LIG    1        1.425  -4.220  -0.034  0.00  0.00    +0.330 C 
BRANCH  22  23
ATOM     23  C   LIG    1        0.246  -5.158  -0.027  0.00  0.00    -0.110 A 
ATOM     24  C   LIG    1       -0.279  -5.599   1.173  0.00  0.00    +0.020 A 
ATOM     25  C   LIG    1       -1.363  -6.457   1.180  0.00  0.00    +0.000 A 
ATOM     26  C   LIG    1       -1.916  -6.880  -0.014  0.00  0.00    +0.010 A 
ATOM     27  C   LIG    1       -1.387  -6.444  -1.215  0.00  0.00    +0.000 A 
ATOM     28  C   LIG    1       -0.306  -5.582  -1.221  0.00  0.00    +0.020 A 
ENDBRANCH  22  23
ENDBRANCH  20  22
ENDBRANCH   1  19
TORSDOF 5
