REMARK  Name = ZINCvU0000000Bm9.0
REMARK                            x       y       z     vdW  Elec       q    Type
REMARK                         _______ _______ _______ _____ _____    ______ ____
ROOT
ATOM      1  C   LIG    1       -6.290   8.929   0.326  0.00  0.00    -0.100 A 
ATOM      2  C   LIG    1       -7.597   8.440   0.335  0.00  0.00    +0.040 A 
ATOM      3  C   LIG    1       -8.657   9.313   0.456  0.00  0.00    +0.100 A 
ATOM      4  C   LIG    1       -8.419  10.682   0.568  0.00  0.00    -0.150 A 
ATOM      5  C   LIG    1       -9.553  11.629   0.707  0.00  0.00    +0.530 C 
ATOM      6  O   LIG    1       -9.268  12.953   0.613  0.00  0.00    -0.350 OA
ATOM      7  C   LIG    1       -8.051  13.359   1.304  0.00  0.00    +0.240 C 
ATOM      8  C   LIG    1       -6.851  12.654   0.670  0.00  0.00    +0.110 C 
ATOM      9  O   LIG    1      -10.686  11.236   0.896  0.00  0.00    -0.440 OA
ATOM     10  C   LIG    1       -7.113  11.175   0.556  0.00  0.00    -0.040 A 
ATOM     11  C   LIG    1       -6.054  10.299   0.442  0.00  0.00    +0.090 A 
ENDROOT
BRANCH   7  12
ATOM     12  C   LIG    1       -7.879  14.851   1.184  0.00  0.00    -0.100 A 
ATOM     13  C   LIG    1       -8.269  15.502   0.029  0.00  0.00    +0.040 A 
ATOM     14  C   LIG    1       -8.116  16.871  -0.079  0.00  0.00    +0.010 A 
ATOM     15  C   LIG    1       -7.562  17.589   0.965  0.00  0.00    +0.020 A 
ATOM     16  C   LIG    1       -7.167  16.938   2.118  0.00  0.00    +0.010 A 
ATOM     17  C   LIG    1       -7.326  15.569   2.228  0.00  0.00    +0.030 A 
ENDBRANCH   7  12
BRANCH   1  19
ATOM     18  O   LIG    1       -4.013   8.416   0.190  0.00  0.00    -0.500 OA
ATOM     19  C   LIG    1       -5.152   7.991   0.198  0.00  0.00    +0.560 C 
ATOM     20  N   LIG    1       -5.378   6.667   0.091  0.00  0.00    -0.670 N 
ATOM     21  H   LIG    1       -6.287   6.334   0.020  0.00  0.00    +0.410 HD
BRANCH  20  22
ATOM     22  C   LIG    1       -4.305   5.774   0.082  0.00  0.00    +0.160 A 
ATOM     23  C   LIG    1       -3.165   6.051   0.828  0.00  0.00    +0.020 A 
ATOM     24  C   LIG    1       -2.104   5.171   0.821  0.00  0.00    +0.090 A 
ATOM     25  C   LIG    1       -2.175   4.001   0.063  0.00  0.00    -0.040 A 
ATOM     26  C   LIG    1       -3.319   3.728  -0.690  0.00  0.00    +0.060 A 
ATOM     27  C   LIG    1       -4.378   4.609  -0.674  0.00  0.00    +0.000 A 
BRANCH  25  28
ATOM     28  C   LIG    1       -1.039   3.055   0.053  0.00  0.00    +0.120 A 
ATOM     29  N   LIG    1        0.074   3.204   0.713  0.00  0.00    -0.470 NA
ATOM     30  C   LIG    1        0.978   2.260   0.579  0.00  0.00    +0.220 A 
ATOM     31  C   LIG    1        0.643   1.241  -0.218  0.00  0.00    -0.070 A 
ATOM     32  S   LIG    1       -0.976   1.542  -0.848  0.00  0.00    +0.090 S 
ENDBRANCH  25  28
ENDBRANCH  20  22
ENDBRANCH   1  19
TORSDOF 4
