REMARK  Name = ZINCpe000000WxIP.0
REMARK                            x       y       z     vdW  Elec       q    Type
REMARK                         _______ _______ _______ _____ _____    ______ ____
ROOT
ATOM      1  N   LIG    1        0.503   4.059  -1.041  0.00  0.00    -0.490 N 
ATOM      2  C   LIG    1        1.284   3.537   0.089  0.00  0.00    +0.200 C 
ATOM      3  C   LIG    1        1.347   2.010   0.000  0.00  0.00    +0.200 C 
ATOM      4  N   LIG    1       -0.018   1.465   0.010  0.00  0.00    -0.530 NA
ATOM      5  C   LIG    1       -0.799   1.987  -1.120  0.00  0.00    +0.200 C 
ATOM      6  C   LIG    1       -0.862   3.514  -1.031  0.00  0.00    +0.200 C 
ENDROOT
BRANCH   1  11
ATOM      7  C   LIG    1       -0.220   7.533  -2.010  0.00  0.00    +0.150 A 
ATOM      8  C   LIG    1        0.450   8.226  -1.012  0.00  0.00    -0.100 A 
ATOM      9  C   LIG    1        1.135   7.536  -0.029  0.00  0.00    +0.080 A 
ATOM     10  C   LIG    1        1.153   6.155  -0.036  0.00  0.00    -0.080 A 
ATOM     11  C   LIG    1        0.484   5.455  -1.033  0.00  0.00    +0.150 A 
ATOM     12  C   LIG    1       -0.199   6.147  -2.025  0.00  0.00    -0.050 A 
BRANCH   7  14
ATOM     13  C   LIG    1       -0.867   9.639  -2.902  0.00  0.00    +0.250 C 
ATOM     14  O   LIG    1       -0.893   8.212  -2.976  0.00  0.00    -0.320 OA
ENDBRANCH   7  14
ENDBRANCH   1  11
BRANCH   4  15
ATOM     15  C   LIG    1        0.002  -0.004   0.002  0.00  0.00    +0.310 C 
BRANCH  15  16
ATOM     16  C   LIG    1       -1.388  -0.527   0.259  0.00  0.00    +0.440 A 
ATOM     17  N   LIG    1       -1.784  -0.764   1.497  0.00  0.00    -0.620 NA
ATOM     18  C   LIG    1       -3.013  -1.220   1.729  0.00  0.00    +0.630 A 
ATOM     19  N   LIG    1       -3.837  -1.448   0.713  0.00  0.00    -0.650 NA
ATOM     20  C   LIG    1       -3.433  -1.214  -0.531  0.00  0.00    +0.630 A 
ATOM     21  N   LIG    1       -2.205  -0.752  -0.754  0.00  0.00    -0.640 NA
BRANCH  20  22
ATOM     22  N   LIG    1       -4.286  -1.449  -1.591  0.00  0.00    -0.810 N 
ATOM     23  H   LIG    1       -5.181  -1.785  -1.427  0.00  0.00    +0.420 HD
ATOM     24  H   LIG    1       -3.991  -1.278  -2.498  0.00  0.00    +0.420 HD
ENDBRANCH  20  22
BRANCH  18  25
ATOM     25  N   LIG    1       -3.428  -1.462   3.023  0.00  0.00    -0.580 N 
ATOM     26  C   LIG    1       -2.518  -1.210   4.143  0.00  0.00    +0.310 C 
ATOM     27  C   LIG    1       -4.779  -1.969   3.276  0.00  0.00    +0.310 C 
ENDBRANCH  18  25
ENDBRANCH  15  16
ENDBRANCH   4  15
TORSDOF 6
