REMARK  Name = ZINCpk000000mL18.0
REMARK                            x       y       z     vdW  Elec       q    Type
REMARK                         _______ _______ _______ _____ _____    ______ ____
ROOT
ATOM      1  C   LIG    1       -4.845  -2.928  -4.553  0.00  0.00    -0.690 A 
ATOM      2  C   LIG    1       -4.087  -2.451  -5.606  0.00  0.00    +0.150 A 
ATOM      3  C   LIG    1       -2.924  -1.740  -5.364  0.00  0.00    +0.000 A 
ATOM      4  C   LIG    1       -2.518  -1.499  -4.068  0.00  0.00    +0.100 A 
ATOM      5  C   LIG    1       -3.276  -1.982  -3.000  0.00  0.00    -0.150 A 
ATOM      6  C   LIG    1       -4.447  -2.698  -3.252  0.00  0.00    +0.200 A 
ENDROOT
BRANCH   5   7
ATOM      7  C   LIG    1       -2.843  -1.732  -1.609  0.00  0.00    +0.560 C 
ATOM      8  N   LIG    1       -1.711  -1.040  -1.369  0.00  0.00    -0.720 N 
ATOM      9  H   LIG    1       -1.181  -0.707  -2.110  0.00  0.00    +0.400 HD
ATOM     10  O   LIG    1       -3.507  -2.150  -0.681  0.00  0.00    -0.520 OA
BRANCH   8  11
ATOM     11  C   LIG    1       -1.282  -0.792   0.010  0.00  0.00    +0.340 C 
BRANCH  11  12
ATOM     12  C   LIG    1        0.002  -0.004   0.002  0.00  0.00    -0.030 A 
ATOM     13  C   LIG    1       -0.017   1.384   0.010  0.00  0.00    -0.050 A 
ATOM     14  C   LIG    1        1.178   2.075   0.002  0.00  0.00    +0.300 A 
ATOM     15  N   LIG    1        2.331   1.434  -0.013  0.00  0.00    -0.530 NA
ATOM     16  C   LIG    1        2.390   0.112  -0.020  0.00  0.00    +0.320 A 
ATOM     17  C   LIG    1        1.228  -0.648  -0.013  0.00  0.00    -0.030 A 
BRANCH  16  18
ATOM     18  O   LIG    1        3.597  -0.506  -0.035  0.00  0.00    -0.310 OA
ATOM     19  C   LIG    1        4.755   0.331  -0.041  0.00  0.00    +0.260 C 
ENDBRANCH  16  18
ENDBRANCH  11  12
ENDBRANCH   8  11
ENDBRANCH   5   7
BRANCH   1  20
ATOM     20  S   LIG    1       -6.324  -3.832  -4.872  0.00  0.00    +2.700 S 
ATOM     21  O   LIG    1       -6.563  -4.630  -3.722  0.00  0.00    -0.950 OA
ATOM     22  O   LIG    1       -6.189  -4.372  -6.180  0.00  0.00    -0.950 OA
BRANCH  20  23
ATOM     23  N   LIG    1       -7.562  -2.735  -4.946  0.00  0.00    -1.110 NA
ATOM     24  H   LIG    1       -8.269  -2.756  -4.282  0.00  0.00    +0.420 HD
BRANCH  23  25
ATOM     25  C   LIG    1       -7.591  -1.733  -6.015  0.00  0.00    +0.300 C 
BRANCH  25  27
ATOM     26  C   LIG    1       -9.100   0.187  -6.003  0.00  0.00    +0.040 C 
ATOM     27  C   LIG    1       -8.963  -1.113  -6.085  0.00  0.00    -0.050 C 
ENDBRANCH  25  27
ENDBRANCH  23  25
ENDBRANCH  20  23
ENDBRANCH   1  20
TORSDOF 8
