REMARK  Name = ZINCrg000000tSm9.0
REMARK                            x       y       z     vdW  Elec       q    Type
REMARK                         _______ _______ _______ _____ _____    ______ ____
ROOT
ATOM      1  O   LIG    1       -0.439  -7.134   0.512  0.00  0.00    -0.520 OA
ATOM      2  C   LIG    1       -0.724  -6.289  -0.311  0.00  0.00    +0.520 C 
ATOM      3  C   LIG    1       -0.177  -4.879  -0.329  0.00  0.00    +0.070 C 
ATOM      4  C   LIG    1       -0.495  -4.367  -1.753  0.00  0.00    -0.010 C 
ATOM      5  C   LIG    1       -1.702  -5.249  -2.142  0.00  0.00    +0.300 C 
ATOM      6  N   LIG    1       -1.570  -6.471  -1.339  0.00  0.00    -0.620 N 
ENDROOT
BRANCH   4   7
ATOM      7  C   LIG    1       -0.877  -2.910  -1.730  0.00  0.00    +0.530 C 
ATOM      8  N   LIG    1        0.042  -1.977  -1.412  0.00  0.00    -0.610 N 
ATOM      9  C   LIG    1        1.415  -2.382  -1.088  0.00  0.00    +0.260 C 
ATOM     10  C   LIG    1        1.794  -1.828   0.297  0.00  0.00    +0.290 C 
ATOM     11  N   LIG    1        1.388  -0.409   0.307  0.00  0.00    -0.620 N 
ATOM     12  C   LIG    1        2.175   0.652   0.508  0.00  0.00    +0.520 C 
ATOM     13  C   LIG    1        1.482   1.899  -0.002  0.00  0.00    +0.050 C 
ATOM     14  C   LIG    1       -0.019   1.530   0.011  0.00  0.00    +0.070 C 
ATOM     15  O   LIG    1        3.274   0.622   1.020  0.00  0.00    -0.520 OA
ATOM     16  C   LIG    1        0.002  -0.004   0.002  0.00  0.00    +0.210 C 
ATOM     17  C   LIG    1       -0.333  -0.554  -1.389  0.00  0.00    +0.290 C 
ATOM     18  O   LIG    1       -2.012  -2.576  -1.998  0.00  0.00    -0.530 OA
ENDBRANCH   4   7
BRANCH   6  19
ATOM     19  C   LIG    1       -2.271  -7.726  -1.622  0.00  0.00    +0.300 C 
BRANCH  19  20
ATOM     20  C   LIG    1       -1.415  -8.589  -2.551  0.00  0.00    +0.060 C 
BRANCH  20  21
ATOM     21  C   LIG    1       -2.136  -9.880  -2.842  0.00  0.00    -0.100 A 
ATOM     22  C   LIG    1       -1.940 -10.980  -2.027  0.00  0.00    +0.050 A 
ATOM     23  C   LIG    1       -2.605 -12.163  -2.289  0.00  0.00    -0.010 A 
ATOM     24  C   LIG    1       -3.459 -12.250  -3.375  0.00  0.00    +0.100 A 
ATOM     25  C   LIG    1       -3.650 -11.150  -4.194  0.00  0.00    -0.010 A 
ATOM     26  F   LIG    1       -4.104 -13.408  -3.636  0.00  0.00    -0.140 F 
ATOM     27  C   LIG    1       -2.989  -9.966  -3.926  0.00  0.00    +0.040 A 
ENDBRANCH  20  21
ENDBRANCH  19  20
ENDBRANCH   6  19
TORSDOF 4
