REMARK  Name = ZINCqH0000001aOG.0
REMARK                            x       y       z     vdW  Elec       q    Type
REMARK                         _______ _______ _______ _____ _____    ______ ____
ROOT
ATOM      1  C   LIG    1        0.013   1.235  -2.408  0.00  0.00    +0.350 C 
ENDROOT
BRANCH   1   5
ATOM      2  C   LIG    1       -2.170   1.064   1.264  0.00  0.00    +0.230 C 
ATOM      3  C   LIG    1       -0.729   1.579   1.267  0.00  0.00    +0.030 C 
ATOM      4  C   LIG    1       -0.013   1.086   0.008  0.00  0.00    +0.200 C 
ATOM      5  N   LIG    1       -0.723   1.572  -1.182  0.00  0.00    -0.530 NA
ATOM      6  C   LIG    1       -2.095   1.052  -1.231  0.00  0.00    +0.180 C 
ATOM      7  C   LIG    1       -2.873   1.544  -0.009  0.00  0.00    +0.040 C 
BRANCH   2   9
ATOM      8  C   LIG    1       -2.792   0.932   3.617  0.00  0.00    +0.520 C 
ATOM      9  N   LIG    1       -2.877   1.581   2.438  0.00  0.00    -0.730 N 
ATOM     10  H   LIG    1       -3.407   2.390   2.368  0.00  0.00    +0.400 HD
ATOM     11  O   LIG    1       -2.130  -0.080   3.705  0.00  0.00    -0.540 OA
BRANCH   8  13
ATOM     12  C   LIG    1       -5.021   1.510   4.536  0.00  0.00    +0.050 C 
ATOM     13  C   LIG    1       -3.520   1.464   4.824  0.00  0.00    -0.020 C 
ATOM     14  C   LIG    1       -3.258   0.548   6.022  0.00  0.00    +0.050 C 
ENDBRANCH   8  13
ENDBRANCH   2   9
ENDBRANCH   1   5
BRANCH   1  15
ATOM     15  C   LIG    1       -0.607   1.953  -3.579  0.00  0.00    +0.180 A 
ATOM     16  N   LIG    1       -0.280   3.136  -4.017  0.00  0.00    -0.260 NA
ATOM     17  N   LIG    1       -1.012   3.437  -5.031  0.00  0.00    -0.250 NA
ATOM     18  C   LIG    1       -1.838   2.447  -5.278  0.00  0.00    +0.200 A 
ATOM     19  O   LIG    1       -1.593   1.486  -4.365  0.00  0.00    -0.220 OA
BRANCH  18  20
ATOM     20  C   LIG    1       -2.845   2.394  -6.358  0.00  0.00    -0.010 A 
ATOM     21  C   LIG    1       -3.657   1.269  -6.505  0.00  0.00    +0.090 A 
ATOM     22  C   LIG    1       -4.599   1.227  -7.511  0.00  0.00    +0.040 A 
ATOM     23  C   LIG    1       -4.734   2.295  -8.383  0.00  0.00    -0.000 A 
ATOM     24  C   LIG    1       -3.928   3.413  -8.247  0.00  0.00    +0.060 A 
ATOM     25 CL   LIG    1       -5.917   2.232  -9.651  0.00  0.00    -0.040 Cl
ATOM     26  C   LIG    1       -2.985   3.469  -7.240  0.00  0.00    +0.010 A 
ATOM     27 CL   LIG    1       -1.976   4.871  -7.070  0.00  0.00    -0.010 Cl
ENDBRANCH  18  20
ENDBRANCH   1  15
TORSDOF 5
