REMARK  Name = ZINCrD000000AltB.0
REMARK                            x       y       z     vdW  Elec       q    Type
REMARK                         _______ _______ _______ _____ _____    ______ ____
ROOT
ATOM      1  O   LIG    1       -1.837  -1.879  -1.820  0.00  0.00    -0.530 OA
ATOM      2  C   LIG    1       -0.949  -2.653  -1.532  0.00  0.00    +0.510 C 
ATOM      3  N   LIG    1       -1.163  -3.982  -1.604  0.00  0.00    -0.620 N 
ATOM      4  C   LIG    1       -0.106  -4.946  -1.267  0.00  0.00    +0.310 C 
ATOM      5  C   LIG    1       -0.096  -6.048  -2.285  0.00  0.00    -0.050 C 
ATOM      6  C   LIG    1       -1.041  -6.214  -3.180  0.00  0.00    -0.030 C 
ATOM      7  C   LIG    1       -2.243  -5.326  -3.316  0.00  0.00    +0.070 C 
ATOM      8  C   LIG    1       -2.464  -4.526  -2.030  0.00  0.00    +0.280 C 
ENDROOT
BRANCH   6   9
ATOM      9  C   LIG    1       -0.914  -7.349  -4.114  0.00  0.00    -0.140 A 
ATOM     10  C   LIG    1       -1.615  -8.511  -4.079  0.00  0.00    +0.250 A 
ATOM     11  N   LIG    1       -1.221  -9.319  -5.106  0.00  0.00    -0.590 N 
ATOM     12  H   LIG    1       -1.580 -10.202  -5.287  0.00  0.00    +0.420 HD
ATOM     13  C   LIG    1       -0.240  -8.699  -5.849  0.00  0.00    +0.120 A 
ATOM     14  C   LIG    1        0.485  -9.078  -6.974  0.00  0.00    -0.040 A 
ATOM     15  C   LIG    1        1.426  -8.222  -7.508  0.00  0.00    +0.120 A 
ATOM     16  C   LIG    1        1.660  -6.980  -6.930  0.00  0.00    -0.040 A 
ATOM     17  C   LIG    1        0.952  -6.588  -5.816  0.00  0.00    +0.090 A 
ATOM     18  F   LIG    1        2.127  -8.595  -8.601  0.00  0.00    -0.140 F 
ATOM     19  C   LIG    1       -0.006  -7.440  -5.271  0.00  0.00    -0.100 A 
ENDBRANCH   6   9
BRANCH   2  20
ATOM     20  C   LIG    1        0.394  -2.129  -1.092  0.00  0.00    +0.310 C 
BRANCH  20  21
ATOM     21  N   LIG    1        0.371  -0.664  -1.096  0.00  0.00    -0.590 N 
ATOM     22  C   LIG    1        0.757   0.069  -2.313  0.00  0.00    +0.270 C 
ATOM     23  C   LIG    1        2.120   0.723  -2.079  0.00  0.00    +0.010 C 
ATOM     24  C   LIG    1        1.962   2.081  -1.419  0.00  0.00    +0.020 C 
ATOM     25  C   LIG    1        1.426   2.015  -0.001  0.00  0.00    +0.040 C 
ATOM     26  C   LIG    1       -0.018   1.510   0.010  0.00  0.00    +0.050 C 
ATOM     27  C   LIG    1        0.002  -0.004   0.002  0.00  0.00    +0.520 C 
ATOM     28  O   LIG    1       -0.319  -0.618   0.997  0.00  0.00    -0.550 OA
ENDBRANCH  20  21
ENDBRANCH   2  20
TORSDOF 3
