REMARK  Name = ZINCrD00000scgJl.0
REMARK                            x       y       z     vdW  Elec       q    Type
REMARK                         _______ _______ _______ _____ _____    ______ ____
ROOT
ATOM      1  O   LIG    1       -1.457  -0.451   1.353  0.00  0.00    -0.510 OA
ATOM      2  C   LIG    1       -2.434  -0.123   0.707  0.00  0.00    +0.600 C 
ATOM      3  N   LIG    1       -2.429   1.037   0.020  0.00  0.00    -0.650 N 
ATOM      4  H   LIG    1       -3.233   1.336  -0.432  0.00  0.00    +0.420 HD
ENDROOT
BRANCH   3   5
ATOM      5  C   LIG    1       -1.262   1.809  -0.043  0.00  0.00    +0.130 A 
ATOM      6  C   LIG    1       -1.346   3.195  -0.058  0.00  0.00    +0.040 A 
ATOM      7  C   LIG    1       -0.196   3.956  -0.125  0.00  0.00    +0.000 A 
ATOM      8  C   LIG    1        1.046   3.337  -0.171  0.00  0.00    +0.110 A 
ATOM      9  C   LIG    1        1.131   1.950  -0.150  0.00  0.00    -0.090 A 
ATOM     10 BR   LIG    1        2.821   1.105  -0.212  0.00  0.00    -0.030 Br
ATOM     11  C   LIG    1       -0.020   1.188  -0.083  0.00  0.00    +0.080 A 
BRANCH   8  12
ATOM     12  N   LIG    1        2.211   4.109  -0.239  0.00  0.00    -0.460 N 
ATOM     13  C   LIG    1        1.887   5.556  -0.312  0.00  0.00    +0.180 C 
ATOM     14  C   LIG    1        3.201   6.237   0.145  0.00  0.00    +0.050 C 
ATOM     15  C   LIG    1        3.711   5.293   1.258  0.00  0.00    -0.010 C 
ATOM     16  C   LIG    1        3.030   3.940   0.981  0.00  0.00    +0.200 C 
BRANCH  15  17
ATOM     17  C   LIG    1        5.232   5.150   1.179  0.00  0.00    +0.180 C 
BRANCH  17  18
ATOM     18  O   LIG    1        5.847   6.384   1.553  0.00  0.00    -0.570 OA
ATOM     19  H   LIG    1        6.813   6.366   1.525  0.00  0.00    +0.380 HD
ENDBRANCH  17  18
ENDBRANCH  15  17
ENDBRANCH   8  12
ENDBRANCH   3   5
BRANCH   2  20
ATOM     20  C   LIG    1       -3.622  -0.992   0.676  0.00  0.00    +0.010 A 
ATOM     21  C   LIG    1       -3.680  -2.163   1.345  0.00  0.00    -0.020 A 
ATOM     22  S   LIG    1       -5.204  -2.889   1.074  0.00  0.00    +0.180 S 
ATOM     23  C   LIG    1       -5.685  -1.541   0.051  0.00  0.00    +0.150 A 
ATOM     24  N   LIG    1       -4.715  -0.678  -0.009  0.00  0.00    -0.450 NA
BRANCH  23  25
ATOM     25  C   LIG    1       -6.991  -1.407  -0.632  0.00  0.00    -0.190 A 
ATOM     26  C   LIG    1       -8.023  -2.302  -0.583  0.00  0.00    +0.290 A 
ATOM     27  N   LIG    1       -9.026  -1.807  -1.334  0.00  0.00    -0.460 N 
ATOM     28  H   LIG    1       -9.887  -2.228  -1.480  0.00  0.00    +0.450 HD
ATOM     29  N   LIG    1       -8.610  -0.583  -1.871  0.00  0.00    -0.290 NA
ATOM     30  C   LIG    1       -7.396  -0.337  -1.456  0.00  0.00    +0.300 A 
ENDBRANCH  23  25
ENDBRANCH   2  20
TORSDOF 6
