REMARK  Name = ZINCpe00000FUpgF.0
REMARK                            x       y       z     vdW  Elec       q    Type
REMARK                         _______ _______ _______ _____ _____    ______ ____
ROOT
ATOM      1  O   LIG    1       -1.714   2.256   1.150  0.00  0.00    -0.530 OA
ATOM      2  C   LIG    1       -0.718   1.572   1.248  0.00  0.00    +0.500 C 
ATOM      3  N   LIG    1       -0.242   1.246   2.466  0.00  0.00    -0.610 N 
ATOM      4  C   LIG    1        0.961   0.413   2.601  0.00  0.00    +0.270 C 
ATOM      5  C   LIG    1        1.965   1.147   3.502  0.00  0.00    +0.000 C 
ATOM      6  C   LIG    1        1.290   1.495   4.830  0.00  0.00    +0.180 C 
ATOM      7  C   LIG    1        0.104   2.427   4.573  0.00  0.00    +0.050 C 
ATOM      8  C   LIG    1       -0.918   1.712   3.684  0.00  0.00    +0.290 C 
ENDROOT
BRANCH   6   9
ATOM      9  C   LIG    1        2.282   2.182   5.733  0.00  0.00    -0.110 A 
ATOM     10  C   LIG    1        2.410   3.558   5.698  0.00  0.00    +0.010 A 
ATOM     11  C   LIG    1        3.317   4.189   6.529  0.00  0.00    +0.000 A 
ATOM     12  C   LIG    1        4.103   3.444   7.388  0.00  0.00    +0.000 A 
ATOM     13  C   LIG    1        3.978   2.067   7.419  0.00  0.00    +0.000 A 
ATOM     14  C   LIG    1        3.068   1.437   6.591  0.00  0.00    +0.010 A 
ENDBRANCH   6   9
BRANCH   6  15
ATOM     15  O   LIG    1        0.827   0.297   5.457  0.00  0.00    -0.550 OA
ATOM     16  H   LIG    1        1.527  -0.342   5.651  0.00  0.00    +0.380 HD
ENDBRANCH   6  15
BRANCH   2  17
ATOM     17  C   LIG    1       -0.013   1.086   0.008  0.00  0.00    +0.310 C 
BRANCH  17  18
ATOM     18  N   LIG    1       -0.721   1.571  -1.179  0.00  0.00    -0.580 N 
ATOM     19  C   LIG    1       -0.352   2.866  -1.772  0.00  0.00    +0.290 C 
ATOM     20  C   LIG    1       -1.463   3.875  -1.478  0.00  0.00    +0.010 C 
ATOM     21  C   LIG    1       -2.552   3.805  -2.533  0.00  0.00    +0.020 C 
ATOM     22  C   LIG    1       -3.333   2.503  -2.522  0.00  0.00    +0.050 C 
ATOM     23  C   LIG    1       -2.440   1.331  -2.938  0.00  0.00    +0.190 C 
ATOM     24  C   LIG    1       -1.693   0.834  -1.718  0.00  0.00    +0.490 C 
ATOM     25  O   LIG    1       -1.983  -0.236  -1.227  0.00  0.00    -0.540 OA
BRANCH  23  26
ATOM     26  O   LIG    1       -1.503   1.768  -3.925  0.00  0.00    -0.540 OA
ATOM     27  H   LIG    1       -0.905   1.074  -4.233  0.00  0.00    +0.380 HD
ENDBRANCH  23  26
ENDBRANCH  17  18
ENDBRANCH   2  17
TORSDOF 5
