REMARK  Name = ZINCrD00000l60xM.0
REMARK                            x       y       z     vdW  Elec       q    Type
REMARK                         _______ _______ _______ _____ _____    ______ ____
ROOT
ATOM      1  C   LIG    1       -1.196   1.891  -5.952  0.00  0.00    +0.270 C 
ENDROOT
BRANCH   1   3
ATOM      2  O   LIG    1        0.527   0.709  -4.856  0.00  0.00    -0.440 OA
ATOM      3  C   LIG    1       -0.467   1.392  -4.731  0.00  0.00    +0.520 C 
ATOM      4  N   LIG    1       -0.920   1.705  -3.501  0.00  0.00    -0.690 N 
ATOM      5  H   LIG    1       -1.715   2.251  -3.401  0.00  0.00    +0.410 HD
ATOM      6  C   LIG    1       -0.268   1.258  -2.409  0.00  0.00    +0.700 C 
ATOM      7  N   LIG    1       -0.721   1.571  -1.179  0.00  0.00    -0.730 N 
ATOM      8  H   LIG    1       -1.516   2.118  -1.079  0.00  0.00    +0.400 HD
ATOM      9  O   LIG    1        0.728   0.574  -2.534  0.00  0.00    -0.520 OA
BRANCH   7  10
ATOM     10  C   LIG    1       -0.013   1.086   0.008  0.00  0.00    +0.410 C 
BRANCH  10  11
ATOM     11  C   LIG    1       -0.718   1.572   1.248  0.00  0.00    -0.050 A 
ATOM     12  C   LIG    1       -1.704   0.926   1.896  0.00  0.00    -0.030 A 
ATOM     13  C   LIG    1       -2.070   1.736   2.996  0.00  0.00    -0.070 A 
ATOM     14  C   LIG    1       -1.286   2.828   2.954  0.00  0.00    +0.190 A 
ATOM     15  O   LIG    1       -0.465   2.720   1.896  0.00  0.00    -0.170 OA
ENDBRANCH  10  11
ENDBRANCH   7  10
ENDBRANCH   1   3
BRANCH   1  16
ATOM     16  O   LIG    1       -0.516   1.423  -7.147  0.00  0.00    -0.330 OA
BRANCH  16  17
ATOM     17  C   LIG    1       -1.042   1.783  -8.328  0.00  0.00    +0.480 C 
ATOM     18  O   LIG    1       -2.038   2.467  -8.362  0.00  0.00    -0.480 OA
BRANCH  17  19
ATOM     19  C   LIG    1       -0.391   1.335  -9.611  0.00  0.00    +0.150 C 
BRANCH  19  20
ATOM     20  S   LIG    1       -1.331   1.978 -11.023  0.00  0.00    -0.160 S 
BRANCH  20  21
ATOM     21  C   LIG    1       -0.409   1.343 -12.450  0.00  0.00    +0.130 C 
BRANCH  21  22
ATOM     22  C   LIG    1       -1.075   1.800 -13.722  0.00  0.00    -0.060 A 
ATOM     23  C   LIG    1       -2.055   1.019 -14.307  0.00  0.00    +0.060 A 
ATOM     24  C   LIG    1       -2.671   1.439 -15.471  0.00  0.00    +0.050 A 
ATOM     25  C   LIG    1       -2.300   2.636 -16.057  0.00  0.00    -0.030 A 
ATOM     26  C   LIG    1       -1.315   3.415 -15.474  0.00  0.00    -0.030 A 
ATOM     27 CL   LIG    1       -0.848   4.918 -16.208  0.00  0.00    -0.040 Cl
ATOM     28 CL   LIG    1       -3.068   3.160 -17.523  0.00  0.00    -0.040 Cl
ATOM     29  C   LIG    1       -0.703   2.996 -14.307  0.00  0.00    +0.070 A 
ENDBRANCH  21  22
ENDBRANCH  20  21
ENDBRANCH  19  20
ENDBRANCH  17  19
ENDBRANCH  16  17
ENDBRANCH   1  16
TORSDOF 9
