REMARK  Name = ZINCtV00000L6k1j.0
REMARK                            x       y       z     vdW  Elec       q    Type
REMARK                         _______ _______ _______ _____ _____    ______ ____
ROOT
ATOM      1  N   LIG    1       -0.578   1.347  -3.687  0.00  0.00    -0.540 N 
ATOM      2  C   LIG    1        0.024   1.256  -2.484  0.00  0.00    +0.530 C 
ATOM      3  O   LIG    1        1.131   0.769  -2.396  0.00  0.00    -0.500 OA
ENDROOT
BRANCH   2   4
ATOM      4  C   LIG    1       -0.679   1.760  -1.250  0.00  0.00    -0.070 C 
ATOM      5  C   LIG    1        0.183   1.472  -0.019  0.00  0.00    +0.060 C 
ATOM      6  C   LIG    1       -0.530   1.983   1.234  0.00  0.00    -0.060 C 
ATOM      7  C   LIG    1       -0.757   3.491   1.112  0.00  0.00    +0.030 C 
ATOM      8  C   LIG    1       -1.619   3.780  -0.119  0.00  0.00    -0.050 C 
ATOM      9  C   LIG    1       -2.967   3.071   0.025  0.00  0.00    +0.030 C 
ATOM     10  C   LIG    1       -2.741   1.563   0.147  0.00  0.00    -0.050 C 
ATOM     11  C   LIG    1       -4.089   0.855   0.292  0.00  0.00    +0.040 C 
ATOM     12  C   LIG    1       -1.845   5.288  -0.241  0.00  0.00    +0.040 C 
ATOM     13  C   LIG    1        0.331   1.695   2.465  0.00  0.00    +0.040 C 
ATOM     14  C   LIG    1       -1.879   1.275   1.378  0.00  0.00    +0.030 C 
ATOM     15  C   LIG    1       -0.905   3.268  -1.372  0.00  0.00    +0.030 C 
ATOM     16  C   LIG    1       -2.027   1.052  -1.106  0.00  0.00    +0.040 C 
ENDBRANCH   2   4
BRANCH   1  17
ATOM     17  C   LIG    1        0.010   0.761  -4.807  0.00  0.00    +0.350 A 
ATOM     18  C   LIG    1        1.017  -0.183  -4.641  0.00  0.00    -0.020 A 
ATOM     19  C   LIG    1        1.588  -0.761  -5.761  0.00  0.00    +0.080 A 
ATOM     20  C   LIG    1        1.139  -0.365  -7.013  0.00  0.00    -0.070 A 
ATOM     21  C   LIG    1        0.138   0.583  -7.104  0.00  0.00    +0.280 A 
ATOM     22  N   LIG    1       -0.392   1.113  -6.018  0.00  0.00    -0.480 NA
ENDBRANCH   1  17
BRANCH   1  24
ATOM     23  C   LIG    1       -2.879   1.151  -4.492  0.00  0.00    +0.070 C 
ATOM     24  C   LIG    1       -1.851   2.060  -3.817  0.00  0.00    +0.350 C 
BRANCH  24  25
ATOM     25  C   LIG    1       -1.650   3.298  -4.652  0.00  0.00    -0.020 A 
ATOM     26  C   LIG    1       -2.208   4.501  -4.424  0.00  0.00    -0.060 A 
ATOM     27  C   LIG    1       -1.750   5.365  -5.445  0.00  0.00    -0.070 A 
ATOM     28  C   LIG    1       -0.940   4.639  -6.236  0.00  0.00    +0.160 A 
ATOM     29  O   LIG    1       -0.878   3.390  -5.748  0.00  0.00    -0.130 OA
ENDBRANCH  24  25
ENDBRANCH   1  24
TORSDOF 4
