REMARK  Name = ZINCpe000000UEif.0
REMARK                            x       y       z     vdW  Elec       q    Type
REMARK                         _______ _______ _______ _____ _____    ______ ____
ROOT
ATOM      1  S   LIG    1       -0.493   6.702  -2.081  0.00  0.00    +2.690 S 
ATOM      2  O   LIG    1       -1.618   6.172  -1.394  0.00  0.00    -0.940 OA
ATOM      3  O   LIG    1       -0.301   6.562  -3.482  0.00  0.00    -0.940 OA
ENDROOT
BRANCH   1   4
ATOM      4  C   LIG    1       -0.477   8.432  -1.747  0.00  0.00    -0.630 A 
ATOM      5  C   LIG    1       -1.106   8.925  -0.619  0.00  0.00    +0.110 A 
ATOM      6  C   LIG    1       -1.089  10.281  -0.355  0.00  0.00    +0.120 A 
ATOM      7  C   LIG    1       -0.452  11.147  -1.224  0.00  0.00    -0.630 A 
ATOM      8  C   LIG    1        0.172  10.655  -2.355  0.00  0.00    +0.120 A 
ATOM      9  C   LIG    1        0.160   9.298  -2.617  0.00  0.00    +0.110 A 
BRANCH   7  10
ATOM     10  S   LIG    1       -0.436  12.877  -0.890  0.00  0.00    +2.700 S 
ATOM     11  O   LIG    1        0.689  13.408  -1.577  0.00  0.00    -0.950 OA
ATOM     12  O   LIG    1       -0.628  13.017   0.511  0.00  0.00    -0.950 OA
BRANCH  10  13
ATOM     13  N   LIG    1       -1.776  13.528  -1.613  0.00  0.00    -1.250 NA
ATOM     14  H   LIG    1       -1.949  14.480  -1.545  0.00  0.00    +0.420 HD
ATOM     15  H   LIG    1       -2.387  12.958  -2.105  0.00  0.00    +0.420 HD
ENDBRANCH  10  13
ENDBRANCH   7  10
ENDBRANCH   1   4
BRANCH   1  17
ATOM     16  C   LIG    1        2.108   5.961  -2.098  0.00  0.00    +0.310 C 
ATOM     17  N   LIG    1        0.847   6.051  -1.358  0.00  0.00    -0.990 NA
BRANCH  17  18
ATOM     18  C   LIG    1        0.771   5.565   0.022  0.00  0.00    +0.370 C 
BRANCH  18  19
ATOM     19  C   LIG    1        0.496   4.083   0.018  0.00  0.00    -0.110 A 
ATOM     20  C   LIG    1       -0.808   3.624   0.028  0.00  0.00    +0.070 A 
ATOM     21  C   LIG    1       -1.065   2.265   0.019  0.00  0.00    +0.040 A 
ATOM     22  C   LIG    1       -0.016   1.361   0.009  0.00  0.00    +0.040 A 
ATOM     23  O   LIG    1        0.002  -0.004   0.002  0.00  0.00    -0.310 OA
ATOM     24  C   LIG    1        1.336  -0.373   0.399  0.00  0.00    +0.430 C 
ATOM     25  O   LIG    1        2.139   0.749  -0.014  0.00  0.00    -0.310 OA
ATOM     26  C   LIG    1        1.297   1.824  -0.001  0.00  0.00    +0.030 A 
ATOM     27  C   LIG    1        1.548   3.186   0.004  0.00  0.00    +0.060 A 
ENDBRANCH  18  19
ENDBRANCH  17  18
ENDBRANCH   1  17
TORSDOF 6
