REMARK  Name = ZINCrH000004ngcM.0
REMARK                            x       y       z     vdW  Elec       q    Type
REMARK                         _______ _______ _______ _____ _____    ______ ____
ROOT
ATOM      1  C   LIG    1       -4.969   1.536   0.776  0.00  0.00    +0.590 C 
ATOM      2  N   LIG    1       -5.784   2.600   0.635  0.00  0.00    -0.610 N 
ATOM      3  C   LIG    1       -5.266   3.972   0.755  0.00  0.00    +0.250 C 
ATOM      4  C   LIG    1       -5.731   4.773  -0.466  0.00  0.00    +0.220 C 
ATOM      5  O   LIG    1       -7.147   4.639  -0.606  0.00  0.00    -0.370 OA
ATOM      6  C   LIG    1       -7.588   3.301  -0.846  0.00  0.00    +0.230 C 
ATOM      7  C   LIG    1       -7.217   2.424   0.351  0.00  0.00    +0.290 C 
ATOM      8  O   LIG    1       -5.389   0.415   0.560  0.00  0.00    -0.480 OA
ENDROOT
BRANCH   1  14
ATOM      9  C   LIG    1        1.104   1.240   1.642  0.00  0.00    +0.130 A 
ATOM     10  C   LIG    1        1.024   2.327   2.511  0.00  0.00    -0.030 A 
ATOM     11  C   LIG    1       -0.191   2.912   2.772  0.00  0.00    +0.080 A 
ATOM     12  C   LIG    1       -1.356   2.425   2.170  0.00  0.00    -0.170 A 
ATOM     13  S   LIG    1       -3.026   2.963   2.313  0.00  0.00    +0.130 S 
ATOM     14  C   LIG    1       -3.572   1.730   1.190  0.00  0.00    -0.230 A 
ATOM     15  C   LIG    1       -2.544   0.984   0.772  0.00  0.00    -0.010 A 
ATOM     16  C   LIG    1       -2.722  -0.160  -0.193  0.00  0.00    +0.120 C 
ATOM     17  C   LIG    1       -1.288   1.338   1.290  0.00  0.00    -0.040 A 
ATOM     18  C   LIG    1       -0.027   0.746   1.039  0.00  0.00    +0.030 A 
BRANCH   9  20
ATOM     19  C   LIG    1        3.448   1.228   2.046  0.00  0.00    +0.250 C 
ATOM     20  O   LIG    1        2.311   0.666   1.388  0.00  0.00    -0.310 OA
ENDBRANCH   9  20
ENDBRANCH   1  14
BRANCH   7  21
ATOM     21  C   LIG    1       -7.496   0.980   0.026  0.00  0.00    -0.230 A 
ATOM     22  C   LIG    1       -8.366   0.171   0.675  0.00  0.00    +0.100 A 
ATOM     23  N   LIG    1       -8.326  -1.039   0.079  0.00  0.00    -0.480 N 
ATOM     24  H   LIG    1       -8.847  -1.817   0.332  0.00  0.00    +0.440 HD
ATOM     25  N   LIG    1       -7.395  -0.975  -0.966  0.00  0.00    -0.300 NA
ATOM     26  C   LIG    1       -9.227   0.554   1.851  0.00  0.00    +0.130 C 
ATOM     27  C   LIG    1       -6.898   0.236  -0.997  0.00  0.00    +0.150 A 
ATOM     28  C   LIG    1       -5.862   0.741  -1.967  0.00  0.00    +0.130 C 
ENDBRANCH   7  21
TORSDOF 3
