REMARK  Name = ZINCrD000000AGp9.0
REMARK                            x       y       z     vdW  Elec       q    Type
REMARK                         _______ _______ _______ _____ _____    ______ ____
ROOT
ATOM      1  O   LIG    1        0.555   3.366  -1.008  0.00  0.00    -0.510 OA
ATOM      2  C   LIG    1       -0.552   2.991  -1.330  0.00  0.00    +0.560 C 
ATOM      3  N   LIG    1       -1.278   3.711  -2.208  0.00  0.00    -0.610 N 
ATOM      4  C   LIG    1       -2.672   3.351  -2.514  0.00  0.00    +0.250 C 
ATOM      5  C   LIG    1       -3.539   4.606  -2.366  0.00  0.00    +0.220 C 
ATOM      6  O   LIG    1       -2.973   5.664  -3.142  0.00  0.00    -0.370 OA
ATOM      7  C   LIG    1       -1.665   6.062  -2.723  0.00  0.00    +0.150 C 
ATOM      8  C   LIG    1       -0.703   4.885  -2.885  0.00  0.00    +0.260 C 
ENDROOT
BRANCH   7   9
ATOM      9  C   LIG    1       -1.188   7.236  -3.580  0.00  0.00    +0.000 C 
ATOM     10  C   LIG    1        0.209   7.669  -3.124  0.00  0.00    +0.010 C 
ATOM     11  C   LIG    1        0.644   8.893  -3.934  0.00  0.00    +0.210 C 
ATOM     12  O   LIG    1       -0.313   9.940  -3.765  0.00  0.00    -0.380 OA
ATOM     13  C   LIG    1       -1.627   9.608  -4.218  0.00  0.00    +0.210 C 
ATOM     14  C   LIG    1       -2.154   8.413  -3.419  0.00  0.00    +0.000 C 
ENDBRANCH   7   9
BRANCH   2  15
ATOM     15  C   LIG    1       -1.117   1.721  -0.749  0.00  0.00    -0.150 C 
ATOM     16  C   LIG    1       -0.644   1.313   0.648  0.00  0.00    +0.110 C 
ATOM     17  C   LIG    1       -2.062   1.851   0.448  0.00  0.00    +0.060 C 
BRANCH  15  18
ATOM     18  C   LIG    1       -1.394   0.620  -1.739  0.00  0.00    +0.000 A 
ATOM     19  C   LIG    1       -2.682   0.405  -2.191  0.00  0.00    +0.020 A 
ATOM     20  C   LIG    1       -2.936  -0.606  -3.100  0.00  0.00    +0.060 A 
ATOM     21  C   LIG    1       -1.902  -1.401  -3.556  0.00  0.00    +0.020 A 
ATOM     22  C   LIG    1       -0.613  -1.185  -3.105  0.00  0.00    +0.070 A 
ATOM     23  C   LIG    1       -0.358  -0.172  -2.200  0.00  0.00    -0.170 A 
BRANCH  23  24
ATOM     24  C   LIG    1        1.047   0.066  -1.712  0.00  0.00    +0.500 C 
ATOM     25  F   LIG    1        1.067   0.030  -0.313  0.00  0.00    -0.170 F 
ATOM     26  F   LIG    1        1.488   1.318  -2.153  0.00  0.00    -0.160 F 
ATOM     27  F   LIG    1        1.891  -0.930  -2.216  0.00  0.00    -0.180 F 
ENDBRANCH  23  24
ENDBRANCH  15  18
ENDBRANCH   2  15
TORSDOF 4
