REMARK  Name = ZINCvU0000000IcG.0
REMARK                            x       y       z     vdW  Elec       q    Type
REMARK                         _______ _______ _______ _____ _____    ______ ____
ROOT
ATOM      1  C   LIG    1       -4.909   1.008   0.103  0.00  0.00    +0.230 A 
ATOM      2  C   LIG    1       -6.149   1.531   0.342  0.00  0.00    +0.040 A 
ATOM      3  N   LIG    1       -7.003   0.501   0.515  0.00  0.00    -0.460 NA
ATOM      4  C   LIG    1       -6.353  -0.622   0.404  0.00  0.00    +0.410 A 
ATOM      5  N   LIG    1       -5.044  -0.354   0.147  0.00  0.00    -0.470 N 
ENDROOT
BRANCH   2   6
ATOM      6  C   LIG    1       -6.493   2.971   0.397  0.00  0.00    +0.040 A 
ATOM      7  C   LIG    1       -5.636   3.872   1.028  0.00  0.00    +0.050 A 
ATOM      8  C   LIG    1       -5.959   5.213   1.073  0.00  0.00    -0.020 A 
ATOM      9  C   LIG    1       -7.138   5.663   0.501  0.00  0.00    +0.090 A 
ATOM     10  C   LIG    1       -7.996   4.771  -0.122  0.00  0.00    -0.020 A 
ATOM     11  F   LIG    1       -7.452   6.976   0.552  0.00  0.00    -0.140 F 
ATOM     12  C   LIG    1       -7.679   3.429  -0.176  0.00  0.00    +0.060 A 
ENDBRANCH   2   6
BRANCH   1  14
ATOM     13  C   LIG    1       -3.791   2.934  -0.715  0.00  0.00    +0.550 C 
ATOM     14  N   LIG    1       -3.736   1.720  -0.133  0.00  0.00    -0.640 N 
ATOM     15  H   LIG    1       -2.880   1.343   0.123  0.00  0.00    +0.400 HD
ATOM     16  O   LIG    1       -4.851   3.363  -1.129  0.00  0.00    -0.470 OA
BRANCH  13  20
ATOM     17  C   LIG    1       -0.263   5.268  -1.101  0.00  0.00    +0.130 A 
ATOM     18  C   LIG    1       -1.473   5.758  -1.574  0.00  0.00    -0.040 A 
ATOM     19  C   LIG    1       -2.619   5.002  -1.454  0.00  0.00    +0.130 A 
ATOM     20  C   LIG    1       -2.564   3.744  -0.851  0.00  0.00    -0.140 A 
ATOM     21  C   LIG    1       -1.343   3.250  -0.381  0.00  0.00    +0.050 A 
ATOM     22  C   LIG    1       -0.201   4.012  -0.505  0.00  0.00    +0.070 A 
ATOM     23  F   LIG    1        0.978   3.539  -0.046  0.00  0.00    -0.130 F 
BRANCH  17  25
ATOM     24  C   LIG    1        0.730   7.296  -1.844  0.00  0.00    +0.250 C 
ATOM     25  O   LIG    1        0.864   6.016  -1.222  0.00  0.00    -0.300 OA
ENDBRANCH  17  25
ENDBRANCH  13  20
ENDBRANCH   1  14
BRANCH   5  26
ATOM     26  C   LIG    1       -3.977  -1.340  -0.046  0.00  0.00    +0.350 C 
BRANCH  26  27
ATOM     27  C   LIG    1       -3.277  -1.585   1.266  0.00  0.00    -0.120 A 
ATOM     28  C   LIG    1       -2.116  -0.898   1.569  0.00  0.00    +0.000 A 
ATOM     29  C   LIG    1       -1.477  -1.120   2.774  0.00  0.00    +0.010 A 
ATOM     30  C   LIG    1       -1.992  -2.036   3.672  0.00  0.00    +0.020 A 
ATOM     31  C   LIG    1       -3.150  -2.727   3.366  0.00  0.00    +0.010 A 
ATOM     32  C   LIG    1       -3.792  -2.501   2.163  0.00  0.00    +0.040 A 
ENDBRANCH  26  27
ENDBRANCH   5  26
TORSDOF 6
