REMARK  Name = ZINCqH0000006oNe.0
REMARK                            x       y       z     vdW  Elec       q    Type
REMARK                         _______ _______ _______ _____ _____    ______ ____
ROOT
ATOM      1  C   LIG    1        0.544   9.890  -1.117  0.00  0.00    +0.260 C 
ENDROOT
BRANCH   1   3
ATOM      2  C   LIG    1        0.751   7.754   0.036  0.00  0.00    +0.560 C 
ATOM      3  N   LIG    1        0.678   8.431  -1.126  0.00  0.00    -0.730 N 
ATOM      4  H   LIG    1        0.714   7.953  -1.969  0.00  0.00    +0.400 HD
ATOM      5  O   LIG    1        0.706   8.353   1.093  0.00  0.00    -0.530 OA
BRANCH   2   9
ATOM      6  C   LIG    1        1.141   3.524   0.010  0.00  0.00    -0.070 A 
ATOM      7  C   LIG    1        1.071   4.217  -1.186  0.00  0.00    +0.020 A 
ATOM      8  C   LIG    1        0.939   5.590  -1.184  0.00  0.00    +0.040 A 
ATOM      9  C   LIG    1        0.886   6.282   0.027  0.00  0.00    -0.130 A 
ATOM     10  C   LIG    1        0.962   5.577   1.230  0.00  0.00    +0.080 A 
ATOM     11  C   LIG    1        1.089   4.204   1.214  0.00  0.00    +0.030 A 
BRANCH   6  12
ATOM     12  C   LIG    1        1.280   2.024   0.001  0.00  0.00    +0.220 C 
BRANCH  12  14
ATOM     13  C   LIG    1        0.002  -0.004   0.002  0.00  0.00    +0.200 C 
ATOM     14  O   LIG    1       -0.017   1.425   0.010  0.00  0.00    -0.390 OA
ENDBRANCH  12  14
ENDBRANCH   6  12
ENDBRANCH   2   9
ENDBRANCH   1   3
BRANCH   1  15
ATOM     15  C   LIG    1        0.483  10.406  -2.557  0.00  0.00    +0.070 C 
BRANCH  15  16
ATOM     16  C   LIG    1        0.345  11.906  -2.547  0.00  0.00    -0.110 A 
ATOM     17  C   LIG    1       -0.911  12.483  -2.538  0.00  0.00    +0.040 A 
ATOM     18  C   LIG    1       -1.041  13.858  -2.523  0.00  0.00    -0.040 A 
ATOM     19  C   LIG    1        0.092  14.662  -2.530  0.00  0.00    +0.110 A 
ATOM     20  C   LIG    1        1.353  14.078  -2.545  0.00  0.00    -0.010 A 
ATOM     21  C   LIG    1        1.476  12.703  -2.554  0.00  0.00    +0.030 A 
BRANCH  19  22
ATOM     22  N   LIG    1       -0.036  16.052  -2.522  0.00  0.00    -0.490 N 
ATOM     23  C   LIG    1        0.695  16.641  -1.392  0.00  0.00    +0.180 C 
ATOM     24  C   LIG    1        0.655  18.168  -1.497  0.00  0.00    +0.020 C 
ATOM     25  C   LIG    1       -0.803  18.637  -1.487  0.00  0.00    +0.010 C 
ATOM     26  C   LIG    1       -1.553  17.971  -2.644  0.00  0.00    +0.020 C 
ATOM     27  C   LIG    1       -1.449  16.451  -2.506  0.00  0.00    +0.180 C 
ENDBRANCH  19  22
ENDBRANCH  15  16
ENDBRANCH   1  15
TORSDOF 7
