REMARK  Name = ZINCkj00000a7UGs.1
REMARK                            x       y       z     vdW  Elec       q    Type
REMARK                         _______ _______ _______ _____ _____    ______ ____
ROOT
ATOM      1  O   LIG    1        0.152   5.666   2.586  0.00  0.00    -0.930 OA
ATOM      2  S   LIG    1       -0.353   4.632   3.419  0.00  0.00    +2.590 S 
ATOM      3  C   LIG    1       -1.439   3.534   2.452  0.00  0.00    -0.340 C 
ATOM      4  C   LIG    1       -0.586   3.035   1.238  0.00  0.00    +0.310 C 
ATOM      5  N   LIG    1       -0.700   1.560   1.217  0.00  0.00    -0.400 N 
ATOM      6  C   LIG    1       -0.193   0.755   2.356  0.00  0.00    +0.260 C 
ATOM      7  C   LIG    1        1.346   1.124   2.431  0.00  0.00    +0.060 C 
ATOM      8  C   LIG    1        1.581   1.414   3.934  0.00  0.00    +0.030 C 
ATOM      9  C   LIG    1        0.728   2.506   4.593  0.00  0.00    +0.290 C 
ATOM     10  H   LIG    1       -1.678   1.336   1.105  0.00  0.00    +0.420 HD
ATOM     11  O   LIG    1       -0.971   4.950   4.659  0.00  0.00    -0.920 OA
ATOM     12  N   LIG    1        1.017   3.795   3.873  0.00  0.00    -1.110 NA
ATOM     13  H   LIG    1        1.916   4.109   3.689  0.00  0.00    +0.440 HD
ENDROOT
BRANCH   5  14
ATOM     14  C   LIG    1       -0.013   1.086   0.008  0.00  0.00    +0.260 C 
BRANCH  14  15
ATOM     15  C   LIG    1       -0.753   1.593  -1.232  0.00  0.00    +0.100 C 
BRANCH  15  16
ATOM     16  C   LIG    1       -0.047   1.107  -2.471  0.00  0.00    -0.140 A 
ATOM     17  C   LIG    1        0.876   1.917  -3.104  0.00  0.00    +0.060 A 
ATOM     18  C   LIG    1        1.528   1.469  -4.238  0.00  0.00    +0.020 A 
ATOM     19  C   LIG    1        1.248   0.215  -4.747  0.00  0.00    +0.070 A 
ATOM     20  C   LIG    1        0.320  -0.595  -4.120  0.00  0.00    -0.010 A 
ATOM     21  C   LIG    1       -0.329  -0.150  -2.981  0.00  0.00    +0.110 A 
ATOM     22  F   LIG    1       -1.236  -0.941  -2.367  0.00  0.00    -0.140 F 
ENDBRANCH  15  16
ENDBRANCH  14  15
ENDBRANCH   5  14
TORSDOF 3
