REMARK  Name = ZINCkj00000a7UGs.0
REMARK                            x       y       z     vdW  Elec       q    Type
REMARK                         _______ _______ _______ _____ _____    ______ ____
ROOT
ATOM      1  O   LIG    1       -4.108   9.030  -1.191  0.00  0.00    -0.930 OA
ATOM      2  S   LIG    1       -3.842   8.250  -2.349  0.00  0.00    +2.590 S 
ATOM      3  C   LIG    1       -3.128   6.646  -1.864  0.00  0.00    -0.360 C 
ATOM      4  C   LIG    1       -4.143   6.001  -0.861  0.00  0.00    +0.310 C 
ATOM      5  N   LIG    1       -4.413   4.631  -1.354  0.00  0.00    -0.400 N 
ATOM      6  C   LIG    1       -5.049   4.428  -2.680  0.00  0.00    +0.270 C 
ATOM      7  C   LIG    1       -6.436   5.185  -2.560  0.00  0.00    +0.060 C 
ATOM      8  C   LIG    1       -6.509   6.022  -3.860  0.00  0.00    +0.030 C 
ATOM      9  C   LIG    1       -5.371   7.013  -4.137  0.00  0.00    +0.290 C 
ATOM     10  H   LIG    1       -4.997   4.176  -0.668  0.00  0.00    +0.430 HD
ATOM     11  O   LIG    1       -3.100   8.802  -3.428  0.00  0.00    -0.920 OA
ATOM     12  N   LIG    1       -5.356   8.005  -3.007  0.00  0.00    -1.110 NA
ATOM     13  H   LIG    1       -6.152   8.459  -2.689  0.00  0.00    +0.440 HD
ENDROOT
BRANCH   5  14
ATOM     14  C   LIG    1       -3.132   3.913  -1.369  0.00  0.00    +0.250 C 
BRANCH  14  15
ATOM     15  C   LIG    1       -2.552   3.874   0.046  0.00  0.00    +0.100 C 
BRANCH  15  16
ATOM     16  C   LIG    1       -1.238   3.137   0.030  0.00  0.00    -0.140 A 
ATOM     17  C   LIG    1       -0.050   3.842   0.023  0.00  0.00    +0.060 A 
ATOM     18  C   LIG    1        1.156   3.166   0.007  0.00  0.00    +0.020 A 
ATOM     19  C   LIG    1        1.175   1.783   0.000  0.00  0.00    +0.070 A 
ATOM     20  C   LIG    1       -0.013   1.076   0.008  0.00  0.00    -0.010 A 
ATOM     21  C   LIG    1       -1.221   1.752   0.017  0.00  0.00    +0.100 A 
ATOM     22  F   LIG    1       -2.382   1.061   0.019  0.00  0.00    -0.140 F 
ENDBRANCH  15  16
ENDBRANCH  14  15
ENDBRANCH   5  14
TORSDOF 3
