REMARK  Name = ZINCnE00000rhnZb.0
REMARK                            x       y       z     vdW  Elec       q    Type
REMARK                         _______ _______ _______ _____ _____    ______ ____
ROOT
ATOM      1  C   LIG    1        1.185   1.788   0.000  0.00  0.00    +0.200 A 
ATOM      2  C   LIG    1       -0.013   1.076   0.008  0.00  0.00    -0.060 A 
ATOM      3  C   LIG    1       -1.205   1.742   0.017  0.00  0.00    +0.100 A 
ATOM      4  C   LIG    1       -1.223   3.141   0.030  0.00  0.00    -0.140 A 
ATOM      5  C   LIG    1       -0.018   3.853   0.022  0.00  0.00    -0.110 A 
ATOM      6  C   LIG    1        1.171   3.181   0.007  0.00  0.00    -0.040 A 
ENDROOT
BRANCH   5   7
ATOM      7  C   LIG    1       -0.032   5.360   0.029  0.00  0.00    +0.520 C 
ATOM      8  F   LIG    1       -0.685   5.815   1.180  0.00  0.00    -0.160 F 
ATOM      9  F   LIG    1       -0.706   5.826  -1.105  0.00  0.00    -0.160 F 
ATOM     10  F   LIG    1        1.283   5.839   0.019  0.00  0.00    -0.210 F 
ENDBRANCH   5   7
BRANCH   4  11
ATOM     11  C   LIG    1       -2.506   3.862   0.046  0.00  0.00    +0.520 C 
ATOM     12  O   LIG    1       -2.519   5.086   0.053  0.00  0.00    -0.670 OA
ATOM     13  O   LIG    1       -3.558   3.238   0.053  0.00  0.00    -0.690 OA
ENDBRANCH   4  11
BRANCH   1  14
ATOM     14  N   LIG    1        2.395   1.107  -0.014  0.00  0.00    -0.740 N 
ATOM     15  H   LIG    1        3.230   1.601  -0.019  0.00  0.00    +0.400 HD
BRANCH  14  16
ATOM     16  C   LIG    1        2.412  -0.358  -0.021  0.00  0.00    +0.340 C 
BRANCH  16  21
ATOM     17  C   LIG    1        5.729  -1.376  -1.247  0.00  0.00    +0.320 A 
ATOM     18  C   LIG    1        6.417  -1.719  -0.090  0.00  0.00    -0.050 A 
ATOM     19  C   LIG    1        5.775  -1.614   1.132  0.00  0.00    +0.100 A 
ATOM     20  C   LIG    1        4.463  -1.163   1.153  0.00  0.00    -0.050 A 
ATOM     21  C   LIG    1        3.838  -0.844  -0.036  0.00  0.00    +0.150 A 
ATOM     22  N   LIG    1        4.477  -0.954  -1.186  0.00  0.00    -0.520 NA
BRANCH  17  24
ATOM     23  C   LIG    1        5.586  -1.106  -3.603  0.00  0.00    +0.260 C 
ATOM     24  O   LIG    1        6.347  -1.474  -2.450  0.00  0.00    -0.310 OA
ENDBRANCH  17  24
ENDBRANCH  16  21
ENDBRANCH  14  16
ENDBRANCH   1  14
TORSDOF 6
