REMARK  Name = ZINCpk00000xI2yd.0
REMARK                            x       y       z     vdW  Elec       q    Type
REMARK                         _______ _______ _______ _____ _____    ______ ____
ROOT
ATOM      1  C   LIG    1       -0.756   1.591  -1.232  0.00  0.00    -0.020 C 
ATOM      2  C   LIG    1       -0.016   1.083   0.008  0.00  0.00    +0.050 C 
ATOM      3  C   LIG    1       -0.732   1.577   1.267  0.00  0.00    +0.010 C 
ATOM      4  C   LIG    1       -0.718   3.109   1.290  0.00  0.00    +0.260 C 
ATOM      5  N   LIG    1       -1.297   3.605   0.034  0.00  0.00    -0.630 N 
ATOM      6  C   LIG    1       -2.317   4.486   0.049  0.00  0.00    +0.710 C 
ATOM      7  N   LIG    1       -2.882   4.843   1.219  0.00  0.00    -0.750 N 
ATOM      8  H   LIG    1       -2.509   4.524   2.055  0.00  0.00    +0.400 HD
ATOM      9  O   LIG    1       -2.727   4.959  -0.994  0.00  0.00    -0.590 OA
ATOM     10  C   LIG    1       -0.743   3.123  -1.238  0.00  0.00    +0.310 C 
ENDROOT
BRANCH   1  12
ATOM     11  N   LIG    1       -0.549   1.399  -3.690  0.00  0.00    -0.620 N 
ATOM     12  C   LIG    1       -0.070   1.077  -2.472  0.00  0.00    +0.520 C 
ATOM     13  O   LIG    1        0.914   0.374  -2.374  0.00  0.00    -0.530 OA
ATOM     14  C   LIG    1       -1.737   2.248  -3.809  0.00  0.00    +0.300 C 
BRANCH  11  15
ATOM     15  C   LIG    1        0.117   0.900  -4.895  0.00  0.00    +0.300 C 
BRANCH  15  16
ATOM     16  C   LIG    1       -0.491  -0.447  -5.294  0.00  0.00    +0.160 C 
BRANCH  16  20
ATOM     17  C   LIG    1        0.724  -1.404 -10.057  0.00  0.00    +0.240 C 
ATOM     18  C   LIG    1        0.697  -1.357  -8.550  0.00  0.00    +0.180 A 
ATOM     19  N   LIG    1       -0.176  -0.724  -7.804  0.00  0.00    -0.480 NA
ATOM     20  C   LIG    1        0.195  -0.960  -6.533  0.00  0.00    +0.170 A 
ATOM     21  N   LIG    1        1.250  -1.718  -6.571  0.00  0.00    -0.380 NA
ATOM     22  O   LIG    1        1.555  -1.957  -7.720  0.00  0.00    +0.080 OA
ENDBRANCH  16  20
ENDBRANCH  15  16
ENDBRANCH  11  15
ENDBRANCH   1  12
BRANCH   7  23
ATOM     23  C   LIG    1       -4.061   5.713   1.228  0.00  0.00    +0.280 C 
BRANCH  23  24
ATOM     24  C   LIG    1       -4.500   5.962   2.672  0.00  0.00    -0.030 C 
ATOM     25  C   LIG    1       -5.801   6.766   2.678  0.00  0.00    +0.030 C 
ATOM     26  C   LIG    1       -3.412   6.747   3.408  0.00  0.00    +0.020 C 
ENDBRANCH  23  24
ENDBRANCH   7  23
TORSDOF 6
