REMARK  Name = ZINCqH0000007SM8.0
REMARK                            x       y       z     vdW  Elec       q    Type
REMARK                         _______ _______ _______ _____ _____    ______ ____
ROOT
ATOM      1  N   LIG    1        0.804   4.124   0.285  0.00  0.00    -0.710 N 
ATOM      2  H   LIG    1       -0.114   3.817   0.341  0.00  0.00    +0.400 HD
ATOM      3  C   LIG    1        1.818   3.252   0.451  0.00  0.00    +0.610 C 
ATOM      4  O   LIG    1        2.969   3.637   0.381  0.00  0.00    -0.520 OA
ENDROOT
BRANCH   3   5
ATOM      5  C   LIG    1        1.531   1.827   0.718  0.00  0.00    -0.050 A 
ATOM      6  N   LIG    1        0.332   1.282   0.818  0.00  0.00    -0.200 NA
ATOM      7  N   LIG    1        0.454   0.022   1.054  0.00  0.00    -0.160 N 
ATOM      8  N   LIG    1        1.817  -0.297   1.117  0.00  0.00    -0.270 NA
ATOM      9  C   LIG    1        2.485   0.813   0.910  0.00  0.00    +0.110 A 
ATOM     10  C   LIG    1        3.984   0.970   0.884  0.00  0.00    +0.190 C 
BRANCH   7  11
ATOM     11  C   LIG    1       -0.604  -0.882   1.222  0.00  0.00    +0.170 A 
ATOM     12  C   LIG    1       -0.341  -2.221   1.473  0.00  0.00    +0.050 A 
ATOM     13  C   LIG    1       -1.385  -3.110   1.639  0.00  0.00    +0.070 A 
ATOM     14  C   LIG    1       -2.692  -2.667   1.554  0.00  0.00    +0.050 A 
ATOM     15  C   LIG    1       -2.958  -1.332   1.303  0.00  0.00    -0.020 A 
ATOM     16 CL   LIG    1       -4.601  -0.780   1.198  0.00  0.00    -0.050 Cl
ATOM     17  C   LIG    1       -1.917  -0.438   1.142  0.00  0.00    +0.040 A 
ENDBRANCH   7  11
ENDBRANCH   3   5
BRANCH   1  18
ATOM     18  C   LIG    1        1.089   5.537   0.021  0.00  0.00    +0.300 C 
ATOM     19  C   LIG    1        1.258   5.749  -1.485  0.00  0.00    +0.040 C 
BRANCH  18  25
ATOM     20  C   LIG    1        0.173   7.693   0.916  0.00  0.00    +0.140 A 
ATOM     21  C   LIG    1       -0.882   8.470   1.371  0.00  0.00    -0.070 A 
ATOM     22  C   LIG    1       -2.153   7.934   1.443  0.00  0.00    +0.050 A 
ATOM     23  C   LIG    1       -2.375   6.625   1.056  0.00  0.00    -0.020 A 
ATOM     24  C   LIG    1       -1.327   5.850   0.596  0.00  0.00    +0.050 A 
ATOM     25  C   LIG    1       -0.054   6.382   0.522  0.00  0.00    -0.130 A 
BRANCH  20  27
ATOM     26  C   LIG    1        1.585   9.572   1.271  0.00  0.00    +0.250 C 
ATOM     27  O   LIG    1        1.425   8.216   0.850  0.00  0.00    -0.310 OA
ENDBRANCH  20  27
ENDBRANCH  18  25
ENDBRANCH   1  18
TORSDOF 5
