REMARK  Name = ZINCvU0000000B3U.0
REMARK                            x       y       z     vdW  Elec       q    Type
REMARK                         _______ _______ _______ _____ _____    ______ ____
ROOT
ATOM      1  C   LIG    1        3.740   1.832  -0.134  0.00  0.00    -0.150 A 
ATOM      2  C   LIG    1        3.719   3.231  -0.133  0.00  0.00    +0.100 A 
ATOM      3  C   LIG    1        4.896   3.937  -0.238  0.00  0.00    +0.050 A 
ATOM      4  C   LIG    1        6.104   3.262  -0.358  0.00  0.00    +0.110 A 
ATOM      5  C   LIG    1        6.132   1.864  -0.365  0.00  0.00    +0.020 A 
ATOM      6  O   LIG    1        7.429   1.489  -0.492  0.00  0.00    -0.230 OA
ATOM      7  C   LIG    1        8.198   2.587  -0.564  0.00  0.00    +0.640 A 
ATOM      8  O   LIG    1        9.408   2.590  -0.681  0.00  0.00    -0.480 OA
ATOM      9  N   LIG    1        7.422   3.686  -0.484  0.00  0.00    -0.540 N 
ATOM     10  C   LIG    1        4.955   1.151  -0.254  0.00  0.00    +0.130 A 
ENDROOT
BRANCH   1  11
ATOM     11  C   LIG    1        2.479   1.076  -0.015  0.00  0.00    +0.450 C 
ATOM     12  O   LIG    1        2.478  -0.132  -0.158  0.00  0.00    -0.440 OA
BRANCH  11  17
ATOM     13  C   LIG    1       -2.437   3.841   1.127  0.00  0.00    +0.100 C 
ATOM     14  C   LIG    1       -1.149   3.117   0.828  0.00  0.00    -0.060 A 
ATOM     15  C   LIG    1        0.039   3.571   1.374  0.00  0.00    +0.000 A 
ATOM     16  C   LIG    1        1.222   2.916   1.100  0.00  0.00    +0.060 A 
ATOM     17  C   LIG    1        1.216   1.786   0.279  0.00  0.00    -0.160 A 
ATOM     18  C   LIG    1        0.013   1.331  -0.264  0.00  0.00    +0.070 A 
ATOM     19  C   LIG    1       -1.161   1.998   0.014  0.00  0.00    +0.000 A 
ENDBRANCH  11  17
ENDBRANCH   1  11
BRANCH   9  20
ATOM     20  C   LIG    1        7.884   5.075  -0.524  0.00  0.00    +0.450 C 
BRANCH  20  21
ATOM     21  C   LIG    1        8.179   5.547   0.876  0.00  0.00    +0.030 A 
ATOM     22  C   LIG    1        9.409   5.495   1.397  0.00  0.00    -0.030 A 
ATOM     23  S   LIG    1        9.341   6.135   3.038  0.00  0.00    +0.160 S 
ATOM     24  C   LIG    1        7.610   6.407   2.856  0.00  0.00    +0.130 A 
ATOM     25  N   LIG    1        7.244   6.028   1.662  0.00  0.00    -0.440 NA
BRANCH  24  26
ATOM     26  C   LIG    1        6.721   6.970   3.884  0.00  0.00    +0.040 A 
ATOM     27  C   LIG    1        7.093   7.363   5.134  0.00  0.00    +0.000 A 
ATOM     28  C   LIG    1        5.930   7.837   5.772  0.00  0.00    -0.050 A 
ATOM     29  C   LIG    1        4.915   7.705   4.894  0.00  0.00    +0.020 A 
ATOM     30  C   LIG    1        3.479   8.082   5.149  0.00  0.00    +0.180 C 
ATOM     31  O   LIG    1        5.396   7.181   3.755  0.00  0.00    -0.150 OA
ENDBRANCH  24  26
ENDBRANCH  20  21
ENDBRANCH   9  20
TORSDOF 5
