REMARK  Name = ZINCrD00000F5LAS.0
REMARK                            x       y       z     vdW  Elec       q    Type
REMARK                         _______ _______ _______ _____ _____    ______ ____
ROOT
ATOM      1  N   LIG    1        1.854  -4.481   3.976  0.00  0.00    -0.640 NA
ATOM      2  C   LIG    1        2.441  -5.338   4.809  0.00  0.00    +0.520 A 
ATOM      3  N   LIG    1        2.136  -6.669   4.957  0.00  0.00    -0.480 N 
ATOM      4  H   LIG    1        1.453  -7.160   4.473  0.00  0.00    +0.450 HD
ATOM      5  N   LIG    1        2.995  -7.188   5.935  0.00  0.00    -0.370 N 
ATOM      6  C   LIG    1        3.806  -6.180   6.370  0.00  0.00    +0.410 A 
ATOM      7  C   LIG    1        3.496  -5.048   5.701  0.00  0.00    -0.300 A 
ATOM      8 BR   LIG    1        4.329  -3.365   5.924  0.00  0.00    +0.020 Br
ENDROOT
BRANCH   1  10
ATOM      9  O   LIG    1        1.952  -2.567   5.084  0.00  0.00    -0.490 OA
ATOM     10  C   LIG    1        2.142  -3.178   4.047  0.00  0.00    +0.580 C 
BRANCH  10  11
ATOM     11  C   LIG    1        2.691  -2.475   2.863  0.00  0.00    +0.020 A 
ATOM     12  C   LIG    1        2.994  -1.112   2.929  0.00  0.00    +0.150 A 
ATOM     13  C   LIG    1        3.507  -0.508   1.787  0.00  0.00    -0.170 A 
ATOM     14  C   LIG    1        3.705  -1.281   0.643  0.00  0.00    +0.290 A 
ATOM     15  O   LIG    1        4.216  -0.792  -0.505  0.00  0.00    -0.290 OA
ATOM     16  C   LIG    1        4.152   0.591  -0.820  0.00  0.00    +0.300 C 
ATOM     17  C   LIG    1        4.866   1.393   0.280  0.00  0.00    +0.090 C 
ATOM     18  N   LIG    1        3.378  -2.573   0.683  0.00  0.00    -0.240 NA
ATOM     19  S   LIG    1        3.881   1.215   1.800  0.00  0.00    -0.060 S 
ATOM     20  N   LIG    1        2.900  -3.134   1.730  0.00  0.00    -0.140 NA
ENDBRANCH  10  11
ENDBRANCH   1  10
BRANCH   5  21
ATOM     21  C   LIG    1        3.018  -8.574   6.409  0.00  0.00    +0.420 C 
BRANCH  21  22
ATOM     22  C   LIG    1        4.063  -9.348   5.647  0.00  0.00    -0.170 A 
ATOM     23  C   LIG    1        3.689 -10.168   4.600  0.00  0.00    +0.070 A 
ATOM     24  C   LIG    1        4.647 -10.873   3.896  0.00  0.00    +0.010 A 
ATOM     25  C   LIG    1        5.980 -10.768   4.247  0.00  0.00    +0.070 A 
ATOM     26  C   LIG    1        6.357  -9.953   5.298  0.00  0.00    -0.010 A 
ATOM     27  C   LIG    1        5.398  -9.241   5.999  0.00  0.00    +0.120 A 
ATOM     28  F   LIG    1        5.765  -8.443   7.025  0.00  0.00    -0.130 F 
ENDBRANCH  21  22
ENDBRANCH   5  21
TORSDOF 4
