REMARK  Name = ZINCzw00000005uA.0
REMARK                            x       y       z     vdW  Elec       q    Type
REMARK                         _______ _______ _______ _____ _____    ______ ____
ROOT
ATOM      1  C   LIG    1        5.225   1.396   0.218  0.00  0.00    +0.740 C 
ATOM      2  N   LIG    1        4.703   2.579  -0.056  0.00  0.00    -0.540 N 
ATOM      3  C   LIG    1        3.354   2.689  -0.114  0.00  0.00    +0.440 A 
ATOM      4  N   LIG    1        2.612   3.763  -0.183  0.00  0.00    -0.420 NA
ATOM      5  C   LIG    1        1.297   3.411  -0.216  0.00  0.00    +0.060 A 
ATOM      6  C   LIG    1        0.115   4.154  -0.275  0.00  0.00    +0.110 A 
ATOM      7  C   LIG    1       -1.102   3.503  -0.293  0.00  0.00    +0.080 A 
ATOM      8  C   LIG    1       -1.158   2.114  -0.259  0.00  0.00    +0.120 A 
ATOM      9  O   LIG    1       -2.373   1.489  -0.272  0.00  0.00    -0.310 OA
ATOM     10  C   LIG    1       -3.182   1.662   0.894  0.00  0.00    +0.230 C 
ATOM     11  C   LIG    1       -3.974   2.957   0.814  0.00  0.00    +0.000 C 
ATOM     12  C   LIG    1       -3.078   4.185   0.822  0.00  0.00    +0.230 C 
ATOM     13  C   LIG    1        0.003   1.366  -0.196  0.00  0.00    +0.040 A 
ATOM     14  O   LIG    1       -2.261   4.224  -0.349  0.00  0.00    -0.310 OA
ATOM     15  C   LIG    1        1.236   2.005  -0.176  0.00  0.00    +0.110 A 
ATOM     16  N   LIG    1        2.540   1.572  -0.125  0.00  0.00    -0.510 N 
ATOM     17  C   LIG    1        3.089   0.212  -0.093  0.00  0.00    +0.600 C 
ATOM     18  H   LIG    1        5.271   3.349  -0.211  0.00  0.00    +0.470 HD
ATOM     19  N   LIG    1        4.434   0.314   0.501  0.00  0.00    -0.700 NA
ATOM     20  H   LIG    1        4.759  -0.384   1.091  0.00  0.00    +0.460 HD
ENDROOT
BRANCH  17  21
ATOM     21  C   LIG    1        3.183  -0.339  -1.492  0.00  0.00    -0.190 A 
ATOM     22  C   LIG    1        4.287  -0.091  -2.250  0.00  0.00    +0.110 A 
ATOM     23  C   LIG    1        4.339  -0.630  -3.553  0.00  0.00    -0.110 A 
ATOM     24  C   LIG    1        5.448  -0.417  -4.385  0.00  0.00    +0.030 A 
ATOM     25  C   LIG    1        5.460  -0.948  -5.640  0.00  0.00    +0.040 A 
ATOM     26  C   LIG    1        4.385  -1.699  -6.108  0.00  0.00    +0.060 A 
ATOM     27  C   LIG    1        3.293  -1.925  -5.326  0.00  0.00    +0.050 A 
ATOM     28  C   LIG    1        3.244  -1.394  -4.027  0.00  0.00    +0.160 A 
ATOM     29  N   LIG    1        2.183  -1.600  -3.238  0.00  0.00    -0.480 NA
ATOM     30  C   LIG    1        2.132  -1.104  -2.019  0.00  0.00    +0.360 A 
BRANCH  30  31
ATOM     31  N   LIG    1        1.011  -1.343  -1.237  0.00  0.00    -0.490 N 
ATOM     32  C   LIG    1        1.225  -2.495  -0.348  0.00  0.00    +0.170 C 
ATOM     33  C   LIG    1       -0.010  -2.686   0.536  0.00  0.00    +0.230 C 
ATOM     34  O   LIG    1       -1.164  -2.849  -0.294  0.00  0.00    -0.370 OA
ATOM     35  C   LIG    1       -1.402  -1.746  -1.172  0.00  0.00    +0.240 C 
ATOM     36  C   LIG    1       -0.181  -1.545  -2.073  0.00  0.00    +0.190 C 
ENDBRANCH  30  31
ENDBRANCH  17  21
BRANCH   1  37
ATOM     37  N   LIG    1        6.586   1.249   0.220  0.00  0.00    -0.780 NA
ATOM     38  H   LIG    1        6.980   0.386   0.419  0.00  0.00    +0.450 HD
ATOM     39  H   LIG    1        7.156   2.009   0.021  0.00  0.00    +0.450 HD
ENDBRANCH   1  37
TORSDOF 3
