REMARK  Name = ZINCrD000000BXNe.0
REMARK                            x       y       z     vdW  Elec       q    Type
REMARK                         _______ _______ _______ _____ _____    ______ ____
ROOT
ATOM      1  C   LIG    1       -3.543   2.498   0.408  0.00  0.00    +0.020 C 
ATOM      2  C   LIG    1       -2.807   3.829   0.129  0.00  0.00    +0.090 C 
ATOM      3  C   LIG    1       -1.341   3.454   0.154  0.00  0.00    +0.510 C 
ATOM      4  N   LIG    1       -1.203   2.122   0.045  0.00  0.00    -0.550 N 
ATOM      5  O   LIG    1       -0.425   4.242   0.257  0.00  0.00    -0.500 OA
ATOM      6  C   LIG    1       -2.506   1.458  -0.079  0.00  0.00    +0.320 C 
ENDROOT
BRANCH   4   7
ATOM      7  C   LIG    1        0.028   1.453   0.043  0.00  0.00    +0.170 A 
ATOM      8  C   LIG    1        0.064   0.065   0.042  0.00  0.00    -0.010 A 
ATOM      9  C   LIG    1        1.278  -0.595   0.036  0.00  0.00    +0.060 A 
ATOM     10  C   LIG    1        2.463   0.125   0.030  0.00  0.00    +0.030 A 
ATOM     11  O   LIG    1        3.650  -0.543   0.028  0.00  0.00    -0.310 OA
ATOM     12  C   LIG    1        4.809   0.205  -0.353  0.00  0.00    +0.220 C 
ATOM     13  C   LIG    1        4.780   1.548   0.390  0.00  0.00    +0.220 C 
ATOM     14  O   LIG    1        3.583   2.239   0.019  0.00  0.00    -0.300 OA
ATOM     15  C   LIG    1        2.430   1.515   0.029  0.00  0.00    +0.080 A 
ATOM     16  C   LIG    1        1.212   2.177   0.037  0.00  0.00    +0.020 A 
ENDBRANCH   4   7
BRANCH   1  18
ATOM     17  O   LIG    1       -3.350   1.403   2.490  0.00  0.00    -0.500 OA
ATOM     18  C   LIG    1       -3.827   2.336   1.879  0.00  0.00    +0.520 C 
ATOM     19  N   LIG    1       -4.612   3.228   2.516  0.00  0.00    -0.670 N 
ATOM     20  H   LIG    1       -5.060   3.925   2.013  0.00  0.00    +0.420 HD
BRANCH  19  21
ATOM     21  C   LIG    1       -4.779   3.147   3.904  0.00  0.00    +0.130 A 
ATOM     22  C   LIG    1       -3.733   2.716   4.707  0.00  0.00    +0.060 A 
ATOM     23  C   LIG    1       -3.900   2.641   6.077  0.00  0.00    +0.070 A 
ATOM     24  C   LIG    1       -5.111   2.986   6.648  0.00  0.00    -0.080 A 
ATOM     25  C   LIG    1       -6.159   3.412   5.851  0.00  0.00    +0.040 A 
ATOM     26 BR   LIG    1       -5.336   2.877   8.522  0.00  0.00    -0.030 Br
ATOM     27  C   LIG    1       -5.997   3.494   4.480  0.00  0.00    +0.080 A 
ATOM     28  F   LIG    1       -7.020   3.910   3.701  0.00  0.00    -0.130 F 
ENDBRANCH  19  21
ENDBRANCH   1  18
TORSDOF 3
