REMARK  Name = ZINCfA000000brgw.0
REMARK                            x       y       z     vdW  Elec       q    Type
REMARK                         _______ _______ _______ _____ _____    ______ ____
ROOT
ATOM      1  C   LIG    1        2.399   0.038  -0.021  0.00  0.00    +0.040 A 
ATOM      2  C   LIG    1        2.420   1.399  -0.013  0.00  0.00    +0.030 A 
ATOM      3  C   LIG    1        1.209   2.113   0.002  0.00  0.00    -0.030 A 
ATOM      4  C   LIG    1        1.190   3.518   0.009  0.00  0.00    +0.060 A 
ATOM      5  C   LIG    1       -0.002   4.175   0.023  0.00  0.00    +0.010 A 
ATOM      6  C   LIG    1       -1.207   3.476   0.031  0.00  0.00    -0.160 A 
ATOM      7  C   LIG    1       -1.227   2.115   0.019  0.00  0.00    +0.080 A 
ATOM      8  C   LIG    1       -0.017   1.401   0.010  0.00  0.00    -0.060 A 
ATOM      9  C   LIG    1        0.002  -0.004   0.002  0.00  0.00    +0.020 A 
ATOM     10  C   LIG    1        1.194  -0.661  -0.013  0.00  0.00    +0.030 A 
ENDROOT
BRANCH   6  11
ATOM     11  C   LIG    1       -2.507   4.237   0.046  0.00  0.00    +0.330 C 
BRANCH  11  12
ATOM     12  N   LIG    1       -2.942   4.491  -1.334  0.00  0.00    -0.480 N 
ATOM     13  H   LIG    1       -3.072   3.613  -1.813  0.00  0.00    +0.420 HD
ATOM     14  H   LIG    1       -2.239   5.034  -1.813  0.00  0.00    +0.430 HD
BRANCH  12  15
ATOM     15  C   LIG    1       -4.209   5.234  -1.320  0.00  0.00    +0.100 C 
ATOM     16  C   LIG    1       -5.439   4.544  -1.912  0.00  0.00    +0.090 C 
ATOM     17  C   LIG    1       -4.772   5.698  -2.665  0.00  0.00    +0.090 C 
ENDBRANCH  12  15
ENDBRANCH  11  12
ENDBRANCH   6  11
TORSDOF 3
