REMARK  Name = ZINCrH000004jnUE.0
REMARK                            x       y       z     vdW  Elec       q    Type
REMARK                         _______ _______ _______ _____ _____    ______ ____
ROOT
ATOM      1  N   LIG    1        4.635   2.487  -0.027  0.00  0.00    -0.640 N 
ATOM      2  H   LIG    1        5.124   3.325  -0.027  0.00  0.00    +0.420 HD
ATOM      3  C   LIG    1        5.303   1.317  -0.039  0.00  0.00    +0.530 C 
ATOM      4  O   LIG    1        4.692   0.270  -0.040  0.00  0.00    -0.450 OA
ENDROOT
BRANCH   1  13
ATOM      5  N   LIG    1        2.472   3.615  -0.002  0.00  0.00    -0.500 N 
ATOM      6  C   LIG    1        1.152   3.198   0.008  0.00  0.00    +0.050 A 
ATOM      7  C   LIG    1       -0.066   3.860   0.023  0.00  0.00    +0.010 A 
ATOM      8  C   LIG    1       -1.241   3.137   0.030  0.00  0.00    +0.030 A 
ATOM      9  C   LIG    1       -1.213   1.750   0.017  0.00  0.00    +0.010 A 
ATOM     10  C   LIG    1       -0.013   1.076   0.008  0.00  0.00    +0.060 A 
ATOM     11  C   LIG    1        1.186   1.793   0.000  0.00  0.00    +0.060 A 
ATOM     12  N   LIG    1        2.494   1.426  -0.014  0.00  0.00    -0.470 NA
ATOM     13  C   LIG    1        3.250   2.494  -0.015  0.00  0.00    +0.500 A 
BRANCH   5  15
ATOM     14  C   LIG    1        3.096   5.491  -1.441  0.00  0.00    +0.040 C 
ATOM     15  C   LIG    1        2.945   5.001   0.001  0.00  0.00    +0.290 C 
ENDBRANCH   5  15
ENDBRANCH   1  13
BRANCH   3  16
ATOM     16  C   LIG    1        6.810   1.310  -0.052  0.00  0.00    +0.010 C 
ATOM     17  C   LIG    1        7.354   1.865  -1.389  0.00  0.00    +0.090 C 
ATOM     18  C   LIG    1        8.573   1.016  -1.675  0.00  0.00    +0.530 C 
ATOM     19  N   LIG    1        8.552  -0.094  -0.916  0.00  0.00    -0.580 N 
ATOM     20  O   LIG    1        9.444   1.295  -2.472  0.00  0.00    -0.510 OA
ATOM     21  C   LIG    1        7.356  -0.134  -0.065  0.00  0.00    +0.310 C 
BRANCH  19  22
ATOM     22  C   LIG    1        9.542  -1.083  -0.935  0.00  0.00    +0.150 A 
ATOM     23  C   LIG    1        9.434  -2.158  -1.806  0.00  0.00    +0.040 A 
ATOM     24  C   LIG    1       10.416  -3.130  -1.827  0.00  0.00    +0.030 A 
ATOM     25  C   LIG    1       11.499  -3.039  -0.973  0.00  0.00    +0.040 A 
ATOM     26  C   LIG    1       11.607  -1.973  -0.099  0.00  0.00    +0.030 A 
ATOM     27  C   LIG    1       10.632  -0.994  -0.077  0.00  0.00    -0.030 A 
ATOM     28 CL   LIG    1       10.768   0.345   1.019  0.00  0.00    -0.060 Cl
ENDBRANCH  19  22
ENDBRANCH   3  16
TORSDOF 4
