REMARK  Name = ZINCrD0000071s8A.0
REMARK                            x       y       z     vdW  Elec       q    Type
REMARK                         _______ _______ _______ _____ _____    ______ ____
ROOT
ATOM      1  N   LIG    1       -0.712   1.589   1.235  0.00  0.00    -0.470 N 
ATOM      2  C   LIG    1       -0.048   1.083   0.025  0.00  0.00    +0.230 C 
ATOM      3  C   LIG    1       -0.790   1.592  -1.212  0.00  0.00    +0.210 C 
ATOM      4  N   LIG    1       -0.806   3.062  -1.200  0.00  0.00    -0.490 N 
ATOM      5  C   LIG    1       -1.470   3.568   0.009  0.00  0.00    +0.220 C 
ATOM      6  C   LIG    1       -0.728   3.059   1.246  0.00  0.00    +0.220 C 
ENDROOT
BRANCH   1  11
ATOM      7  N   LIG    1       -0.629   1.443   5.868  0.00  0.00    -0.480 N 
ATOM      8  C   LIG    1       -1.623   2.242   5.387  0.00  0.00    +0.460 A 
ATOM      9  N   LIG    1       -1.600   2.246   4.085  0.00  0.00    -0.470 NA
ATOM     10  C   LIG    1       -0.590   1.457   3.646  0.00  0.00    -0.020 A 
ATOM     11  C   LIG    1       -0.108   1.089   2.381  0.00  0.00    +0.390 A 
ATOM     12  N   LIG    1        0.925   0.269   2.280  0.00  0.00    -0.530 NA
ATOM     13  C   LIG    1        1.534  -0.234   3.342  0.00  0.00    +0.290 A 
ATOM     14  C   LIG    1        1.125   0.069   4.610  0.00  0.00    -0.060 A 
ATOM     15  C   LIG    1        0.042   0.928   4.785  0.00  0.00    +0.100 A 
BRANCH   7  17
ATOM     16  C   LIG    1        0.005   2.499   7.981  0.00  0.00    +0.050 C 
ATOM     17  C   LIG    1       -0.332   1.182   7.278  0.00  0.00    +0.230 C 
ATOM     18  C   LIG    1       -1.551   0.544   7.947  0.00  0.00    +0.040 C 
ENDBRANCH   7  17
ENDBRANCH   1  11
BRANCH   4  19
ATOM     19  C   LIG    1       -1.411   3.563  -2.349  0.00  0.00    +0.150 A 
ATOM     20  C   LIG    1       -2.618   4.242  -2.261  0.00  0.00    +0.010 A 
ATOM     21  C   LIG    1       -3.217   4.740  -3.401  0.00  0.00    +0.050 A 
ATOM     22  C   LIG    1       -2.620   4.566  -4.641  0.00  0.00    +0.080 A 
ATOM     23  C   LIG    1       -1.419   3.894  -4.747  0.00  0.00    +0.070 A 
ATOM     24  F   LIG    1       -3.216   5.058  -5.750  0.00  0.00    -0.130 F 
ATOM     25  C   LIG    1       -0.800   3.390  -3.601  0.00  0.00    -0.020 A 
BRANCH  25  26
ATOM     26  C   LIG    1        0.449   2.696  -3.703  0.00  0.00    +0.260 C 
ATOM     27  N   LIG    1        1.439   2.146  -3.784  0.00  0.00    -0.400 NA
ENDBRANCH  25  26
ENDBRANCH   4  19
TORSDOF 4
