REMARK  Name = ZINCqH0000033MCx.0
REMARK                            x       y       z     vdW  Elec       q    Type
REMARK                         _______ _______ _______ _____ _____    ______ ____
ROOT
ATOM      1  C   LIG    1        5.976  -0.913  -0.171  0.00  0.00    +0.250 C 
ENDROOT
BRANCH   1   4
ATOM      2  N   LIG    1        3.538  -1.065   0.217  0.00  0.00    -0.650 N 
ATOM      3  H   LIG    1        3.646  -2.023   0.329  0.00  0.00    +0.420 HD
ATOM      4  C   LIG    1        4.615  -0.287  -0.005  0.00  0.00    +0.520 C 
ATOM      5  O   LIG    1        4.490   0.918  -0.071  0.00  0.00    -0.520 OA
BRANCH   2  11
ATOM      6  C   LIG    1        1.139  -1.238  -0.065  0.00  0.00    +0.110 A 
ATOM      7  C   LIG    1       -0.120  -0.665   0.007  0.00  0.00    -0.060 A 
ATOM      8  C   LIG    1       -0.261   0.644   0.427  0.00  0.00    +0.040 A 
ATOM      9  C   LIG    1        0.852   1.386   0.777  0.00  0.00    -0.010 A 
ATOM     10  C   LIG    1        2.112   0.822   0.708  0.00  0.00    +0.070 A 
ATOM     11  C   LIG    1        2.261  -0.491   0.287  0.00  0.00    +0.110 A 
BRANCH   6  12
ATOM     12  O   LIG    1        1.280  -2.526  -0.477  0.00  0.00    -0.320 OA
BRANCH  12  14
ATOM     13  C   LIG    1        0.441  -4.654  -1.258  0.00  0.00    +0.070 C 
ATOM     14  C   LIG    1        0.085  -3.231  -0.821  0.00  0.00    +0.180 C 
ENDBRANCH  12  14
ENDBRANCH   6  12
ENDBRANCH   2  11
ENDBRANCH   1   4
BRANCH   1  15
ATOM     15  N   LIG    1        7.011   0.096   0.066  0.00  0.00    -0.710 N 
ATOM     16  H   LIG    1        6.811   1.036  -0.068  0.00  0.00    +0.410 HD
ATOM     17  C   LIG    1        8.240  -0.281   0.470  0.00  0.00    +0.570 C 
ATOM     18  O   LIG    1        8.490  -1.458   0.638  0.00  0.00    -0.530 OA
BRANCH  17  19
ATOM     19  C   LIG    1        9.284   0.738   0.709  0.00  0.00    -0.140 A 
ATOM     20  C   LIG    1        9.002   2.091   0.512  0.00  0.00    +0.050 A 
ATOM     21  C   LIG    1        9.980   3.037   0.741  0.00  0.00    +0.000 A 
ATOM     22  C   LIG    1       11.241   2.647   1.155  0.00  0.00    -0.060 A 
ATOM     23  C   LIG    1       11.528   1.307   1.348  0.00  0.00    +0.000 A 
ATOM     24  C   LIG    1       12.305   3.685   1.399  0.00  0.00    +0.100 C 
ATOM     25  C   LIG    1       10.558   0.351   1.127  0.00  0.00    +0.090 A 
ENDBRANCH  17  19
ENDBRANCH   1  15
BRANCH   1  26
ATOM     26  C   LIG    1        6.115  -1.462  -1.592  0.00  0.00    -0.020 C 
ATOM     27  C   LIG    1        7.445  -2.207  -1.724  0.00  0.00    +0.040 C 
ATOM     28  C   LIG    1        6.078  -0.304  -2.592  0.00  0.00    +0.030 C 
ENDBRANCH   1  26
TORSDOF 7
