REMARK  Name = ZINCvU00000007nf.0
REMARK                            x       y       z     vdW  Elec       q    Type
REMARK                         _______ _______ _______ _____ _____    ______ ____
ROOT
ATOM      1  C   LIG    1        0.350   0.163   0.532  0.00  0.00    -0.200 A 
ATOM      2  C   LIG    1        1.708  -0.077   0.671  0.00  0.00    +0.160 A 
ATOM      3  O   LIG    1        2.369   1.091   0.654  0.00  0.00    -0.170 OA
ATOM      4  C   LIG    1        1.524   2.135   0.509  0.00  0.00    +0.050 A 
ATOM      5  C   LIG    1        1.728   3.508   0.437  0.00  0.00    +0.070 A 
ATOM      6  C   LIG    1        0.655   4.359   0.284  0.00  0.00    -0.070 A 
ATOM      7  C   LIG    1       -0.641   3.858   0.200  0.00  0.00    +0.150 A 
ATOM      8  C   LIG    1       -0.863   2.492   0.274  0.00  0.00    +0.040 A 
ATOM      9  C   LIG    1        0.887   5.846   0.207  0.00  0.00    +0.110 C 
ATOM     10  C   LIG    1        0.218   1.629   0.423  0.00  0.00    -0.070 A 
ENDROOT
BRANCH   2  11
ATOM     11  C   LIG    1        2.330  -1.407   0.815  0.00  0.00    -0.050 A 
ATOM     12  C   LIG    1        1.535  -2.556   0.824  0.00  0.00    +0.030 A 
ATOM     13  C   LIG    1        2.123  -3.796   0.954  0.00  0.00    +0.020 A 
ATOM     14  C   LIG    1        3.497  -3.904   1.086  0.00  0.00    +0.040 A 
ATOM     15  C   LIG    1        4.290  -2.770   1.083  0.00  0.00    +0.010 A 
ATOM     16  C   LIG    1        3.716  -1.523   0.948  0.00  0.00    +0.060 A 
ENDBRANCH   2  11
BRANCH   1  17
ATOM     17  C   LIG    1       -0.728  -0.830   0.499  0.00  0.00    +0.550 C 
ATOM     18  O   LIG    1       -1.080  -1.310  -0.561  0.00  0.00    -0.480 OA
BRANCH  17  19
ATOM     19  O   LIG    1       -1.328  -1.210   1.646  0.00  0.00    -0.350 OA
BRANCH  19  21
ATOM     20  C   LIG    1       -2.945  -2.501   2.931  0.00  0.00    +0.070 C 
ATOM     21  C   LIG    1       -2.388  -2.197   1.538  0.00  0.00    +0.210 C 
ENDBRANCH  19  21
ENDBRANCH  17  19
ENDBRANCH   1  17
BRANCH   7  22
ATOM     22  N   LIG    1       -1.721   4.733   0.045  0.00  0.00    -1.050 N 
ATOM     23  H   LIG    1       -1.623   5.535  -0.492  0.00  0.00    +0.430 HD
BRANCH  22  24
ATOM     24  S   LIG    1       -3.168   4.402   0.780  0.00  0.00    +2.690 S 
ATOM     25  O   LIG    1       -3.524   3.083   0.389  0.00  0.00    -0.940 OA
ATOM     26  O   LIG    1       -4.000   5.531   0.555  0.00  0.00    -0.940 OA
BRANCH  24  27
ATOM     27  C   LIG    1       -2.870   4.342   2.516  0.00  0.00    -0.680 A 
ATOM     28  C   LIG    1       -2.530   3.145   3.118  0.00  0.00    +0.130 A 
ATOM     29  C   LIG    1       -2.291   3.099   4.479  0.00  0.00    -0.010 A 
ATOM     30  C   LIG    1       -2.402   4.248   5.239  0.00  0.00    +0.070 A 
ATOM     31  C   LIG    1       -2.747   5.444   4.638  0.00  0.00    +0.000 A 
ATOM     32  C   LIG    1       -2.981   5.491   3.276  0.00  0.00    +0.120 A 
ENDBRANCH  24  27
ENDBRANCH  22  24
ENDBRANCH   7  22
TORSDOF 7
