REMARK  Name = ZINCpk00000ebu2D.0
REMARK                            x       y       z     vdW  Elec       q    Type
REMARK                         _______ _______ _______ _____ _____    ______ ____
ROOT
ATOM      1  N   LIG    1       -5.455   6.199   3.119  0.00  0.00    -0.900 N 
ATOM      2  C   LIG    1       -6.769   5.705   3.129  0.00  0.00    +0.150 A 
ATOM      3  C   LIG    1       -7.186   4.376   3.126  0.00  0.00    +0.020 A 
ATOM      4  C   LIG    1       -8.538   4.054   3.138  0.00  0.00    +0.040 A 
ATOM      5  C   LIG    1       -9.516   5.004   3.151  0.00  0.00    +0.020 A 
ATOM      6  C   LIG    1       -9.144   6.360   3.154  0.00  0.00    -0.030 A 
ATOM      7  C   LIG    1      -10.073   7.413   3.167  0.00  0.00    +0.090 A 
ATOM      8  C   LIG    1       -9.632   8.704   3.169  0.00  0.00    +0.000 A 
ATOM      9  C   LIG    1       -8.265   9.007   3.158  0.00  0.00    +0.190 A 
ATOM     10  C   LIG    1       -7.358   8.012   3.145  0.00  0.00    -0.640 A 
ATOM     11  C   LIG    1       -7.770   6.676   3.143  0.00  0.00    -0.070 A 
ATOM     12  S   LIG    1       -5.594   7.868   3.136  0.00  0.00    +2.670 S 
ATOM     13  O   LIG    1       -5.132   8.350   1.882  0.00  0.00    -0.920 OA
ATOM     14  O   LIG    1       -5.117   8.327   4.393  0.00  0.00    -0.930 OA
ENDROOT
BRANCH   1  15
ATOM     15  C   LIG    1       -4.218   5.415   3.104  0.00  0.00    +0.370 C 
BRANCH  15  17
ATOM     16  O   LIG    1       -4.590   5.406   0.774  0.00  0.00    -0.500 OA
ATOM     17  C   LIG    1       -3.873   5.048   1.684  0.00  0.00    +0.490 C 
ATOM     18  N   LIG    1       -2.767   4.322   1.425  0.00  0.00    -0.720 N 
ATOM     19  H   LIG    1       -2.193   4.036   2.153  0.00  0.00    +0.400 HD
BRANCH  18  20
ATOM     20  C   LIG    1       -2.431   3.966   0.045  0.00  0.00    +0.370 C 
BRANCH  20  21
ATOM     21  C   LIG    1       -1.158   3.160   0.029  0.00  0.00    +0.040 A 
ATOM     22  C   LIG    1       -1.213   1.775   0.017  0.00  0.00    +0.050 A 
ATOM     23  C   LIG    1       -0.013   1.076   0.008  0.00  0.00    +0.040 A 
ATOM     24  C   LIG    1        1.165   1.806   0.001  0.00  0.00    +0.230 A 
ATOM     25  N   LIG    1        1.120   3.125   0.008  0.00  0.00    -0.240 NA
ATOM     26  N   LIG    1        0.012   3.771   0.021  0.00  0.00    -0.220 NA
ENDBRANCH  20  21
ENDBRANCH  18  20
ENDBRANCH  15  17
ENDBRANCH   1  15
TORSDOF 4
