REMARK  Name = ZINCvU0000000JMp.0
REMARK                            x       y       z     vdW  Elec       q    Type
REMARK                         _______ _______ _______ _____ _____    ______ ____
ROOT
ATOM      1  C   LIG    1       -3.137   1.630   0.296  0.00  0.00    +0.410 A 
ATOM      2  C   LIG    1       -2.147   1.781   1.297  0.00  0.00    -0.180 A 
ATOM      3  C   LIG    1       -2.569   2.181   2.569  0.00  0.00    +0.110 A 
ATOM      4  S   LIG    1       -1.182   2.294   3.643  0.00  0.00    +0.190 S 
ATOM      5  C   LIG    1       -0.076   1.799   2.375  0.00  0.00    -0.180 A 
ATOM      6  C   LIG    1        1.413   1.653   2.557  0.00  0.00    +0.150 C 
ATOM      7  N   LIG    1       -3.870   2.411   2.780  0.00  0.00    -0.500 NA
ATOM      8  C   LIG    1       -4.749   2.261   1.816  0.00  0.00    +0.380 A 
ATOM      9  C   LIG    1       -0.713   1.570   1.243  0.00  0.00    -0.060 A 
ATOM     10  C   LIG    1       -0.004   1.131  -0.012  0.00  0.00    +0.130 C 
ATOM     11  N   LIG    1       -4.400   1.880   0.600  0.00  0.00    -0.550 NA
ENDROOT
BRANCH   1  12
ATOM     12  O   LIG    1       -2.796   1.240  -0.956  0.00  0.00    -0.230 OA
BRANCH  12  20
ATOM     13  C   LIG    1       -7.338  -1.069  -4.997  0.00  0.00    +0.130 C 
ATOM     14  C   LIG    1       -6.901   0.328  -4.635  0.00  0.00    +0.030 A 
ATOM     15  C   LIG    1       -7.497   1.412  -5.195  0.00  0.00    -0.080 A 
ATOM     16  C   LIG    1       -7.072   2.709  -4.839  0.00  0.00    +0.510 A 
ATOM     17  O   LIG    1       -6.083   2.908  -3.953  0.00  0.00    -0.270 OA
ATOM     18  C   LIG    1       -5.449   1.874  -3.360  0.00  0.00    +0.160 A 
ATOM     19  C   LIG    1       -4.431   2.097  -2.446  0.00  0.00    +0.030 A 
ATOM     20  C   LIG    1       -3.793   1.021  -1.849  0.00  0.00    +0.140 A 
ATOM     21  C   LIG    1       -4.165  -0.285  -2.163  0.00  0.00    +0.010 A 
ATOM     22  C   LIG    1       -5.170  -0.522  -3.056  0.00  0.00    +0.110 A 
ATOM     23  O   LIG    1       -7.614   3.672  -5.349  0.00  0.00    -0.460 OA
ATOM     24  C   LIG    1       -5.824   0.552  -3.668  0.00  0.00    -0.150 A 
ENDBRANCH  12  20
ENDBRANCH   1  12
BRANCH   8  25
ATOM     25  C   LIG    1       -6.202   2.533   2.106  0.00  0.00    +0.290 C 
BRANCH  25  26
ATOM     26  N   LIG    1       -6.500   3.946   1.835  0.00  0.00    -0.530 NA
ATOM     27  C   LIG    1       -5.782   4.823   2.768  0.00  0.00    +0.170 C 
ATOM     28  C   LIG    1       -6.000   6.284   2.367  0.00  0.00    +0.020 C 
ATOM     29  C   LIG    1       -7.498   6.597   2.392  0.00  0.00    +0.010 C 
ATOM     30  C   LIG    1       -8.228   5.638   1.448  0.00  0.00    +0.020 C 
ATOM     31  C   LIG    1       -7.947   4.196   1.876  0.00  0.00    +0.180 C 
ENDBRANCH  25  26
ENDBRANCH   8  25
TORSDOF 4
