REMARK  Name = ZINCvU00000007bK.0
REMARK                            x       y       z     vdW  Elec       q    Type
REMARK                         _______ _______ _______ _____ _____    ______ ____
ROOT
ATOM      1  C   LIG    1       -5.861   0.477   0.553  0.00  0.00    -0.150 A 
ATOM      2  C   LIG    1       -5.375   1.736   0.199  0.00  0.00    +0.180 A 
ATOM      3  C   LIG    1       -4.253   1.841  -0.597  0.00  0.00    -0.690 A 
ATOM      4  C   LIG    1       -3.612   0.701  -1.050  0.00  0.00    +0.170 A 
ATOM      5  C   LIG    1       -4.084  -0.551  -0.699  0.00  0.00    +0.010 A 
ATOM      6  C   LIG    1       -5.206  -0.671   0.098  0.00  0.00    +0.070 A 
ATOM      7 CL   LIG    1       -5.803  -2.243   0.531  0.00  0.00    -0.010 Cl
ENDROOT
BRANCH   1   9
ATOM      8  O   LIG    1       -7.483  -0.741   1.712  0.00  0.00    -0.500 OA
ATOM      9  C   LIG    1       -7.062   0.357   1.405  0.00  0.00    +0.560 C 
ATOM     10  N   LIG    1       -7.690   1.466   1.843  0.00  0.00    -0.730 N 
ATOM     11  H   LIG    1       -7.354   2.343   1.599  0.00  0.00    +0.400 HD
BRANCH  10  12
ATOM     12  C   LIG    1       -8.881   1.348   2.689  0.00  0.00    +0.290 C 
BRANCH  12  13
ATOM     13  C   LIG    1       -9.395   2.744   3.043  0.00  0.00    +0.110 C 
BRANCH  13  14
ATOM     14  C   LIG    1      -10.620   2.623   3.913  0.00  0.00    -0.180 A 
ATOM     15  C   LIG    1      -10.614   2.567   5.246  0.00  0.00    +0.010 A 
ATOM     16  C   LIG    1      -11.864   2.456   5.830  0.00  0.00    +0.000 A 
ATOM     17  C   LIG    1      -12.885   2.422   4.972  0.00  0.00    -0.040 A 
ATOM     18  S   LIG    1      -12.276   2.540   3.326  0.00  0.00    +0.100 S 
ENDBRANCH  13  14
ENDBRANCH  12  13
ENDBRANCH  10  12
ENDBRANCH   1   9
BRANCH   3  19
ATOM     19  S   LIG    1       -3.638   3.430  -1.044  0.00  0.00    +2.690 S 
ATOM     20  O   LIG    1       -2.952   3.263  -2.278  0.00  0.00    -0.940 OA
ATOM     21  O   LIG    1       -4.715   4.340  -0.872  0.00  0.00    -0.940 OA
BRANCH  19  22
ATOM     22  N   LIG    1       -2.491   3.845   0.076  0.00  0.00    -1.060 N 
ATOM     23  H   LIG    1       -2.631   4.614   0.651  0.00  0.00    +0.430 HD
BRANCH  22  24
ATOM     24  C   LIG    1       -1.322   3.089   0.192  0.00  0.00    +0.120 A 
ATOM     25  C   LIG    1       -0.321   3.205  -0.763  0.00  0.00    +0.080 A 
ATOM     26  C   LIG    1        0.831   2.451  -0.648  0.00  0.00    +0.040 A 
ATOM     27  C   LIG    1        0.992   1.590   0.422  0.00  0.00    +0.090 A 
ATOM     28  C   LIG    1       -0.001   1.477   1.377  0.00  0.00    -0.180 A 
ATOM     29  C   LIG    1       -1.157   2.223   1.266  0.00  0.00    +0.080 A 
BRANCH  28  30
ATOM     30  C   LIG    1        0.179   0.537   2.542  0.00  0.00    +0.510 C 
ATOM     31  F   LIG    1       -0.842  -0.420   2.531  0.00  0.00    -0.170 F 
ATOM     32  F   LIG    1        0.127   1.262   3.738  0.00  0.00    -0.170 F 
ATOM     33  F   LIG    1        1.419  -0.102   2.438  0.00  0.00    -0.170 F 
ENDBRANCH  28  30
ENDBRANCH  22  24
ENDBRANCH  19  22
ENDBRANCH   3  19
TORSDOF 8
