REMARK  Name = ZINCpe000015ht4S.0
REMARK                            x       y       z     vdW  Elec       q    Type
REMARK                         _______ _______ _______ _____ _____    ______ ____
ROOT
ATOM      1  C   LIG    1        3.641  -2.138  -0.046  0.00  0.00    +0.270 C 
ATOM      2  C   LIG    1        4.018  -1.779  -1.485  0.00  0.00    +0.080 C 
ENDROOT
BRANCH   1   3
ATOM      3  C   LIG    1        4.711  -3.057   0.547  0.00  0.00    +0.150 C 
ATOM      4  F   LIG    1        4.366  -3.385   1.863  0.00  0.00    -0.140 F 
BRANCH   3   5
ATOM      5  C   LIG    1        4.806  -4.315  -0.276  0.00  0.00    +0.450 C 
ATOM      6  O   LIG    1        4.593  -5.389   0.235  0.00  0.00    -0.450 OA
BRANCH   5   7
ATOM      7  O   LIG    1        5.126  -4.243  -1.578  0.00  0.00    -0.340 OA
BRANCH   7   9
ATOM      8  C   LIG    1        5.574  -5.214  -3.765  0.00  0.00    +0.080 C 
ATOM      9  C   LIG    1        5.199  -5.495  -2.309  0.00  0.00    +0.220 C 
ENDBRANCH   7   9
ENDBRANCH   5   7
ENDBRANCH   3   5
BRANCH   3  10
ATOM     10  C   LIG    1        6.042  -2.349   0.538  0.00  0.00    +0.460 C 
ATOM     11  O   LIG    1        6.126  -1.225   0.102  0.00  0.00    -0.450 OA
BRANCH  10  12
ATOM     12  O   LIG    1        7.134  -2.967   1.015  0.00  0.00    -0.340 OA
BRANCH  12  13
ATOM     13  C   LIG    1        8.381  -2.225   0.975  0.00  0.00    +0.220 C 
ATOM     14  C   LIG    1        9.505  -3.086   1.556  0.00  0.00    +0.070 C 
ENDBRANCH  12  13
ENDBRANCH  10  12
ENDBRANCH   3  10
ENDBRANCH   1   3
BRANCH   1  15
ATOM     15  N   LIG    1        2.348  -2.826  -0.037  0.00  0.00    -0.700 N 
ATOM     16  H   LIG    1        2.314  -3.795  -0.043  0.00  0.00    +0.410 HD
BRANCH  15  17
ATOM     17  C   LIG    1        1.173  -2.091  -0.021  0.00  0.00    +0.470 A 
ATOM     18  C   LIG    1        1.210  -0.694  -0.019  0.00  0.00    -0.060 A 
ATOM     19  C   LIG    1        0.002  -0.004   0.002  0.00  0.00    +0.170 A 
ATOM     20  N   LIG    1       -1.137  -0.696   0.009  0.00  0.00    -0.520 NA
ATOM     21  C   LIG    1       -1.129  -2.013   0.002  0.00  0.00    +0.410 A 
ATOM     22 CL   LIG    1       -2.642  -2.865   0.011  0.00  0.00    +0.040 Cl
ATOM     23  N   LIG    1       -0.005  -2.705  -0.013  0.00  0.00    -0.550 NA
BRANCH  19  24
ATOM     24  C   LIG    1       -0.018   1.480   0.010  0.00  0.00    +0.580 C 
ATOM     25  O   LIG    1        1.026   2.102   0.004  0.00  0.00    -0.520 OA
ATOM     26  N   LIG    1       -1.194   2.138   0.019  0.00  0.00    -0.830 N 
ATOM     27  H   LIG    1       -1.207   3.108   0.025  0.00  0.00    +0.410 HD
ATOM     28  H   LIG    1       -2.028   1.642   0.021  0.00  0.00    +0.420 HD
ENDBRANCH  19  24
ENDBRANCH  15  17
ENDBRANCH   1  15
TORSDOF 10
