REMARK  Name = ZINCvU0000000J5U.0
REMARK                            x       y       z     vdW  Elec       q    Type
REMARK                         _______ _______ _______ _____ _____    ______ ____
ROOT
ATOM      1  C   LIG    1        6.591  10.114  -1.808  0.00  0.00    +0.250 A 
ATOM      2  C   LIG    1        5.397  10.786  -1.559  0.00  0.00    -0.070 A 
ATOM      3  C   LIG    1        4.356  10.136  -0.936  0.00  0.00    +0.130 A 
ATOM      4  C   LIG    1        4.499   8.799  -0.553  0.00  0.00    -0.200 A 
ATOM      5  C   LIG    1        5.700   8.128  -0.799  0.00  0.00    +0.080 A 
ATOM      6  C   LIG    1        6.736   8.783  -1.427  0.00  0.00    -0.060 A 
ENDROOT
BRANCH   4   7
ATOM      7  C   LIG    1        3.385   8.099   0.115  0.00  0.00    +0.570 C 
ATOM      8  N   LIG    1        3.524   6.810   0.484  0.00  0.00    -0.670 N 
ATOM      9  H   LIG    1        4.379   6.364   0.376  0.00  0.00    +0.410 HD
ATOM     10  O   LIG    1        2.342   8.685   0.333  0.00  0.00    -0.520 OA
BRANCH   8  11
ATOM     11  C   LIG    1        2.435   6.116   1.024  0.00  0.00    +0.160 A 
ATOM     12  C   LIG    1        2.266   4.766   0.745  0.00  0.00    +0.010 A 
ATOM     13  C   LIG    1        1.192   4.076   1.276  0.00  0.00    +0.060 A 
ATOM     14  C   LIG    1        0.283   4.730   2.088  0.00  0.00    +0.060 A 
ATOM     15  O   LIG    1       -0.778   4.063   2.619  0.00  0.00    -0.300 OA
ATOM     16  C   LIG    1       -1.218   4.486   3.915  0.00  0.00    +0.190 C 
ATOM     17  C   LIG    1       -1.323   5.990   3.944  0.00  0.00    +0.490 C 
ATOM     18  N   LIG    1       -0.481   6.734   3.194  0.00  0.00    -0.660 N 
ATOM     19  H   LIG    1       -0.520   7.703   3.225  0.00  0.00    +0.420 HD
ATOM     20  O   LIG    1       -2.155   6.529   4.642  0.00  0.00    -0.500 OA
ATOM     21  C   LIG    1       -2.590   3.875   4.210  0.00  0.00    +0.100 C 
ATOM     22  C   LIG    1        0.449   6.086   2.370  0.00  0.00    +0.110 A 
ATOM     23  C   LIG    1        1.524   6.777   1.837  0.00  0.00    +0.030 A 
ENDBRANCH   8  11
ENDBRANCH   4   7
BRANCH   1  24
ATOM     24  N   LIG    1        7.641  10.774  -2.437  0.00  0.00    -0.690 N 
ATOM     25  H   LIG    1        7.592  11.731  -2.587  0.00  0.00    +0.410 HD
BRANCH  24  31
ATOM     26  C   LIG    1        8.694   9.232  -3.967  0.00  0.00    -0.070 A 
ATOM     27  C   LIG    1        9.809   8.527  -4.375  0.00  0.00    +0.020 A 
ATOM     28  C   LIG    1       10.997   8.643  -3.677  0.00  0.00    +0.020 A 
ATOM     29  C   LIG    1       11.073   9.464  -2.567  0.00  0.00    +0.010 A 
ATOM     30  C   LIG    1        9.963  10.177  -2.156  0.00  0.00    +0.010 A 
ATOM     31  C   LIG    1        8.767  10.059  -2.853  0.00  0.00    +0.130 A 
BRANCH  26  33
ATOM     32  C   LIG    1        7.615   9.551  -6.177  0.00  0.00    +0.030 C 
ATOM     33  C   LIG    1        7.400   9.105  -4.729  0.00  0.00    +0.020 C 
ATOM     34  C   LIG    1        6.937   7.647  -4.708  0.00  0.00    +0.040 C 
ENDBRANCH  26  33
ENDBRANCH  24  31
ENDBRANCH   1  24
TORSDOF 5
