REMARK  Name = ZINCrD000000CUgi.0
REMARK                            x       y       z     vdW  Elec       q    Type
REMARK                         _______ _______ _______ _____ _____    ______ ____
ROOT
ATOM      1  C   LIG    1        3.377   0.848  -1.183  0.00  0.00    +0.540 C 
ATOM      2  N   LIG    1        2.225   0.812  -0.484  0.00  0.00    -0.610 N 
ATOM      3  C   LIG    1        1.456   1.970  -0.001  0.00  0.00    +0.260 C 
ATOM      4  C   LIG    1       -0.019   1.536   0.011  0.00  0.00    +0.040 C 
ATOM      5  C   LIG    1        0.002  -0.004   0.002  0.00  0.00    +0.010 C 
ATOM      6  C   LIG    1       -0.580  -0.491  -1.348  0.00  0.00    +0.020 C 
ATOM      7  C   LIG    1        0.204  -1.797  -1.622  0.00  0.00    +0.010 C 
ATOM      8  C   LIG    1        1.632  -1.492  -1.123  0.00  0.00    +0.020 C 
ATOM      9  C   LIG    1        1.498  -0.392  -0.060  0.00  0.00    +0.220 C 
ATOM     10  O   LIG    1        3.913  -0.185  -1.523  0.00  0.00    -0.510 OA
ENDROOT
BRANCH   1  16
ATOM     11  O   LIG    1        7.432   1.415   0.463  0.00  0.00    -0.530 OA
ATOM     12  C   LIG    1        6.473   1.815  -0.166  0.00  0.00    +0.570 C 
ATOM     13  N   LIG    1        5.401   2.320   0.475  0.00  0.00    -0.730 N 
ATOM     14  H   LIG    1        5.354   2.265   1.443  0.00  0.00    +0.410 HD
ATOM     15  C   LIG    1        4.309   2.949  -0.265  0.00  0.00    +0.300 C 
ATOM     16  C   LIG    1        3.998   2.173  -1.542  0.00  0.00    +0.040 C 
ATOM     17  C   LIG    1        5.265   1.935  -2.321  0.00  0.00    -0.030 A 
ATOM     18  C   LIG    1        5.242   1.895  -3.701  0.00  0.00    +0.020 A 
ATOM     19  C   LIG    1        6.410   1.656  -4.405  0.00  0.00    +0.040 A 
ATOM     20  C   LIG    1        7.601   1.449  -3.734  0.00  0.00    +0.010 A 
ATOM     21  C   LIG    1        7.637   1.492  -2.354  0.00  0.00    +0.080 A 
ATOM     22  C   LIG    1        6.469   1.753  -1.643  0.00  0.00    -0.120 A 
ENDBRANCH   1  16
BRANCH   4  23
ATOM     23  C   LIG    1       -0.700   2.041   1.256  0.00  0.00    -0.080 A 
ATOM     24  C   LIG    1       -0.196   1.713   2.501  0.00  0.00    +0.000 A 
ATOM     25  C   LIG    1       -0.819   2.179   3.643  0.00  0.00    +0.000 A 
ATOM     26  C   LIG    1       -1.951   2.966   3.541  0.00  0.00    +0.000 A 
ATOM     27  C   LIG    1       -2.458   3.289   2.297  0.00  0.00    +0.000 A 
ATOM     28  C   LIG    1       -1.833   2.826   1.154  0.00  0.00    +0.010 A 
ENDBRANCH   4  23
TORSDOF 2
