REMARK  Name = ZINCzw0000000bjJ.0
REMARK                            x       y       z     vdW  Elec       q    Type
REMARK                         _______ _______ _______ _____ _____    ______ ____
ROOT
ATOM      1  N   LIG    1        3.795  -3.546  -2.693  0.00  0.00    -0.520 NA
ATOM      2  C   LIG    1        2.672  -3.429  -3.634  0.00  0.00    +0.220 C 
ATOM      3  C   LIG    1        3.105  -3.947  -5.007  0.00  0.00    +0.280 C 
ATOM      4  N   LIG    1        3.526  -5.349  -4.891  0.00  0.00    -0.380 N 
ATOM      5  C   LIG    1        4.664  -5.446  -3.968  0.00  0.00    +0.280 C 
ATOM      6  H   LIG    1        2.759  -5.903  -4.539  0.00  0.00    +0.410 HD
ATOM      7  C   LIG    1        4.244  -4.941  -2.586  0.00  0.00    +0.220 C 
ENDROOT
BRANCH   1   8
ATOM      8  C   LIG    1        3.436  -3.005  -1.375  0.00  0.00    +0.270 C 
BRANCH   8  10
ATOM      9  O   LIG    1        3.351  -0.963  -2.554  0.00  0.00    -0.500 OA
ATOM     10  C   LIG    1        3.219  -1.518  -1.484  0.00  0.00    +0.520 C 
ATOM     11  N   LIG    1        2.879  -0.805  -0.392  0.00  0.00    -0.500 N 
ATOM     12  H   LIG    1        2.774  -1.249   0.464  0.00  0.00    +0.430 HD
BRANCH  11  13
ATOM     13  N   LIG    1        2.678   0.578  -0.493  0.00  0.00    -0.380 N 
ATOM     14  C   LIG    1        3.664   1.475  -0.614  0.00  0.00    +0.710 C 
ATOM     15  N   LIG    1        3.203   2.738  -0.692  0.00  0.00    -0.700 N 
ATOM     16  H   LIG    1        3.732   3.545  -0.783  0.00  0.00    +0.450 HD
ATOM     17  C   LIG    1        1.739   2.651  -0.613  0.00  0.00    +0.140 C 
ATOM     18  C   LIG    1        1.224   3.397   0.613  0.00  0.00    +0.050 C 
ATOM     19  C   LIG    1        1.535   4.890   0.473  0.00  0.00    +0.030 C 
ATOM     20  C   LIG    1        0.867   5.432  -0.793  0.00  0.00    +0.010 C 
ATOM     21  C   LIG    1        1.412   4.691  -2.015  0.00  0.00    +0.030 C 
ATOM     22  C   LIG    1        1.101   3.198  -1.886  0.00  0.00    +0.050 C 
ATOM     23  O   LIG    1        4.843   1.183  -0.648  0.00  0.00    -0.520 OA
ATOM     24  C   LIG    1        1.466   1.170  -0.481  0.00  0.00    +0.530 C 
ATOM     25  O   LIG    1        0.385   0.629  -0.384  0.00  0.00    -0.450 OA
ENDBRANCH  11  13
ENDBRANCH   8  10
ENDBRANCH   1   8
BRANCH   4  26
ATOM     26  C   LIG    1        3.925  -5.851  -6.213  0.00  0.00    +0.280 C 
BRANCH  26  27
ATOM     27  C   LIG    1        2.760  -5.745  -7.163  0.00  0.00    -0.130 A 
ATOM     28  C   LIG    1        1.503  -6.163  -6.766  0.00  0.00    +0.000 A 
ATOM     29  C   LIG    1        0.434  -6.061  -7.636  0.00  0.00    +0.030 A 
ATOM     30  C   LIG    1        0.623  -5.551  -8.906  0.00  0.00    +0.050 A 
ATOM     31  C   LIG    1        1.880  -5.137  -9.305  0.00  0.00    +0.040 A 
ATOM     32  C   LIG    1        2.949  -5.235  -8.434  0.00  0.00    +0.040 A 
ENDBRANCH  26  27
BRANCH  26  33
ATOM     33  C   LIG    1        4.348  -7.293  -6.096  0.00  0.00    -0.130 A 
ATOM     34  C   LIG    1        3.585  -8.180  -5.360  0.00  0.00    +0.000 A 
ATOM     35  C   LIG    1        3.970  -9.503  -5.257  0.00  0.00    +0.030 A 
ATOM     36  C   LIG    1        5.124  -9.938  -5.882  0.00  0.00    +0.050 A 
ATOM     37  C   LIG    1        5.890  -9.050  -6.614  0.00  0.00    +0.040 A 
ATOM     38  C   LIG    1        5.502  -7.728  -6.721  0.00  0.00    +0.040 A 
ENDBRANCH  26  33
ENDBRANCH   4  26
TORSDOF 6
