REMARK  Name = ZINCpk00000KfLq8.0
REMARK                            x       y       z     vdW  Elec       q    Type
REMARK                         _______ _______ _______ _____ _____    ______ ____
ROOT
ATOM      1  C   LIG    1        4.150   0.809  -1.223  0.00  0.00    +0.120 C 
ATOM      2  C   LIG    1        5.667   0.624  -1.152  0.00  0.00    +0.030 C 
ATOM      3  C   LIG    1        6.222   0.445  -2.568  0.00  0.00    +0.010 C 
ATOM      4  C   LIG    1        5.841   1.663  -3.414  0.00  0.00    +0.040 C 
ATOM      5  C   LIG    1        4.319   1.819  -3.419  0.00  0.00    +0.180 C 
ATOM      6  N   LIG    1        3.837   1.987  -2.042  0.00  0.00    -0.510 NA
ENDROOT
BRANCH   1   7
ATOM      7  C   LIG    1        3.594   1.008   0.189  0.00  0.00    +0.340 C 
BRANCH   7  11
ATOM      8  C   LIG    1        3.314  -3.546   2.274  0.00  0.00    +0.190 C 
ATOM      9  C   LIG    1        3.754  -2.154   1.901  0.00  0.00    +0.220 A 
ATOM     10  N   LIG    1        3.143  -1.364   1.056  0.00  0.00    -0.320 NA
ATOM     11  N   LIG    1        3.889  -0.175   1.001  0.00  0.00    -0.380 N 
ATOM     12  C   LIG    1        4.925  -0.338   1.840  0.00  0.00    +0.280 A 
ATOM     13  C   LIG    1        6.006   0.674   2.120  0.00  0.00    +0.190 C 
ATOM     14  N   LIG    1        4.832  -1.530   2.373  0.00  0.00    -0.540 NA
ENDBRANCH   7  11
ENDBRANCH   1   7
BRANCH   6  15
ATOM     15  C   LIG    1        2.398   2.278  -2.019  0.00  0.00    +0.200 C 
BRANCH  15  16
ATOM     16  C   LIG    1        2.158   3.672  -2.539  0.00  0.00    +0.520 C 
ATOM     17  N   LIG    1        0.903   4.158  -2.610  0.00  0.00    -0.730 N 
ATOM     18  H   LIG    1        0.154   3.611  -2.326  0.00  0.00    +0.400 HD
ATOM     19  O   LIG    1        3.094   4.356  -2.894  0.00  0.00    -0.510 OA
BRANCH  17  20
ATOM     20  C   LIG    1        0.670   5.513  -3.115  0.00  0.00    +0.360 C 
BRANCH  20  21
ATOM     21  C   LIG    1       -0.807   5.811  -3.092  0.00  0.00    +0.100 A 
ATOM     22  C   LIG    1       -1.353   6.474  -2.009  0.00  0.00    -0.010 A 
ATOM     23  C   LIG    1       -2.713   6.743  -1.997  0.00  0.00    +0.060 A 
ATOM     24  C   LIG    1       -3.476   6.333  -3.080  0.00  0.00    -0.020 A 
ATOM     25  C   LIG    1       -2.860   5.675  -4.127  0.00  0.00    +0.260 A 
ATOM     26  N   LIG    1       -1.563   5.441  -4.107  0.00  0.00    -0.470 NA
ENDBRANCH  20  21
ENDBRANCH  17  20
ENDBRANCH  15  16
ENDBRANCH   6  15
TORSDOF 6
