REMARK  Name = ZINCrD000006fiCH.0
REMARK                            x       y       z     vdW  Elec       q    Type
REMARK                         _______ _______ _______ _____ _____    ______ ____
ROOT
ATOM      1  C   LIG    1        7.584   0.306  -0.071  0.00  0.00    +0.510 C 
ATOM      2  N   LIG    1        6.445   1.026  -0.056  0.00  0.00    -0.610 N 
ATOM      3  C   LIG    1        5.824   1.418   1.217  0.00  0.00    +0.290 C 
ATOM      4  C   LIG    1        4.363   0.961   1.215  0.00  0.00    +0.040 C 
ATOM      5  C   LIG    1        3.660   1.518  -0.025  0.00  0.00    +0.090 C 
ATOM      6  C   LIG    1        4.338   0.975  -1.285  0.00  0.00    +0.040 C 
ATOM      7  C   LIG    1        5.799   1.433  -1.311  0.00  0.00    +0.290 C 
ATOM      8  O   LIG    1        8.107  -0.024   0.972  0.00  0.00    -0.530 OA
ENDROOT
BRANCH   5   9
ATOM      9  C   LIG    1        2.212   1.097  -0.013  0.00  0.00    +0.100 A 
ATOM     10  N   LIG    1        1.226   1.912   0.001  0.00  0.00    -0.460 NA
ATOM     11  C   LIG    1       -0.017   1.395   0.010  0.00  0.00    +0.080 A 
ATOM     12  C   LIG    1       -1.264   2.051   0.030  0.00  0.00    +0.140 A 
ATOM     13  C   LIG    1       -2.421   1.332   0.033  0.00  0.00    -0.170 A 
ATOM     14  C   LIG    1       -2.396  -0.055   0.025  0.00  0.00    +0.080 A 
ATOM     15  C   LIG    1       -1.191  -0.723   0.010  0.00  0.00    +0.090 A 
ATOM     16  C   LIG    1        0.002  -0.004   0.002  0.00  0.00    -0.170 A 
ATOM     17  S   LIG    1        1.684  -0.525  -0.017  0.00  0.00    +0.130 S 
BRANCH  13  18
ATOM     18  C   LIG    1       -3.745   2.052   0.050  0.00  0.00    +0.510 C 
ATOM     19  F   LIG    1       -3.851   2.860  -1.087  0.00  0.00    -0.170 F 
ATOM     20  F   LIG    1       -3.828   2.848   1.198  0.00  0.00    -0.170 F 
ATOM     21  F   LIG    1       -4.785   1.116   0.055  0.00  0.00    -0.170 F 
ENDBRANCH  13  18
ENDBRANCH   5   9
BRANCH   1  22
ATOM     22  C   LIG    1        8.208  -0.089  -1.385  0.00  0.00    +0.300 C 
BRANCH  22  24
ATOM     23  C   LIG    1       10.159  -1.321  -2.168  0.00  0.00    +0.550 C 
ATOM     24  N   LIG    1        9.429  -0.860  -1.133  0.00  0.00    -0.720 N 
ATOM     25  H   LIG    1        9.711  -1.038  -0.223  0.00  0.00    +0.410 HD
ATOM     26  O   LIG    1        9.805  -1.098  -3.310  0.00  0.00    -0.540 OA
BRANCH  23  28
ATOM     27  C   LIG    1       12.105  -2.551  -2.936  0.00  0.00    +0.150 C 
ATOM     28  C   LIG    1       11.384  -2.095  -1.915  0.00  0.00    -0.090 C 
ENDBRANCH  23  28
ENDBRANCH  22  24
ENDBRANCH   1  22
TORSDOF 5
