REMARK  Name = ZINCrH000004sqPs.0
REMARK                            x       y       z     vdW  Elec       q    Type
REMARK                         _______ _______ _______ _____ _____    ______ ____
ROOT
ATOM      1  N   LIG    1       -1.680   5.192   2.888  0.00  0.00    -0.710 N 
ATOM      2  H   LIG    1       -2.366   5.820   2.613  0.00  0.00    +0.410 HD
ATOM      3  C   LIG    1       -0.383   5.462   2.641  0.00  0.00    +0.530 C 
ATOM      4  O   LIG    1        0.476   4.677   2.985  0.00  0.00    -0.490 OA
ENDROOT
BRANCH   1   5
ATOM      5  C   LIG    1       -2.053   3.952   3.571  0.00  0.00    +0.280 C 
ATOM      6  C   LIG    1       -1.399   3.914   4.954  0.00  0.00    +0.040 C 
ATOM      7  C   LIG    1       -1.875   5.113   5.776  0.00  0.00    +0.020 C 
ATOM      8  C   LIG    1       -3.396   5.054   5.931  0.00  0.00    +0.020 C 
ATOM      9  C   LIG    1       -4.051   5.091   4.548  0.00  0.00    +0.010 C 
ATOM     10  C   LIG    1       -3.574   3.892   3.725  0.00  0.00    +0.040 C 
BRANCH   5  14
ATOM     11  C   LIG    1       -0.013   1.086   0.008  0.00  0.00    +0.240 C 
ATOM     12  C   LIG    1       -0.718   1.572   1.248  0.00  0.00    +0.180 A 
ATOM     13  N   LIG    1       -0.920   2.821   1.593  0.00  0.00    -0.460 NA
ATOM     14  C   LIG    1       -1.584   2.771   2.761  0.00  0.00    +0.170 A 
ATOM     15  N   LIG    1       -1.743   1.518   3.065  0.00  0.00    -0.380 NA
ATOM     16  O   LIG    1       -1.252   0.812   2.209  0.00  0.00    +0.080 OA
ENDBRANCH   5  14
ENDBRANCH   1   5
BRANCH   3  17
ATOM     17  C   LIG    1        0.002   6.738   1.938  0.00  0.00    +0.240 C 
BRANCH  17  18
ATOM     18  O   LIG    1        1.422   6.793   1.794  0.00  0.00    -0.280 OA
BRANCH  18  19
ATOM     19  C   LIG    1        1.938   7.888   1.176  0.00  0.00    +0.160 A 
ATOM     20  C   LIG    1        1.093   8.886   0.712  0.00  0.00    -0.070 A 
ATOM     21  C   LIG    1        1.619  10.002   0.089  0.00  0.00    +0.110 A 
ATOM     22  C   LIG    1        2.986  10.118  -0.083  0.00  0.00    -0.220 A 
ATOM     23  C   LIG    1        3.830   9.122   0.373  0.00  0.00    +0.110 A 
ATOM     24  C   LIG    1        3.309   8.008   1.002  0.00  0.00    +0.000 A 
BRANCH  22  25
ATOM     25  C   LIG    1        3.558  11.332  -0.769  0.00  0.00    +0.510 C 
ATOM     26  F   LIG    1        4.835  11.595  -0.263  0.00  0.00    -0.180 F 
ATOM     27  F   LIG    1        2.728  12.434  -0.534  0.00  0.00    -0.180 F 
ATOM     28  F   LIG    1        3.640  11.095  -2.145  0.00  0.00    -0.180 F 
ENDBRANCH  22  25
ENDBRANCH  18  19
ENDBRANCH  17  18
ENDBRANCH   3  17
TORSDOF 6
