REMARK  Name = ZINCqH0000006K3s.0
REMARK                            x       y       z     vdW  Elec       q    Type
REMARK                         _______ _______ _______ _____ _____    ______ ____
ROOT
ATOM      1  N   LIG    1       -1.726  -1.017  -1.368  0.00  0.00    -0.720 N 
ATOM      2  H   LIG    1       -1.191  -0.691  -2.109  0.00  0.00    +0.400 HD
ATOM      3  C   LIG    1       -2.867  -1.693  -1.607  0.00  0.00    +0.520 C 
ATOM      4  O   LIG    1       -3.535  -2.101  -0.681  0.00  0.00    -0.520 OA
ENDROOT
BRANCH   1   5
ATOM      5  C   LIG    1       -1.293  -0.775   0.010  0.00  0.00    +0.320 C 
BRANCH   5  10
ATOM      6  C   LIG    1        2.399   0.031  -0.020  0.00  0.00    +0.130 A 
ATOM      7  C   LIG    1        2.377   1.417  -0.013  0.00  0.00    -0.070 A 
ATOM      8  C   LIG    1        1.170   2.088   0.002  0.00  0.00    -0.050 A 
ATOM      9  C   LIG    1       -0.017   1.379   0.010  0.00  0.00    -0.010 A 
ATOM     10  C   LIG    1        0.002  -0.004   0.002  0.00  0.00    -0.070 A 
ATOM     11  C   LIG    1        1.145   3.595   0.011  0.00  0.00    +0.100 C 
ATOM     12  C   LIG    1        1.207  -0.679  -0.013  0.00  0.00    -0.010 A 
BRANCH   6  14
ATOM     13  C   LIG    1        4.772   0.164  -0.042  0.00  0.00    +0.250 C 
ATOM     14  O   LIG    1        3.586  -0.632  -0.034  0.00  0.00    -0.320 OA
ENDBRANCH   6  14
ENDBRANCH   5  10
ENDBRANCH   1   5
BRANCH   3  15
ATOM     15  C   LIG    1       -3.312  -1.942  -3.025  0.00  0.00    +0.080 C 
BRANCH  15  16
ATOM     16  C   LIG    1       -4.627  -2.725  -3.017  0.00  0.00    +0.070 C 
ATOM     17  S   LIG    1       -4.346  -4.384  -2.329  0.00  0.00    -0.030 S 
ATOM     18  C   LIG    1       -3.508  -5.188  -3.659  0.00  0.00    -0.140 A 
ATOM     19  C   LIG    1       -2.594  -6.194  -3.394  0.00  0.00    +0.110 A 
ATOM     20  C   LIG    1       -1.959  -6.843  -4.437  0.00  0.00    +0.030 A 
ATOM     21  C   LIG    1       -2.244  -6.489  -5.744  0.00  0.00    -0.000 A 
ATOM     22  C   LIG    1       -3.152  -5.482  -6.013  0.00  0.00    +0.010 A 
ATOM     23 CL   LIG    1       -1.455  -7.313  -7.053  0.00  0.00    -0.050 Cl
ATOM     24  C   LIG    1       -3.782  -4.808  -4.973  0.00  0.00    +0.170 A 
ATOM     25  N   LIG    1       -4.688  -3.793  -5.269  0.00  0.00    -0.650 N 
ATOM     26  H   LIG    1       -5.022  -3.756  -6.179  0.00  0.00    +0.420 HD
ATOM     27  C   LIG    1       -5.138  -2.869  -4.426  0.00  0.00    +0.530 C 
ATOM     28  O   LIG    1       -6.002  -2.108  -4.809  0.00  0.00    -0.500 OA
ENDBRANCH  15  16
ENDBRANCH   3  15
TORSDOF 5
