REMARK  Name = ZINCqH0000004JrL.0
REMARK                            x       y       z     vdW  Elec       q    Type
REMARK                         _______ _______ _______ _____ _____    ______ ____
ROOT
ATOM      1  N   LIG    1       -3.336   2.685  -0.536  0.00  0.00    -0.590 N 
ATOM      2  C   LIG    1       -3.066   1.652   0.288  0.00  0.00    +0.610 C 
ATOM      3  O   LIG    1       -3.652   0.595   0.149  0.00  0.00    -0.530 OA
ATOM      4  C   LIG    1       -2.631   3.958  -0.369  0.00  0.00    +0.300 C 
ENDROOT
BRANCH   2   5
ATOM      5  C   LIG    1       -2.066   1.804   1.352  0.00  0.00    -0.220 A 
ATOM      6  C   LIG    1       -0.730   1.547   1.260  0.00  0.00    +0.130 A 
ATOM      7  N   LIG    1       -0.129   1.810   2.445  0.00  0.00    -0.580 N 
ATOM      8  H   LIG    1        0.820   1.706   2.620  0.00  0.00    +0.420 HD
ATOM      9  C   LIG    1       -1.056   2.248   3.368  0.00  0.00    +0.090 A 
ATOM     10  C   LIG    1       -0.962   2.640   4.699  0.00  0.00    -0.010 A 
ATOM     11  C   LIG    1       -2.092   3.039   5.380  0.00  0.00    +0.030 A 
ATOM     12  C   LIG    1       -3.329   3.051   4.751  0.00  0.00    -0.010 A 
ATOM     13  C   LIG    1       -3.442   2.665   3.433  0.00  0.00    +0.050 A 
ATOM     14  C   LIG    1       -0.026   1.050   0.023  0.00  0.00    +0.150 C 
ATOM     15  C   LIG    1       -2.308   2.261   2.733  0.00  0.00    -0.070 A 
ENDBRANCH   2   5
BRANCH   1  16
ATOM     16  C   LIG    1       -4.334   2.533  -1.597  0.00  0.00    +0.330 C 
BRANCH  16  19
ATOM     17  N   LIG    1       -6.769   2.866  -1.878  0.00  0.00    -0.670 N 
ATOM     18  H   LIG    1       -6.661   2.648  -2.817  0.00  0.00    +0.410 HD
ATOM     19  C   LIG    1       -5.691   2.926  -1.072  0.00  0.00    +0.490 C 
ATOM     20  O   LIG    1       -5.812   3.296   0.077  0.00  0.00    -0.500 OA
BRANCH  17  26
ATOM     21  C   LIG    1       -9.057   3.571  -2.196  0.00  0.00    -0.110 A 
ATOM     22  C   LIG    1      -10.317   3.813  -1.683  0.00  0.00    +0.020 A 
ATOM     23  C   LIG    1      -10.566   3.618  -0.337  0.00  0.00    -0.020 A 
ATOM     24  C   LIG    1       -9.558   3.175   0.499  0.00  0.00    +0.020 A 
ATOM     25  C   LIG    1       -8.298   2.924  -0.009  0.00  0.00    +0.010 A 
ATOM     26  C   LIG    1       -8.044   3.119  -1.360  0.00  0.00    +0.150 A 
BRANCH  21  28
ATOM     27  C   LIG    1       -8.953   2.469  -4.415  0.00  0.00    +0.020 C 
ATOM     28  C   LIG    1       -8.785   3.790  -3.662  0.00  0.00    +0.060 C 
ENDBRANCH  21  28
ENDBRANCH  17  26
ENDBRANCH  16  19
ENDBRANCH   1  16
TORSDOF 5
