REMARK  Name = ZINCrH000004v0qj.0
REMARK                            x       y       z     vdW  Elec       q    Type
REMARK                         _______ _______ _______ _____ _____    ______ ____
ROOT
ATOM      1  O   LIG    1        0.173   4.214   0.059  0.00  0.00    -0.500 OA
ATOM      2  C   LIG    1        1.211   3.578   0.029  0.00  0.00    +0.580 C 
ATOM      3  N   LIG    1        2.395   4.221   0.021  0.00  0.00    -0.650 N 
ATOM      4  H   LIG    1        3.222   3.715  -0.002  0.00  0.00    +0.410 HD
ENDROOT
BRANCH   2   5
ATOM      5  C   LIG    1        1.172   2.117   0.002  0.00  0.00    -0.240 C 
ATOM      6  C   LIG    1       -0.018   1.467   0.010  0.00  0.00    +0.190 C 
ATOM      7  C   LIG    1        0.002  -0.004   0.002  0.00  0.00    -0.150 A 
ATOM      8  C   LIG    1       -1.133  -0.746  -0.321  0.00  0.00    +0.130 A 
ATOM      9  C   LIG    1       -1.068  -2.125  -0.318  0.00  0.00    -0.120 A 
ATOM     10  C   LIG    1        0.116  -2.769   0.005  0.00  0.00    +0.110 A 
ATOM     11  C   LIG    1        1.248  -2.042   0.328  0.00  0.00    +0.010 A 
ATOM     12 BR   LIG    1       -2.602  -3.140  -0.754  0.00  0.00    -0.040 Br
ATOM     13  C   LIG    1        1.202  -0.660   0.330  0.00  0.00    +0.160 A 
ATOM     14  O   LIG    1        2.293   0.081   0.642  0.00  0.00    -0.300 OA
ATOM     15  C   LIG    1        2.454   1.327  -0.035  0.00  0.00    +0.300 C 
ENDBRANCH   2   5
BRANCH   3  16
ATOM     16  C   LIG    1        2.432   5.614   0.048  0.00  0.00    +0.310 A 
ATOM     17  C   LIG    1        1.356   6.444   0.082  0.00  0.00    -0.080 A 
ATOM     18  C   LIG    1        1.834   7.769   0.100  0.00  0.00    +0.160 A 
ATOM     19  N   LIG    1        3.151   7.729   0.076  0.00  0.00    -0.260 NA
ATOM     20  N   LIG    1        3.550   6.387   0.049  0.00  0.00    -0.380 N 
BRANCH  18  21
ATOM     21  C   LIG    1        1.003   8.992   0.137  0.00  0.00    -0.120 A 
ATOM     22  C   LIG    1        1.476  10.253   0.159  0.00  0.00    +0.050 A 
ATOM     23  C   LIG    1        0.504  11.233   0.188  0.00  0.00    +0.000 A 
ATOM     24  C   LIG    1       -0.753  10.782   0.201  0.00  0.00    -0.040 A 
ATOM     25  S   LIG    1       -0.755   9.024   0.168  0.00  0.00    +0.150 S 
ENDBRANCH  18  21
BRANCH  20  26
ATOM     26  C   LIG    1        4.932   5.900   0.023  0.00  0.00    +0.340 C 
BRANCH  26  27
ATOM     27  C   LIG    1        5.396   5.758  -1.428  0.00  0.00    +0.170 C 
BRANCH  27  28
ATOM     28  O   LIG    1        6.743   5.283  -1.453  0.00  0.00    -0.570 OA
ATOM     29  H   LIG    1        7.104   5.169  -2.343  0.00  0.00    +0.390 HD
ENDBRANCH  27  28
ENDBRANCH  26  27
ENDBRANCH  20  26
ENDBRANCH   3  16
TORSDOF 6
