REMARK  Name = ZINCrg00000fSr5u.0
REMARK                            x       y       z     vdW  Elec       q    Type
REMARK                         _______ _______ _______ _____ _____    ______ ____
ROOT
ATOM      1  N   LIG    1       -2.744   2.776   0.491  0.00  0.00    -0.550 NA
ATOM      2  C   LIG    1       -1.396   2.918   1.039  0.00  0.00    +0.190 C 
ATOM      3  C   LIG    1       -0.807   1.544   1.262  0.00  0.00    +0.030 C 
ATOM      4  C   LIG    1       -0.009   1.115   0.020  0.00  0.00    +0.270 C 
ATOM      5  N   LIG    1       -0.702   1.507  -1.223  0.00  0.00    -0.580 N 
ATOM      6  C   LIG    1       -2.135   1.371  -1.392  0.00  0.00    +0.290 C 
ATOM      7  C   LIG    1        0.025   2.011  -2.239  0.00  0.00    +0.580 C 
ATOM      8  O   LIG    1        1.227   2.151  -2.116  0.00  0.00    -0.530 OA
ATOM      9  C   LIG    1       -2.841   2.663  -0.916  0.00  0.00    +0.180 C 
ENDROOT
BRANCH   7  10
ATOM     10  C   LIG    1       -0.636   2.394  -3.502  0.00  0.00    +0.060 A 
ATOM     11  N   LIG    1       -1.944   2.393  -3.593  0.00  0.00    -0.190 NA
ATOM     12  N   LIG    1       -2.594   2.716  -4.647  0.00  0.00    -0.470 N 
ATOM     13  H   LIG    1       -3.563   2.687  -4.615  0.00  0.00    +0.440 HD
ATOM     14  C   LIG    1       -2.003   3.087  -5.801  0.00  0.00    +0.520 A 
ATOM     15  C   LIG    1       -0.535   3.132  -5.854  0.00  0.00    -0.140 A 
ATOM     16  C   LIG    1        0.169   3.502  -6.995  0.00  0.00    +0.090 A 
ATOM     17  C   LIG    1        1.548   3.517  -6.962  0.00  0.00    +0.030 A 
ATOM     18  C   LIG    1        2.235   3.168  -5.807  0.00  0.00    +0.050 A 
ATOM     19  C   LIG    1        1.554   2.799  -4.665  0.00  0.00    +0.080 A 
ATOM     20  O   LIG    1       -2.671   3.380  -6.776  0.00  0.00    -0.500 OA
ATOM     21  C   LIG    1        0.164   2.777  -4.677  0.00  0.00    -0.040 A 
ENDBRANCH   7  10
BRANCH   1  22
ATOM     22  C   LIG    1       -3.632   3.832   0.996  0.00  0.00    +0.300 C 
BRANCH  22  26
ATOM     23  C   LIG    1       -3.006   7.925  -1.827  0.00  0.00    +0.350 C 
ATOM     24  N   LIG    1       -2.887   6.951  -0.740  0.00  0.00    -0.370 N 
ATOM     25  C   LIG    1       -3.537   5.771  -0.656  0.00  0.00    +0.230 A 
ATOM     26  C   LIG    1       -3.156   5.171   0.495  0.00  0.00    -0.270 A 
ATOM     27  C   LIG    1       -2.247   6.016   1.141  0.00  0.00    +0.240 A 
ATOM     28  N   LIG    1       -2.081   7.080   0.399  0.00  0.00    -0.290 NA
ENDBRANCH  22  26
ENDBRANCH   1  22
TORSDOF 3
