REMARK  Name = ZINCqH0000034J4a.1
REMARK                            x       y       z     vdW  Elec       q    Type
REMARK                         _______ _______ _______ _____ _____    ______ ____
ROOT
ATOM      1  N   LIG    1        4.186   2.288  -1.388  0.00  0.00    -0.740 N 
ATOM      2  H   LIG    1        3.712   1.849  -2.112  0.00  0.00    +0.400 HD
ENDROOT
BRANCH   1   6
ATOM      3  C   LIG    1        7.692   4.348  -2.076  0.00  0.00    +0.250 A 
ATOM      4  C   LIG    1        7.061   3.741  -3.155  0.00  0.00    +0.010 A 
ATOM      5  C   LIG    1        5.884   3.046  -2.944  0.00  0.00    +0.000 A 
ATOM      6  C   LIG    1        5.375   2.981  -1.649  0.00  0.00    +0.150 A 
ATOM      7  C   LIG    1        6.056   3.616  -0.622  0.00  0.00    +0.200 A 
ATOM      8  N   LIG    1        7.180   4.267  -0.859  0.00  0.00    -0.480 NA
BRANCH   3  13
ATOM      9  C   LIG    1       12.902   6.332  -2.140  0.00  0.00    +0.190 C 
ATOM     10  N   LIG    1       11.652   5.590  -1.927  0.00  0.00    -0.550 NA
ATOM     11  C   LIG    1       10.636   6.442  -1.292  0.00  0.00    +0.170 C 
ATOM     12  C   LIG    1        9.379   5.613  -1.016  0.00  0.00    +0.220 C 
ATOM     13  N   LIG    1        8.878   5.052  -2.278  0.00  0.00    -0.480 N 
ATOM     14  C   LIG    1        9.894   4.200  -2.912  0.00  0.00    +0.200 C 
ATOM     15  C   LIG    1       11.150   5.029  -3.189  0.00  0.00    +0.190 C 
ENDBRANCH   3  13
ENDBRANCH   1   6
BRANCH   1  16
ATOM     16  C   LIG    1        3.658   2.226  -0.023  0.00  0.00    +0.320 C 
BRANCH  16  17
ATOM     17  C   LIG    1        2.380   1.427  -0.014  0.00  0.00    -0.140 A 
ATOM     18  C   LIG    1        2.439   0.065  -0.021  0.00  0.00    +0.130 A 
ATOM     19  C   LIG    1        1.246  -0.682  -0.013  0.00  0.00    -0.090 A 
ATOM     20  C   LIG    1        1.266  -2.086  -0.020  0.00  0.00    +0.030 A 
ATOM     21  C   LIG    1        0.092  -2.776  -0.012  0.00  0.00    +0.020 A 
ATOM     22  C   LIG    1       -1.131  -2.110   0.003  0.00  0.00    +0.030 A 
ATOM     23  C   LIG    1       -1.188  -0.750   0.010  0.00  0.00    +0.020 A 
ATOM     24  C   LIG    1        0.002  -0.004   0.002  0.00  0.00    -0.020 A 
ATOM     25  C   LIG    1       -0.017   1.401   0.010  0.00  0.00    +0.030 A 
ATOM     26  F   LIG    1        3.635  -0.563  -0.036  0.00  0.00    -0.130 F 
ATOM     27  C   LIG    1        1.156   2.092   0.002  0.00  0.00    +0.060 A 
ENDBRANCH  16  17
ENDBRANCH   1  16
TORSDOF 4
