REMARK  Name = ZINCrH00000No4Zg.0
REMARK                            x       y       z     vdW  Elec       q    Type
REMARK                         _______ _______ _______ _____ _____    ______ ____
ROOT
ATOM      1  N   LIG    1       -0.961   1.925   1.310  0.00  0.00    -0.510 NA
ENDROOT
BRANCH   1   2
ATOM      2  C   LIG    1       -0.026   2.007   2.441  0.00  0.00    +0.260 C 
BRANCH   2   9
ATOM      3  C   LIG    1        0.812   4.353   2.197  0.00  0.00    +0.070 A 
ATOM      4  C   LIG    1        1.832   5.250   1.896  0.00  0.00    -0.060 A 
ATOM      5  C   LIG    1        3.068   4.743   1.528  0.00  0.00    -0.020 A 
ATOM      6  C   LIG    1        3.246   3.374   1.471  0.00  0.00    +0.250 A 
ATOM      7  N   LIG    1        2.260   2.550   1.768  0.00  0.00    -0.470 NA
ATOM      8  C   LIG    1        1.598   6.737   1.970  0.00  0.00    +0.100 C 
ATOM      9  C   LIG    1        1.068   2.991   2.117  0.00  0.00    +0.130 A 
BRANCH   3  11
ATOM     10  C   LIG    1       -0.640   5.015   3.958  0.00  0.00    +0.220 C 
ATOM     11  O   LIG    1       -0.416   4.803   2.563  0.00  0.00    -0.310 OA
ENDBRANCH   3  11
ENDBRANCH   2   9
ENDBRANCH   1   2
BRANCH   1  12
ATOM     12  C   LIG    1       -2.274   1.433   1.747  0.00  0.00    +0.210 C 
BRANCH  12  13
ATOM     13  C   LIG    1       -3.323   1.764   0.684  0.00  0.00    -0.020 C 
ATOM     14  C   LIG    1       -4.449   2.722   1.077  0.00  0.00    +0.040 C 
ATOM     15  C   LIG    1       -4.741   1.230   0.899  0.00  0.00    -0.010 C 
BRANCH  15  16
ATOM     16  C   LIG    1       -5.520   0.814  -0.321  0.00  0.00    -0.050 A 
ATOM     17  C   LIG    1       -5.795   1.737  -1.314  0.00  0.00    +0.000 A 
ATOM     18  C   LIG    1       -6.507   1.355  -2.435  0.00  0.00    +0.000 A 
ATOM     19  C   LIG    1       -6.951   0.052  -2.561  0.00  0.00    -0.010 A 
ATOM     20  C   LIG    1       -6.681  -0.870  -1.566  0.00  0.00    +0.000 A 
ATOM     21  C   LIG    1       -5.966  -0.488  -0.446  0.00  0.00    +0.000 A 
ENDBRANCH  15  16
ENDBRANCH  12  13
ENDBRANCH   1  12
BRANCH   1  22
ATOM     22  C   LIG    1       -0.415   1.086   0.235  0.00  0.00    +0.190 C 
BRANCH  22  23
ATOM     23  C   LIG    1        0.618   1.886  -0.561  0.00  0.00    -0.280 C 
ATOM     24  C   LIG    1       -0.067   3.076  -1.235  0.00  0.00    +0.060 C 
BRANCH  23  25
ATOM     25  S   LIG    1        1.362   0.821  -1.827  0.00  0.00    +1.230 S 
ATOM     26  O   LIG    1        0.351   0.360  -2.713  0.00  0.00    -0.850 OA
ATOM     27  C   LIG    1        2.002  -0.575  -0.861  0.00  0.00    -0.180 C 
ENDBRANCH  23  25
ENDBRANCH  22  23
ENDBRANCH   1  22
TORSDOF 9
