REMARK  Name = ZINCrD000000C7Ig.0
REMARK                            x       y       z     vdW  Elec       q    Type
REMARK                         _______ _______ _______ _____ _____    ______ ____
ROOT
ATOM      1  O   LIG    1       -0.566  -4.220   1.006  0.00  0.00    -0.490 OA
ATOM      2  C   LIG    1       -1.510  -4.783   0.485  0.00  0.00    +0.560 C 
ATOM      3  N   LIG    1       -2.543  -4.063   0.005  0.00  0.00    -0.670 N 
ATOM      4  H   LIG    1       -3.329  -4.513  -0.340  0.00  0.00    +0.410 HD
ENDROOT
BRANCH   2   5
ATOM      5  C   LIG    1       -1.524  -6.253   0.378  0.00  0.00    +0.070 A 
ATOM      6  C   LIG    1       -0.470  -6.957   0.863  0.00  0.00    +0.080 A 
ATOM      7  C   LIG    1       -0.477  -8.417   0.766  0.00  0.00    -0.020 A 
ATOM      8  C   LIG    1        0.579  -9.190   1.252  0.00  0.00    +0.030 A 
ATOM      9  C   LIG    1        0.527 -10.562   1.132  0.00  0.00    +0.050 A 
ATOM     10  C   LIG    1       -0.561 -11.181   0.532  0.00  0.00    +0.020 A 
ATOM     11  C   LIG    1       -1.615 -10.436   0.045  0.00  0.00    +0.090 A 
ATOM     12  C   LIG    1       -1.585  -9.048   0.156  0.00  0.00    -0.140 A 
ATOM     13  C   LIG    1       -2.682  -8.208  -0.347  0.00  0.00    +0.550 A 
ATOM     14  O   LIG    1       -3.652  -8.717  -0.878  0.00  0.00    -0.520 OA
ATOM     15  N   LIG    1       -2.604  -6.869  -0.216  0.00  0.00    -0.630 N 
ATOM     16  H   LIG    1       -3.331  -6.322  -0.551  0.00  0.00    +0.410 HD
ENDBRANCH   2   5
BRANCH   3  17
ATOM     17  C   LIG    1       -2.482  -2.666   0.006  0.00  0.00    +0.180 A 
ATOM     18  C   LIG    1       -3.638  -1.919   0.197  0.00  0.00    -0.050 A 
ATOM     19  C   LIG    1       -3.577  -0.539   0.198  0.00  0.00    +0.070 A 
ATOM     20  C   LIG    1       -2.366   0.102   0.016  0.00  0.00    -0.090 A 
ATOM     21  C   LIG    1       -1.209  -0.639  -0.180  0.00  0.00    +0.150 A 
ATOM     22  C   LIG    1       -1.266  -2.024  -0.182  0.00  0.00    -0.010 A 
BRANCH  21  23
ATOM     23  O   LIG    1       -0.020  -0.007  -0.364  0.00  0.00    -0.300 OA
BRANCH  23  24
ATOM     24  C   LIG    1       -0.036   1.422  -0.350  0.00  0.00    +0.220 C 
BRANCH  24  25
ATOM     25  C   LIG    1        1.383   1.950  -0.572  0.00  0.00    +0.160 C 
ATOM     26  C   LIG    1        1.412   3.488  -0.436  0.00  0.00    +0.010 C 
ATOM     27  C   LIG    1        2.423   3.941  -1.513  0.00  0.00    +0.000 C 
ATOM     28  C   LIG    1        2.886   2.623  -2.172  0.00  0.00    +0.190 C 
ATOM     29  O   LIG    1        1.810   1.691  -1.927  0.00  0.00    -0.360 OA
ENDBRANCH  24  25
ENDBRANCH  23  24
ENDBRANCH  21  23
ENDBRANCH   3  17
TORSDOF 5
