REMARK  Name = ZINCrg000000onpw.0
REMARK                            x       y       z     vdW  Elec       q    Type
REMARK                         _______ _______ _______ _____ _____    ______ ____
ROOT
ATOM      1  C   LIG    1       -4.739   6.024   5.631  0.00  0.00    +0.060 C 
ENDROOT
BRANCH   1   8
ATOM      2  N   LIG    1       -1.548   3.788   2.675  0.00  0.00    -1.000 NA
ATOM      3  C   LIG    1       -3.007   3.961   2.684  0.00  0.00    +0.290 C 
ATOM      4  C   LIG    1       -3.338   5.344   3.245  0.00  0.00    +0.270 C 
ATOM      5  N   LIG    1       -2.595   5.534   4.498  0.00  0.00    -0.610 N 
ATOM      6  C   LIG    1       -1.135   5.367   4.489  0.00  0.00    +0.240 C 
ATOM      7  C   LIG    1       -0.501   6.441   3.604  0.00  0.00    +0.040 C 
ATOM      8  C   LIG    1       -3.241   5.856   5.637  0.00  0.00    +0.520 C 
ATOM      9  O   LIG    1       -2.618   6.011   6.665  0.00  0.00    -0.540 OA
ATOM     10  C   LIG    1       -0.805   3.978   3.929  0.00  0.00    +0.300 C 
BRANCH   2  11
ATOM     11  S   LIG    1       -0.753   3.393   1.277  0.00  0.00    +2.600 S 
ATOM     12  O   LIG    1       -1.596   3.886   0.244  0.00  0.00    -0.950 OA
ATOM     13  O   LIG    1        0.558   3.909   1.461  0.00  0.00    -0.950 OA
BRANCH  11  15
ATOM     14  C   LIG    1       -0.013   1.086   0.008  0.00  0.00    +0.070 C 
ATOM     15  C   LIG    1       -0.729   1.579   1.267  0.00  0.00    -0.370 C 
ENDBRANCH  11  15
ENDBRANCH   2  11
ENDBRANCH   1   8
BRANCH   1  16
ATOM     16  C   LIG    1       -5.217   6.387   7.039  0.00  0.00    +0.040 C 
BRANCH  16  17
ATOM     17  C   LIG    1       -6.737   6.558   7.033  0.00  0.00    +0.080 C 
BRANCH  17  18
ATOM     18  C   LIG    1       -7.208   6.914   8.420  0.00  0.00    -0.070 A 
ATOM     19  C   LIG    1       -7.560   5.912   9.307  0.00  0.00    +0.030 A 
ATOM     20  C   LIG    1       -7.988   6.229  10.581  0.00  0.00    +0.030 A 
ATOM     21  C   LIG    1       -8.075   7.557  10.970  0.00  0.00    +0.080 A 
ATOM     22  N   LIG    1       -8.464   8.184  12.151  0.00  0.00    -0.640 N 
ATOM     23  H   LIG    1       -8.763   7.737  12.959  0.00  0.00    +0.440 HD
ATOM     24  C   LIG    1       -8.355   9.515  11.981  0.00  0.00    +0.680 A 
ATOM     25  N   LIG    1       -7.911   9.778  10.737  0.00  0.00    -0.640 N 
ATOM     26  H   LIG    1       -7.749  10.660  10.367  0.00  0.00    +0.440 HD
ATOM     27  O   LIG    1       -8.619  10.353  12.823  0.00  0.00    -0.550 OA
ATOM     28  C   LIG    1       -7.724   8.568  10.073  0.00  0.00    +0.090 A 
ATOM     29  C   LIG    1       -7.291   8.240   8.798  0.00  0.00    +0.030 A 
ENDBRANCH  17  18
ENDBRANCH  16  17
ENDBRANCH   1  16
TORSDOF 6
