REMARK  Name = ZINCrg000000sE6m.0
REMARK                            x       y       z     vdW  Elec       q    Type
REMARK                         _______ _______ _______ _____ _____    ______ ____
ROOT
ATOM      1  N   LIG    1        1.330   2.049  -0.035  0.00  0.00    -0.510 NA
ATOM      2  C   LIG    1        1.786   1.553   1.272  0.00  0.00    +0.190 C 
ATOM      3  C   LIG    1        1.652   0.029   1.312  0.00  0.00    +0.230 C 
ATOM      4  N   LIG    1        2.445  -0.558   0.223  0.00  0.00    -0.480 N 
ATOM      5  C   LIG    1        1.990  -0.063  -1.083  0.00  0.00    +0.210 C 
ATOM      6  C   LIG    1        2.124   1.461  -1.123  0.00  0.00    +0.200 C 
ENDROOT
BRANCH   1  11
ATOM      7  N   LIG    1        0.940   5.114   1.787  0.00  0.00    -0.520 N 
ATOM      8  C   LIG    1        2.218   5.799   1.635  0.00  0.00    +0.260 C 
ATOM      9  C   LIG    1        2.823   5.505   0.261  0.00  0.00    +0.040 C 
ATOM     10  C   LIG    1        2.824   3.988   0.042  0.00  0.00    +0.000 C 
ATOM     11  C   LIG    1        1.373   3.516  -0.085  0.00  0.00    +0.200 C 
ATOM     12  C   LIG    1        0.554   4.078   1.041  0.00  0.00    +0.520 C 
ATOM     13  O   LIG    1       -0.516   3.562   1.286  0.00  0.00    -0.510 OA
BRANCH   7  17
ATOM     14  C   LIG    1       -1.066   7.812   5.389  0.00  0.00    +0.370 C 
ATOM     15  N   LIG    1       -0.839   6.769   4.385  0.00  0.00    -0.380 N 
ATOM     16  C   LIG    1        0.233   6.676   3.557  0.00  0.00    +0.190 A 
ATOM     17  C   LIG    1        0.059   5.575   2.783  0.00  0.00    -0.010 A 
ATOM     18  C   LIG    1       -1.152   4.974   3.157  0.00  0.00    +0.270 A 
ATOM     19  N   LIG    1       -1.688   5.688   4.113  0.00  0.00    -0.290 NA
ENDBRANCH   7  17
ENDBRANCH   1  11
BRANCH   4  20
ATOM     20  C   LIG    1        2.405  -1.943   0.271  0.00  0.00    +0.340 A 
ATOM     21  C   LIG    1        3.100  -2.683  -0.683  0.00  0.00    -0.040 A 
ATOM     22  C   LIG    1        3.058  -4.051  -0.632  0.00  0.00    +0.150 A 
ATOM     23  C   LIG    1        2.312  -4.661   0.387  0.00  0.00    -0.110 A 
ATOM     24  C   LIG    1        1.640  -3.856   1.309  0.00  0.00    +0.360 A 
ATOM     25  N   LIG    1        1.711  -2.544   1.228  0.00  0.00    -0.520 NA
BRANCH  23  26
ATOM     26  C   LIG    1        2.239  -6.088   0.479  0.00  0.00    +0.260 C 
ATOM     27  N   LIG    1        2.181  -7.220   0.553  0.00  0.00    -0.410 NA
ENDBRANCH  23  26
ENDBRANCH   4  20
TORSDOF 4
