REMARK  Name = ZINCrD0000070TrE.0
REMARK                            x       y       z     vdW  Elec       q    Type
REMARK                         _______ _______ _______ _____ _____    ______ ____
ROOT
ATOM      1  O   LIG    1       -6.005   1.300   1.011  0.00  0.00    -0.330 OA
ENDROOT
BRANCH   1   2
ATOM      2  C   LIG    1       -4.788   0.722   0.991  0.00  0.00    +0.510 C 
ATOM      3  O   LIG    1       -4.652  -0.422   1.378  0.00  0.00    -0.500 OA
BRANCH   2   4
ATOM      4  C   LIG    1       -3.621   1.477   0.501  0.00  0.00    -0.090 A 
ATOM      5  C   LIG    1       -3.778   2.793   0.057  0.00  0.00    +0.090 A 
ATOM      6  C   LIG    1       -2.685   3.497  -0.399  0.00  0.00    +0.080 A 
ATOM      7  C   LIG    1       -1.431   2.900  -0.418  0.00  0.00    -0.100 A 
ATOM      8  S   LIG    1       -0.031   3.804  -1.000  0.00  0.00    -0.060 S 
ATOM      9  C   LIG    1        1.313   3.084  -0.011  0.00  0.00    +0.150 C 
ATOM     10  C   LIG    1        1.166   1.587  -0.001  0.00  0.00    +0.520 C 
ATOM     11  N   LIG    1       -0.011   0.966   0.007  0.00  0.00    -0.650 N 
ATOM     12  H   LIG    1        0.002  -0.004   0.002  0.00  0.00    +0.420 HD
ATOM     13  O   LIG    1        2.172   0.911   0.001  0.00  0.00    -0.510 OA
ATOM     14  C   LIG    1       -1.260   1.583   0.017  0.00  0.00    +0.150 A 
ATOM     15  C   LIG    1       -2.360   0.876   0.481  0.00  0.00    +0.080 A 
ENDBRANCH   2   4
ENDBRANCH   1   2
BRANCH   1  16
ATOM     16  C   LIG    1       -7.108   0.497   1.507  0.00  0.00    +0.250 C 
BRANCH  16  17
ATOM     17  C   LIG    1       -8.380   1.304   1.454  0.00  0.00    +0.430 C 
ATOM     18  O   LIG    1       -8.358   2.445   1.040  0.00  0.00    -0.450 OA
BRANCH  17  22
ATOM     19  N   LIG    1      -11.774   0.429   2.404  0.00  0.00    -0.430 N 
ATOM     20  C   LIG    1      -11.155  -0.748   2.712  0.00  0.00    +0.010 A 
ATOM     21  C   LIG    1       -9.846  -0.644   2.430  0.00  0.00    +0.000 A 
ATOM     22  C   LIG    1       -9.642   0.712   1.903  0.00  0.00    -0.270 A 
ATOM     23  C   LIG    1      -11.833  -1.969   3.279  0.00  0.00    +0.120 C 
ATOM     24  C   LIG    1      -10.885   1.317   1.925  0.00  0.00    +0.120 A 
ATOM     25  C   LIG    1      -11.191   2.725   1.483  0.00  0.00    +0.150 C 
BRANCH  19  26
ATOM     26  C   LIG    1      -13.206   0.691   2.577  0.00  0.00    +0.320 C 
BRANCH  26  28
ATOM     27  C   LIG    1      -14.076   2.397   4.090  0.00  0.00    +0.050 C 
ATOM     28  C   LIG    1      -13.450   1.255   3.953  0.00  0.00    -0.070 C 
ENDBRANCH  26  28
ENDBRANCH  19  26
ENDBRANCH  17  22
ENDBRANCH  16  17
ENDBRANCH   1  16
TORSDOF 7
