REMARK  Name = ZINCrD00000bGMNv.0
REMARK                            x       y       z     vdW  Elec       q    Type
REMARK                         _______ _______ _______ _____ _____    ______ ____
ROOT
ATOM      1  C   LIG    1       -2.405   4.521   3.939  0.00  0.00    +0.530 C 
ATOM      2  N   LIG    1       -1.693   3.928   4.918  0.00  0.00    -0.610 N 
ATOM      3  C   LIG    1       -1.595   4.521   6.256  0.00  0.00    +0.340 C 
ATOM      4  C   LIG    1       -1.782   3.450   7.301  0.00  0.00    -0.100 A 
ATOM      5  C   LIG    1       -1.952   3.853   8.618  0.00  0.00    +0.020 A 
ATOM      6  C   LIG    1       -2.115   2.919   9.621  0.00  0.00    +0.010 A 
ATOM      7  C   LIG    1       -2.108   1.572   9.311  0.00  0.00    +0.020 A 
ATOM      8  C   LIG    1       -1.943   1.171   8.001  0.00  0.00    +0.020 A 
ATOM      9  C   LIG    1       -1.782   2.108   6.989  0.00  0.00    -0.070 A 
ATOM     10  C   LIG    1       -1.617   1.596   5.583  0.00  0.00    +0.100 C 
ATOM     11  C   LIG    1       -0.982   2.660   4.688  0.00  0.00    +0.380 C 
ATOM     12  O   LIG    1       -2.554   3.961   2.873  0.00  0.00    -0.510 OA
ENDROOT
BRANCH  11  13
ATOM     13  C   LIG    1       -1.116   2.255   3.242  0.00  0.00    +0.190 A 
ATOM     14  N   LIG    1       -0.339   2.624   2.263  0.00  0.00    -0.280 NA
ATOM     15  N   LIG    1       -0.746   2.084   1.169  0.00  0.00    -0.280 NA
ATOM     16  C   LIG    1       -1.802   1.361   1.410  0.00  0.00    +0.170 A 
ATOM     17  C   LIG    1       -2.588   0.565   0.400  0.00  0.00    +0.230 C 
ATOM     18  O   LIG    1       -2.058   1.449   2.726  0.00  0.00    -0.220 OA
ENDBRANCH  11  13
BRANCH   1  19
ATOM     19  C   LIG    1       -3.016   5.879   4.168  0.00  0.00    +0.050 C 
BRANCH  19  20
ATOM     20  C   LIG    1       -3.765   6.321   2.909  0.00  0.00    +0.130 C 
BRANCH  20  21
ATOM     21  C   LIG    1       -4.385   7.700   3.141  0.00  0.00    +0.040 C 
ATOM     22  N   LIG    1       -3.728   8.615   4.078  0.00  0.00    -0.120 NA
ATOM     23  N   LIG    1       -4.763   8.078   4.505  0.00  0.00    -0.120 NA
BRANCH  21  24
ATOM     24  C   LIG    1       -5.174   8.291   1.972  0.00  0.00    +0.120 C 
BRANCH  24  25
ATOM     25  C   LIG    1       -5.723   9.664   2.369  0.00  0.00    +0.160 C 
BRANCH  25  27
ATOM     26  C   LIG    1       -7.088  10.687   0.347  0.00  0.00    +0.030 C 
ATOM     27  C   LIG    1       -6.482  10.233   1.244  0.00  0.00    -0.190 C 
ENDBRANCH  25  27
ENDBRANCH  24  25
ENDBRANCH  21  24
ENDBRANCH  20  21
ENDBRANCH  19  20
ENDBRANCH   1  19
TORSDOF 7
