REMARK  Name = ZINCvU000000092a.0
REMARK                            x       y       z     vdW  Elec       q    Type
REMARK                         _______ _______ _______ _____ _____    ______ ____
ROOT
ATOM      1  N   LIG    1       -2.900   2.636   0.852  0.00  0.00    -0.360 N 
ATOM      2  N   LIG    1       -2.339   3.901   1.075  0.00  0.00    -0.230 NA
ATOM      3  C   LIG    1       -1.056   3.750   1.244  0.00  0.00    +0.310 A 
ATOM      4  N   LIG    1       -0.752   2.406   1.128  0.00  0.00    -0.450 N 
ATOM      5  C   LIG    1       -1.897   1.735   0.890  0.00  0.00    +0.470 A 
ATOM      6  S   LIG    1       -2.050   0.043   0.677  0.00  0.00    -0.550 S 
ENDROOT
BRANCH   4   7
ATOM      7  C   LIG    1        0.524   1.839   1.243  0.00  0.00    +0.120 A 
ATOM      8  C   LIG    1        1.366   1.793   0.140  0.00  0.00    +0.060 A 
ATOM      9  C   LIG    1        2.621   1.229   0.254  0.00  0.00    +0.050 A 
ATOM     10  C   LIG    1        3.040   0.709   1.467  0.00  0.00    -0.010 A 
ATOM     11  C   LIG    1        2.202   0.754   2.567  0.00  0.00    +0.050 A 
ATOM     12 CL   LIG    1        4.619   0.001   1.608  0.00  0.00    -0.050 Cl
ATOM     13  C   LIG    1        0.946   1.317   2.458  0.00  0.00    +0.070 A 
ENDBRANCH   4   7
BRANCH   3  14
ATOM     14  C   LIG    1       -0.086   4.835   1.512  0.00  0.00    +0.010 A 
ATOM     15  C   LIG    1        1.258   4.549   1.777  0.00  0.00    -0.010 A 
ATOM     16  C   LIG    1        2.130   5.591   2.015  0.00  0.00    +0.280 A 
ATOM     17  N   LIG    1        1.709   6.842   2.007  0.00  0.00    -0.470 NA
ATOM     18  C   LIG    1        0.450   7.155   1.767  0.00  0.00    +0.280 A 
ATOM     19  C   LIG    1       -0.488   6.175   1.513  0.00  0.00    +0.030 A 
ENDBRANCH   3  14
BRANCH   1  20
ATOM     20  C   LIG    1       -4.317   2.345   0.620  0.00  0.00    +0.520 C 
BRANCH  20  21
ATOM     21  N   LIG    1       -5.051   2.448   1.888  0.00  0.00    -0.540 NA
BRANCH  21  23
ATOM     22  C   LIG    1       -5.446   1.459   4.093  0.00  0.00    +0.040 C 
ATOM     23  C   LIG    1       -4.903   1.221   2.682  0.00  0.00    +0.160 C 
ATOM     24  C   LIG    1       -5.686   0.086   2.019  0.00  0.00    +0.010 C 
ENDBRANCH  21  23
BRANCH  21  25
ATOM     25  C   LIG    1       -6.469   2.754   1.651  0.00  0.00    +0.260 C 
BRANCH  25  26
ATOM     26  C   LIG    1       -6.614   4.210   1.290  0.00  0.00    -0.080 A 
ATOM     27  C   LIG    1       -6.694   5.165   2.286  0.00  0.00    +0.030 A 
ATOM     28  C   LIG    1       -6.823   6.501   1.954  0.00  0.00    +0.000 A 
ATOM     29  C   LIG    1       -6.882   6.880   0.626  0.00  0.00    +0.000 A 
ATOM     30  C   LIG    1       -6.808   5.925  -0.370  0.00  0.00    +0.000 A 
ATOM     31  C   LIG    1       -6.674   4.589  -0.038  0.00  0.00    +0.000 A 
ENDBRANCH  25  26
ENDBRANCH  21  25
ENDBRANCH  20  21
ENDBRANCH   1  20
TORSDOF 7
