REMARK  Name = ZINCqH0000037xyJ.0
REMARK                            x       y       z     vdW  Elec       q    Type
REMARK                         _______ _______ _______ _____ _____    ______ ____
ROOT
ATOM      1  C   LIG    1       -1.546  -2.952   0.531  0.00  0.00    +0.100 C 
ATOM      2  C   LIG    1       -0.520  -2.204  -0.323  0.00  0.00    +0.170 C 
ATOM      3  N   LIG    1        0.757  -2.065   0.399  0.00  0.00    -0.720 N 
ATOM      4  H   LIG    1        1.328  -2.785   0.711  0.00  0.00    +0.440 HD
ATOM      5  C   LIG    1        0.979  -0.745   0.537  0.00  0.00    +0.710 C 
ATOM      6  N   LIG    1        0.002  -0.004   0.002  0.00  0.00    -0.570 N 
ATOM      7  O   LIG    1        1.956  -0.279   1.089  0.00  0.00    -0.540 OA
ATOM      8  C   LIG    1       -0.958  -0.771  -0.550  0.00  0.00    +0.540 C 
ATOM      9  O   LIG    1       -1.964  -0.394  -1.113  0.00  0.00    -0.440 OA
ENDROOT
BRANCH   2  10
ATOM     10  C   LIG    1       -0.311  -2.910  -1.638  0.00  0.00    -0.100 A 
ATOM     11  C   LIG    1       -1.058  -2.548  -2.743  0.00  0.00    +0.030 A 
ATOM     12  C   LIG    1       -0.863  -3.192  -3.950  0.00  0.00    +0.020 A 
ATOM     13  C   LIG    1        0.072  -4.206  -4.050  0.00  0.00    +0.020 A 
ATOM     14  C   LIG    1        0.815  -4.571  -2.943  0.00  0.00    +0.010 A 
ATOM     15  C   LIG    1        0.624  -3.924  -1.737  0.00  0.00    +0.020 A 
ENDBRANCH   2  10
BRANCH   6  16
ATOM     16  C   LIG    1       -0.018   1.461   0.010  0.00  0.00    +0.430 C 
BRANCH  16  17
ATOM     17  C   LIG    1       -0.723   1.947   1.250  0.00  0.00    +0.040 A 
ATOM     18  C   LIG    1       -0.058   2.280   2.361  0.00  0.00    -0.030 A 
ATOM     19  S   LIG    1       -1.230   2.793   3.573  0.00  0.00    +0.100 S 
ATOM     20  C   LIG    1       -2.536   2.498   2.427  0.00  0.00    +0.120 A 
ATOM     21  N   LIG    1       -2.029   2.075   1.304  0.00  0.00    -0.450 NA
BRANCH  20  22
ATOM     22  C   LIG    1       -3.975   2.705   2.694  0.00  0.00    -0.030 A 
ATOM     23  C   LIG    1       -4.918   2.442   1.699  0.00  0.00    +0.070 A 
ATOM     24  C   LIG    1       -6.260   2.633   1.956  0.00  0.00    +0.010 A 
ATOM     25  C   LIG    1       -6.671   3.094   3.194  0.00  0.00    +0.030 A 
ATOM     26  C   LIG    1       -5.741   3.362   4.183  0.00  0.00    +0.010 A 
ATOM     27  C   LIG    1       -4.397   3.170   3.940  0.00  0.00    +0.020 A 
ENDBRANCH  20  22
ENDBRANCH  16  17
ENDBRANCH   6  16
TORSDOF 4
