REMARK  Name = ZINCrg00001Jdv0Q.2
REMARK                            x       y       z     vdW  Elec       q    Type
REMARK                         _______ _______ _______ _____ _____    ______ ____
ROOT
ATOM      1  C   LIG    1        4.018  -0.490   0.072  0.00  0.00    +0.240 C 
ATOM      2  C   LIG    1        4.676  -0.563   1.476  0.00  0.00    +0.030 C 
ATOM      3  C   LIG    1        4.119  -1.905   2.013  0.00  0.00    +0.160 C 
ATOM      4  N   LIG    1        4.077  -2.797   0.834  0.00  0.00    -0.510 NA
ATOM      5  C   LIG    1        2.938  -3.721   0.912  0.00  0.00    +0.200 C 
ATOM      6  C   LIG    1        3.999  -1.964  -0.378  0.00  0.00    +0.100 C 
ATOM      7  C   LIG    1        5.202  -2.239  -1.280  0.00  0.00    +0.040 C 
ATOM      8  C   LIG    1        5.141  -3.687  -1.774  0.00  0.00    +0.050 C 
ATOM      9  C   LIG    1        3.814  -3.916  -2.502  0.00  0.00    +0.170 C 
ATOM     10  N   LIG    1        2.698  -3.652  -1.584  0.00  0.00    -0.510 NA
ATOM     11  C   LIG    1        2.703  -2.254  -1.131  0.00  0.00    +0.170 C 
ENDROOT
BRANCH   1  13
ATOM     12  C   LIG    1        2.384   1.282  -0.285  0.00  0.00    +0.580 C 
ATOM     13  N   LIG    1        2.656   0.040   0.165  0.00  0.00    -0.720 N 
ATOM     14  H   LIG    1        1.949  -0.501   0.550  0.00  0.00    +0.400 HD
ATOM     15  O   LIG    1        3.270   1.961  -0.767  0.00  0.00    -0.530 OA
BRANCH  12  21
ATOM     16  C   LIG    1        1.613   4.103  -1.270  0.00  0.00    +0.120 C 
ATOM     17  C   LIG    1        0.641   3.133  -0.649  0.00  0.00    -0.050 A 
ATOM     18  C   LIG    1       -0.646   3.402  -0.466  0.00  0.00    -0.070 A 
ATOM     19  S   LIG    1       -1.462   2.036   0.276  0.00  0.00    +0.200 S 
ATOM     20  C   LIG    1       -0.027   1.117   0.334  0.00  0.00    -0.040 A 
ATOM     21  C   LIG    1        1.016   1.815  -0.192  0.00  0.00    -0.150 A 
ENDBRANCH  12  21
ENDBRANCH   1  13
BRANCH  10  22
ATOM     22  C   LIG    1        1.413  -4.000  -2.204  0.00  0.00    +0.360 C 
BRANCH  22  23
ATOM     23  C   LIG    1        1.148  -3.077  -3.365  0.00  0.00    +0.130 A 
ATOM     24  N   LIG    1        0.513  -1.931  -3.321  0.00  0.00    -0.300 NA
ATOM     25  N   LIG    1        0.496  -1.442  -4.514  0.00  0.00    -0.140 N 
ATOM     26  N   LIG    1        1.097  -2.256  -5.311  0.00  0.00    -0.060 NA
ATOM     27  C   LIG    1       -0.114  -0.168  -4.901  0.00  0.00    +0.410 C 
ATOM     28  N   LIG    1        1.509  -3.272  -4.633  0.00  0.00    -0.280 NA
ENDBRANCH  22  23
ENDBRANCH  10  22
TORSDOF 4
