REMARK  Name = ZINCqH0000000oBE.0
REMARK                            x       y       z     vdW  Elec       q    Type
REMARK                         _______ _______ _______ _____ _____    ______ ____
ROOT
ATOM      1  C   LIG    1       -1.290   1.681   0.017  0.00  0.00    +0.280 C 
ATOM      2  C   LIG    1       -1.680   2.047  -1.416  0.00  0.00    +0.040 C 
ENDROOT
BRANCH   1   3
ATOM      3  C   LIG    1       -2.354   0.799   0.618  0.00  0.00    -0.090 A 
ATOM      4  C   LIG    1       -2.385  -0.549   0.312  0.00  0.00    +0.010 A 
ATOM      5  C   LIG    1       -3.355  -1.363   0.863  0.00  0.00    +0.030 A 
ATOM      6  C   LIG    1       -4.309  -0.821   1.721  0.00  0.00    -0.040 A 
ATOM      7  C   LIG    1       -4.276   0.539   2.022  0.00  0.00    +0.020 A 
ATOM      8  C   LIG    1       -3.299   1.342   1.469  0.00  0.00    +0.030 A 
BRANCH   6   9
ATOM      9  C   LIG    1       -5.358  -1.689   2.312  0.00  0.00    -0.050 A 
ATOM     10  C   LIG    1       -6.309  -1.148   3.174  0.00  0.00    +0.020 A 
ATOM     11  C   LIG    1       -7.285  -1.959   3.717  0.00  0.00    +0.010 A 
ATOM     12  C   LIG    1       -7.313  -3.309   3.414  0.00  0.00    +0.000 A 
ATOM     13  C   LIG    1       -6.368  -3.852   2.563  0.00  0.00    +0.010 A 
ATOM     14  C   LIG    1       -5.391  -3.049   2.011  0.00  0.00    +0.020 A 
ENDBRANCH   6   9
ENDBRANCH   1   3
BRANCH   1  16
ATOM     15  C   LIG    1        1.147   1.655   0.000  0.00  0.00    +0.520 C 
ATOM     16  N   LIG    1       -0.011   0.966   0.007  0.00  0.00    -0.720 N 
ATOM     17  H   LIG    1        0.002  -0.004   0.002  0.00  0.00    +0.400 HD
ATOM     18  O   LIG    1        1.130   2.868   0.007  0.00  0.00    -0.530 OA
BRANCH  15  25
ATOM     19  C   LIG    1        5.427  -2.519   1.409  0.00  0.00    +0.100 C 
ATOM     20  C   LIG    1        4.049  -1.910   1.374  0.00  0.00    +0.510 C 
ATOM     21  N   LIG    1        3.905  -0.575   1.264  0.00  0.00    -0.610 N 
ATOM     22  C   LIG    1        5.081   0.300   1.176  0.00  0.00    +0.260 C 
ATOM     23  C   LIG    1        4.948   1.184  -0.068  0.00  0.00    +0.010 C 
ATOM     24  C   LIG    1        3.612   1.929  -0.018  0.00  0.00    +0.050 C 
ATOM     25  C   LIG    1        2.462   0.920  -0.017  0.00  0.00    -0.020 C 
ATOM     26  C   LIG    1        2.568   0.033   1.228  0.00  0.00    +0.290 C 
ATOM     27  O   LIG    1        3.069  -2.622   1.445  0.00  0.00    -0.540 OA
ENDBRANCH  15  25
ENDBRANCH   1  16
TORSDOF 4
