REMARK  Name = ZINCvU0000000C5o.0
REMARK                            x       y       z     vdW  Elec       q    Type
REMARK                         _______ _______ _______ _____ _____    ______ ____
ROOT
ATOM      1  N   LIG    1        5.348   1.642   0.012  0.00  0.00    -0.410 N 
ATOM      2  C   LIG    1        4.017   1.959   0.012  0.00  0.00    +0.150 A 
ATOM      3  N   LIG    1        3.929   3.270   0.024  0.00  0.00    -0.290 NA
ATOM      4  N   LIG    1        5.103   3.792   0.025  0.00  0.00    -0.260 NA
ATOM      5  C   LIG    1        6.015   2.848   0.015  0.00  0.00    +0.240 A 
ENDROOT
BRANCH   1  12
ATOM      6  C   LIG    1        5.889   0.399   2.514  0.00  0.00    +0.100 C 
ATOM      7  C   LIG    1        6.194  -0.282   1.205  0.00  0.00    -0.050 A 
ATOM      8  C   LIG    1        6.751  -1.546   1.196  0.00  0.00    +0.030 A 
ATOM      9  C   LIG    1        7.031  -2.171  -0.005  0.00  0.00    +0.050 A 
ATOM     10  C   LIG    1        6.753  -1.534  -1.200  0.00  0.00    +0.030 A 
ATOM     11  C   LIG    1        6.191  -0.273  -1.198  0.00  0.00    +0.040 A 
ATOM     12  C   LIG    1        5.914   0.360   0.006  0.00  0.00    +0.080 A 
ENDBRANCH   1  12
BRANCH   5  13
ATOM     13  C   LIG    1        7.481   3.041   0.013  0.00  0.00    -0.080 A 
ATOM     14  C   LIG    1        8.035   4.285   0.335  0.00  0.00    +0.120 A 
ATOM     15  C   LIG    1        9.412   4.414   0.320  0.00  0.00    -0.020 A 
ATOM     16  C   LIG    1       10.191   3.319  -0.010  0.00  0.00    +0.270 A 
ATOM     17  N   LIG    1        9.641   2.158  -0.309  0.00  0.00    -0.480 NA
ATOM     18  C   LIG    1        8.335   1.984  -0.303  0.00  0.00    +0.280 A 
ENDBRANCH   5  13
BRANCH   2  19
ATOM     19  S   LIG    1        2.671   0.821   0.005  0.00  0.00    +0.100 S 
BRANCH  19  20
ATOM     20  C   LIG    1        1.280   1.979   0.019  0.00  0.00    +0.110 C 
BRANCH  20  21
ATOM     21  C   LIG    1       -0.015   1.208   0.015  0.00  0.00    +0.540 C 
ATOM     22  N   LIG    1       -1.191   1.867   0.018  0.00  0.00    -0.660 N 
ATOM     23  H   LIG    1       -1.205   2.834   0.092  0.00  0.00    +0.420 HD
ATOM     24  O   LIG    1        0.001  -0.005   0.005  0.00  0.00    -0.500 OA
BRANCH  22  25
ATOM     25  C   LIG    1       -2.392   1.155  -0.086  0.00  0.00    +0.170 A 
ATOM     26  C   LIG    1       -2.510  -0.099   0.499  0.00  0.00    +0.050 A 
ATOM     27  C   LIG    1       -3.698  -0.797   0.400  0.00  0.00    +0.070 A 
ATOM     28  C   LIG    1       -4.765  -0.254  -0.291  0.00  0.00    +0.040 A 
ATOM     29  C   LIG    1       -4.650   0.993  -0.880  0.00  0.00    -0.010 A 
ATOM     30 CL   LIG    1       -5.993   1.670  -1.747  0.00  0.00    -0.040 Cl
ATOM     31  C   LIG    1       -3.466   1.699  -0.780  0.00  0.00    -0.060 A 
ATOM     32 CL   LIG    1       -3.321   3.263  -1.519  0.00  0.00    -0.040 Cl
ENDBRANCH  22  25
ENDBRANCH  20  21
ENDBRANCH  19  20
ENDBRANCH   2  19
TORSDOF 6
