REMARK  Name = ZINCnE00000rhoad.0
REMARK                            x       y       z     vdW  Elec       q    Type
REMARK                         _______ _______ _______ _____ _____    ______ ____
ROOT
ATOM      1  C   LIG    1        0.774   4.030  -0.399  0.00  0.00    +0.100 C 
ATOM      2  C   LIG    1        2.006   4.526  -0.288  0.00  0.00    +0.040 C 
ENDROOT
BRANCH   1   4
ATOM      3  N   LIG    1       -0.602   2.212  -0.638  0.00  0.00    -0.180 NA
ATOM      4  N   LIG    1        0.590   2.692  -0.531  0.00  0.00    -0.260 NA
BRANCH   3   9
ATOM      5  C   LIG    1       -2.254  -1.033  -1.022  0.00  0.00    -0.150 A 
ATOM      6  C   LIG    1       -1.142  -1.881  -1.040  0.00  0.00    +0.090 A 
ATOM      7  C   LIG    1        0.131  -1.358  -0.924  0.00  0.00    -0.030 A 
ATOM      8  C   LIG    1        0.316   0.004  -0.797  0.00  0.00    +0.040 A 
ATOM      9  C   LIG    1       -0.787   0.864  -0.771  0.00  0.00    +0.010 A 
ATOM     10  C   LIG    1       -2.076   0.343  -0.887  0.00  0.00    +0.130 A 
BRANCH   5  12
ATOM     11  O   LIG    1       -4.585  -0.852  -1.130  0.00  0.00    -0.680 OA
ATOM     12  C   LIG    1       -3.614  -1.594  -1.145  0.00  0.00    +0.520 C 
ATOM     13  O   LIG    1       -3.768  -2.801  -1.264  0.00  0.00    -0.680 OA
ENDBRANCH   5  12
ENDBRANCH   3   9
ENDBRANCH   1   4
BRANCH   2  14
ATOM     14  C   LIG    1        2.210   6.012  -0.142  0.00  0.00    +0.150 C 
BRANCH  14  15
ATOM     15  C   LIG    1        3.023   6.288   1.097  0.00  0.00    -0.010 A 
ATOM     16  C   LIG    1        2.396   6.699   2.257  0.00  0.00    +0.030 A 
ATOM     17  C   LIG    1        3.141   6.952   3.394  0.00  0.00    +0.080 A 
ATOM     18  C   LIG    1        4.514   6.794   3.369  0.00  0.00    +0.030 A 
ATOM     19  C   LIG    1        5.142   6.383   2.208  0.00  0.00    +0.100 A 
ATOM     20  C   LIG    1        4.396   6.124   1.073  0.00  0.00    -0.040 A 
BRANCH  20  21
ATOM     21  N   LIG    1        5.067   5.678  -0.168  0.00  0.00    +0.030 N 
ATOM     22  O   LIG    1        4.403   5.350  -1.135  0.00  0.00    -0.150 OA
ATOM     23  O   LIG    1        6.283   5.639  -0.223  0.00  0.00    -0.170 OA
ENDBRANCH  20  21
ENDBRANCH  14  15
ENDBRANCH   2  14
TORSDOF 6
