REMARK  Name = ZINCrD000000CEap.0
REMARK                            x       y       z     vdW  Elec       q    Type
REMARK                         _______ _______ _______ _____ _____    ______ ____
ROOT
ATOM      1  O   LIG    1        2.508  -1.537   2.871  0.00  0.00    -0.500 OA
ATOM      2  C   LIG    1        2.748  -0.385   2.567  0.00  0.00    +0.550 C 
ATOM      3  N   LIG    1        2.114   0.183   1.522  0.00  0.00    -0.600 N 
ATOM      4  C   LIG    1        2.405   1.569   1.133  0.00  0.00    +0.260 C 
ATOM      5  C   LIG    1        2.773   1.596  -0.354  0.00  0.00    +0.010 C 
ATOM      6  C   LIG    1        1.654   0.938  -1.165  0.00  0.00    +0.020 C 
ATOM      7  C   LIG    1        1.500  -0.522  -0.732  0.00  0.00    +0.020 C 
ATOM      8  C   LIG    1        1.117  -0.573   0.751  0.00  0.00    +0.270 C 
ENDROOT
BRANCH   8   9
ATOM      9  C   LIG    1        1.098  -2.006   1.218  0.00  0.00    -0.050 A 
ATOM     10  C   LIG    1        2.134  -2.857   0.879  0.00  0.00    +0.040 A 
ATOM     11  C   LIG    1        2.120  -4.169   1.311  0.00  0.00    -0.020 A 
ATOM     12  C   LIG    1        1.061  -4.636   2.076  0.00  0.00    +0.100 A 
ATOM     13  C   LIG    1        0.021  -3.781   2.410  0.00  0.00    -0.020 A 
ATOM     14  C   LIG    1        0.041  -2.469   1.980  0.00  0.00    +0.020 A 
BRANCH  12  15
ATOM     15  O   LIG    1        1.043  -5.927   2.498  0.00  0.00    -0.500 OA
ATOM     16  H   LIG    1        0.610  -6.535   1.884  0.00  0.00    +0.390 HD
ENDBRANCH  12  15
ENDBRANCH   8   9
BRANCH   2  17
ATOM     17  C   LIG    1        3.736   0.394   3.344  0.00  0.00    -0.130 A 
ATOM     18  C   LIG    1        3.578   1.772   3.496  0.00  0.00    +0.050 A 
ATOM     19  C   LIG    1        4.504   2.493   4.223  0.00  0.00    +0.000 A 
ATOM     20  C   LIG    1        5.585   1.853   4.800  0.00  0.00    +0.070 A 
ATOM     21  C   LIG    1        5.748   0.486   4.653  0.00  0.00    -0.120 A 
ATOM     22  C   LIG    1        4.827  -0.247   3.933  0.00  0.00    +0.090 A 
BRANCH  21  23
ATOM     23  C   LIG    1        6.929  -0.203   5.284  0.00  0.00    +0.380 C 
BRANCH  23  24
ATOM     24  N   LIG    1        6.575  -0.638   6.638  0.00  0.00    -0.380 N 
ATOM     25  C   LIG    1        6.662  -1.885   7.133  0.00  0.00    +0.480 A 
ATOM     26  N   LIG    1        6.255  -1.858   8.375  0.00  0.00    -0.540 NA
ATOM     27  C   LIG    1        5.893  -0.619   8.706  0.00  0.00    +0.420 A 
ATOM     28  N   LIG    1        6.071   0.165   7.675  0.00  0.00    -0.310 NA
ENDBRANCH  23  24
ENDBRANCH  21  23
ENDBRANCH   2  17
TORSDOF 5
