REMARK  Name = ZINCvU0000000Imb.0
REMARK                            x       y       z     vdW  Elec       q    Type
REMARK                         _______ _______ _______ _____ _____    ______ ____
ROOT
ATOM      1  C   LIG    1        3.210  -1.591  -0.309  0.00  0.00    +0.300 C 
ATOM      2  C   LIG    1        3.264  -2.233  -1.697  0.00  0.00    +0.060 C 
ENDROOT
BRANCH   1   3
ATOM      3  C   LIG    1        3.137  -2.670   0.741  0.00  0.00    -0.090 A 
ATOM      4  C   LIG    1        2.500  -2.420   1.943  0.00  0.00    +0.040 A 
ATOM      5  C   LIG    1        2.428  -3.408   2.905  0.00  0.00    +0.020 A 
ATOM      6  C   LIG    1        3.003  -4.650   2.668  0.00  0.00    +0.130 A 
ATOM      7  C   LIG    1        3.646  -4.895   1.462  0.00  0.00    +0.020 A 
ATOM      8  C   LIG    1        3.711  -3.905   0.502  0.00  0.00    +0.050 A 
BRANCH   6   9
ATOM      9  N   LIG    1        2.936  -5.652   3.645  0.00  0.00    -0.450 N 
ATOM     10  C   LIG    1        2.531  -6.940   3.455  0.00  0.00    +0.490 A 
ATOM     11  N   LIG    1        2.594  -7.597   4.576  0.00  0.00    -0.490 NA
ATOM     12  C   LIG    1        3.042  -6.779   5.563  0.00  0.00    +0.050 A 
ATOM     13  C   LIG    1        3.292  -6.961   6.925  0.00  0.00    +0.070 A 
ATOM     14  C   LIG    1        3.767  -5.912   7.679  0.00  0.00    +0.000 A 
ATOM     15  C   LIG    1        3.990  -4.672   7.099  0.00  0.00    +0.030 A 
ATOM     16  C   LIG    1        3.745  -4.473   5.757  0.00  0.00    +0.010 A 
ATOM     17  C   LIG    1        3.272  -5.521   4.980  0.00  0.00    +0.050 A 
ENDBRANCH   6   9
ENDBRANCH   1   3
BRANCH   1  19
ATOM     18  C   LIG    1        2.166   0.595  -0.046  0.00  0.00    +0.560 C 
ATOM     19  N   LIG    1        2.025  -0.735  -0.214  0.00  0.00    -0.600 N 
ATOM     20  C   LIG    1        0.686  -1.325  -0.300  0.00  0.00    +0.290 C 
ATOM     21  O   LIG    1        3.275   1.093  -0.043  0.00  0.00    -0.510 OA
BRANCH  18  25
ATOM     22  C   LIG    1       -0.073   4.482   2.139  0.00  0.00    +0.130 C 
ATOM     23  C   LIG    1       -0.110   3.318   1.183  0.00  0.00    -0.020 A 
ATOM     24  C   LIG    1        1.008   2.526   1.020  0.00  0.00    +0.090 A 
ATOM     25  C   LIG    1        0.972   1.448   0.133  0.00  0.00    -0.070 A 
ATOM     26  C   LIG    1       -0.195   1.181  -0.584  0.00  0.00    +0.050 A 
ATOM     27  C   LIG    1       -1.304   1.984  -0.416  0.00  0.00    +0.110 A 
ATOM     28  C   LIG    1       -1.264   3.047   0.468  0.00  0.00    -0.030 A 
BRANCH  28  29
ATOM     29  N   LIG    1       -2.459   3.902   0.648  0.00  0.00    +0.030 N 
ATOM     30  O   LIG    1       -2.390   4.909   1.329  0.00  0.00    -0.150 OA
ATOM     31  O   LIG    1       -3.510   3.598   0.114  0.00  0.00    -0.160 OA
ENDBRANCH  28  29
ENDBRANCH  18  25
ENDBRANCH   1  19
TORSDOF 5
