REMARK  Name = ZINCpk000005BXpx.1
REMARK                            x       y       z     vdW  Elec       q    Type
REMARK                         _______ _______ _______ _____ _____    ______ ____
ROOT
ATOM      1  N   LIG    1        1.202   6.691   0.024  0.00  0.00    -0.690 N 
ATOM      2  H   LIG    1        0.692   7.516   0.033  0.00  0.00    +0.420 HD
ENDROOT
BRANCH   1   3
ATOM      3  C   LIG    1        0.545   5.471   0.024  0.00  0.00    +0.590 A 
ATOM      4  N   LIG    1       -0.782   5.457   0.036  0.00  0.00    -0.520 NA
ATOM      5  C   LIG    1       -1.455   4.319   0.037  0.00  0.00    +0.200 A 
ATOM      6  C   LIG    1       -0.744   3.119   0.025  0.00  0.00    -0.070 A 
ATOM      7  N   LIG    1       -1.089   1.807   0.017  0.00  0.00    -0.460 NA
ATOM      8  C   LIG    1       -0.013   1.076   0.008  0.00  0.00    +0.530 A 
ATOM      9  N   LIG    1        1.094   1.872   0.002  0.00  0.00    -0.580 N 
ATOM     10  H   LIG    1        2.017   1.573  -0.009  0.00  0.00    +0.440 HD
ATOM     11  C   LIG    1        0.664   3.175   0.012  0.00  0.00    +0.330 A 
ATOM     12  N   LIG    1        1.262   4.359   0.012  0.00  0.00    -0.550 NA
BRANCH   5  13
ATOM     13  C   LIG    1       -2.962   4.319   0.052  0.00  0.00    +0.530 C 
ATOM     14  F   LIG    1       -3.435   3.180  -0.608  0.00  0.00    -0.150 F 
ATOM     15  F   LIG    1       -3.435   5.464  -0.598  0.00  0.00    -0.160 F 
ATOM     16  F   LIG    1       -3.416   4.313   1.375  0.00  0.00    -0.160 F 
ENDBRANCH   5  13
ENDBRANCH   1   3
BRANCH   1  18
ATOM     17  C   LIG    1        3.193   6.618   1.442  0.00  0.00    +0.040 C 
ATOM     18  C   LIG    1        2.666   6.735   0.010  0.00  0.00    +0.250 C 
BRANCH  18  19
ATOM     19  C   LIG    1        3.131   8.060  -0.597  0.00  0.00    +0.280 C 
BRANCH  19  20
ATOM     20  N   LIG    1        2.529   8.227  -1.923  0.00  0.00    -0.730 N 
ATOM     21  H   LIG    1        1.937   7.545  -2.276  0.00  0.00    +0.400 HD
ATOM     22  C   LIG    1        2.798   9.329  -2.651  0.00  0.00    +0.500 C 
ATOM     23  O   LIG    1        3.538  10.182  -2.209  0.00  0.00    -0.520 OA
BRANCH  22  24
ATOM     24  C   LIG    1        2.179   9.501  -4.014  0.00  0.00    +0.170 C 
ATOM     25  C   LIG    1        2.716   8.417  -4.973  0.00  0.00    +0.020 C 
ATOM     26  C   LIG    1        2.888   9.206  -6.300  0.00  0.00    +0.010 C 
ATOM     27  C   LIG    1        3.303  10.598  -5.762  0.00  0.00    +0.200 C 
ATOM     28  O   LIG    1        2.543  10.776  -4.556  0.00  0.00    -0.350 OA
ENDBRANCH  22  24
ENDBRANCH  19  20
ENDBRANCH  18  19
ENDBRANCH   1  18
TORSDOF 6
