REMARK  Name = ZINCpk000005BXpx.0
REMARK                            x       y       z     vdW  Elec       q    Type
REMARK                         _______ _______ _______ _____ _____    ______ ____
ROOT
ATOM      1  N   LIG    1       -1.569   6.582   0.052  0.00  0.00    -0.690 N 
ATOM      2  H   LIG    1       -1.123   7.443   0.053  0.00  0.00    +0.420 HD
ENDROOT
BRANCH   1   3
ATOM      3  C   LIG    1       -0.821   5.415   0.039  0.00  0.00    +0.580 A 
ATOM      4  N   LIG    1        0.503   5.502   0.026  0.00  0.00    -0.510 NA
ATOM      5  C   LIG    1        1.261   4.417   0.014  0.00  0.00    +0.170 A 
ATOM      6  C   LIG    1        0.648   3.174   0.013  0.00  0.00    -0.090 A 
ATOM      7  N   LIG    1        1.086   1.865   0.002  0.00  0.00    -0.580 N 
ATOM      8  H   LIG    1        2.009   1.566  -0.008  0.00  0.00    +0.430 HD
ATOM      9  C   LIG    1       -0.013   1.076   0.008  0.00  0.00    +0.570 A 
ATOM     10  N   LIG    1       -1.092   1.807   0.017  0.00  0.00    -0.490 NA
ATOM     11  C   LIG    1       -0.760   3.112   0.026  0.00  0.00    +0.360 A 
ATOM     12  N   LIG    1       -1.451   4.253   0.039  0.00  0.00    -0.510 NA
BRANCH   5  13
ATOM     13  C   LIG    1        2.764   4.530   0.001  0.00  0.00    +0.520 C 
ATOM     14  F   LIG    1        3.321   3.423   0.649  0.00  0.00    -0.170 F 
ATOM     15  F   LIG    1        3.149   5.701   0.663  0.00  0.00    -0.150 F 
ATOM     16  F   LIG    1        3.217   4.572  -1.323  0.00  0.00    -0.160 F 
ENDBRANCH   5  13
ENDBRANCH   1   3
BRANCH   1  18
ATOM     17  C   LIG    1       -3.549   6.373  -1.367  0.00  0.00    +0.040 C 
ATOM     18  C   LIG    1       -3.032   6.514   0.066  0.00  0.00    +0.250 C 
BRANCH  18  19
ATOM     19  C   LIG    1       -3.596   7.793   0.688  0.00  0.00    +0.280 C 
BRANCH  19  20
ATOM     20  N   LIG    1       -3.008   7.991   2.015  0.00  0.00    -0.730 N 
ATOM     21  H   LIG    1       -2.365   7.352   2.361  0.00  0.00    +0.400 HD
ATOM     22  C   LIG    1       -3.359   9.062   2.755  0.00  0.00    +0.500 C 
ATOM     23  O   LIG    1       -4.162   9.861   2.322  0.00  0.00    -0.520 OA
BRANCH  22  24
ATOM     24  C   LIG    1       -2.754   9.265   4.120  0.00  0.00    +0.180 C 
ATOM     25  C   LIG    1       -3.206   8.133   5.067  0.00  0.00    +0.020 C 
ATOM     26  C   LIG    1       -3.437   8.892   6.402  0.00  0.00    +0.010 C 
ATOM     27  C   LIG    1       -3.957  10.255   5.879  0.00  0.00    +0.200 C 
ATOM     28  O   LIG    1       -3.214  10.503   4.675  0.00  0.00    -0.350 OA
ENDBRANCH  22  24
ENDBRANCH  19  20
ENDBRANCH  18  19
ENDBRANCH   1  18
TORSDOF 6
