REMARK  Name = ZINCpk00000eaVva.0
REMARK                            x       y       z     vdW  Elec       q    Type
REMARK                         _______ _______ _______ _____ _____    ______ ____
ROOT
ATOM      1  C   LIG    1        3.582   5.711  -2.941  0.00  0.00    +0.570 C 
ATOM      2  O   LIG    1        3.046   6.349  -2.057  0.00  0.00    -0.470 OA
ENDROOT
BRANCH   1  10
ATOM      3  C   LIG    1        5.405  10.443  -5.254  0.00  0.00    +0.170 C 
ATOM      4  C   LIG    1        5.706   9.092  -5.850  0.00  0.00    +0.200 A 
ATOM      5  C   LIG    1        6.442   8.988  -6.985  0.00  0.00    -0.030 A 
ATOM      6  C   LIG    1        6.707   7.719  -7.517  0.00  0.00    +0.240 A 
ATOM      7  N   LIG    1        6.248   6.642  -6.923  0.00  0.00    -0.460 NA
ATOM      8  C   LIG    1        5.520   6.732  -5.802  0.00  0.00    +0.450 A 
ATOM      9  N   LIG    1        4.959   5.816  -5.026  0.00  0.00    -0.480 NA
ATOM     10  C   LIG    1        4.327   6.410  -4.011  0.00  0.00    +0.260 A 
ATOM     11  N   LIG    1        4.477   7.718  -4.108  0.00  0.00    -0.260 NA
ATOM     12  C   LIG    1        7.523   7.590  -8.777  0.00  0.00    +0.170 C 
ATOM     13  N   LIG    1        5.243   7.957  -5.257  0.00  0.00    -0.330 N 
ENDBRANCH   1  10
BRANCH   1  14
ATOM     14  O   LIG    1        3.497   4.367  -2.946  0.00  0.00    -0.300 OA
BRANCH  14  15
ATOM     15  C   LIG    1        2.750   3.748  -1.865  0.00  0.00    +0.270 C 
BRANCH  15  16
ATOM     16  C   LIG    1        2.764   2.251  -2.037  0.00  0.00    +0.520 C 
ATOM     17  N   LIG    1        2.130   1.465  -1.145  0.00  0.00    -0.610 N 
ATOM     18  C   LIG    1        2.135   0.004  -1.299  0.00  0.00    +0.290 C 
ATOM     19  C   LIG    1        0.688  -0.500  -1.273  0.00  0.00    -0.030 C 
ATOM     20  C   LIG    1        0.002  -0.004   0.002  0.00  0.00    +0.030 C 
ATOM     21  C   LIG    1       -0.019   1.526   0.010  0.00  0.00    -0.030 C 
ATOM     22  C   LIG    1       -0.734   2.020   1.270  0.00  0.00    +0.030 C 
ATOM     23  C   LIG    1        0.679  -2.029  -1.296  0.00  0.00    +0.030 C 
ATOM     24  C   LIG    1        1.420   2.052  -0.001  0.00  0.00    +0.260 C 
ATOM     25  O   LIG    1        3.347   1.754  -2.977  0.00  0.00    -0.510 OA
ENDBRANCH  15  16
ENDBRANCH  14  15
ENDBRANCH   1  14
TORSDOF 4
