REMARK  Name = ZINCrH000004rgrs.0
REMARK                            x       y       z     vdW  Elec       q    Type
REMARK                         _______ _______ _______ _____ _____    ______ ____
ROOT
ATOM      1  N   LIG    1       -0.818   3.255   2.121  0.00  0.00    -0.700 N 
ATOM      2  H   LIG    1       -0.288   3.870   1.591  0.00  0.00    +0.410 HD
ATOM      3  C   LIG    1       -0.677   3.227   3.461  0.00  0.00    +0.610 C 
ATOM      4  O   LIG    1       -1.341   2.456   4.126  0.00  0.00    -0.510 OA
ENDROOT
BRANCH   3   5
ATOM      5  C   LIG    1        0.282   4.133   4.121  0.00  0.00    -0.080 A 
ATOM      6  C   LIG    1        0.531   4.226   5.461  0.00  0.00    +0.050 A 
ATOM      7  C   LIG    1        1.528   5.237   5.551  0.00  0.00    +0.050 A 
ATOM      8  N   LIG    1        1.760   5.635   4.325  0.00  0.00    -0.320 NA
ATOM      9  O   LIG    1        1.081   5.037   3.523  0.00  0.00    +0.130 OA
BRANCH   7  10
ATOM     10  C   LIG    1        2.173   5.743   6.788  0.00  0.00    -0.040 A 
ATOM     11  C   LIG    1        3.135   6.748   6.714  0.00  0.00    +0.090 A 
ATOM     12  C   LIG    1        3.732   7.216   7.867  0.00  0.00    +0.040 A 
ATOM     13  C   LIG    1        3.377   6.691   9.096  0.00  0.00    +0.080 A 
ATOM     14  C   LIG    1        2.422   5.693   9.179  0.00  0.00    -0.070 A 
ATOM     15 CL   LIG    1        1.983   5.039  10.726  0.00  0.00    -0.040 Cl
ATOM     16  C   LIG    1        1.814   5.219   8.030  0.00  0.00    +0.130 A 
ATOM     17  F   LIG    1        0.878   4.248   8.111  0.00  0.00    -0.120 F 
ENDBRANCH   7  10
ENDBRANCH   3   5
BRANCH   1  18
ATOM     18  CA  LIG    1       -1.770   2.355   1.466  0.00  0.00    +0.260 C 
BRANCH  18  19
ATOM     19  C   LIG    1       -1.332   2.114   0.020  0.00  0.00    +0.100 C 
BRANCH  19  24
ATOM     20  C   LIG    1        3.711  -0.707  -0.039  0.00  0.00    +0.090 C 
ATOM     21  C   LIG    1        2.396   0.029  -0.022  0.00  0.00    -0.090 A 
ATOM     22  C   LIG    1        1.208  -0.679  -0.014  0.00  0.00    +0.000 A 
ATOM     23  C   LIG    1        0.002  -0.004   0.002  0.00  0.00    +0.010 A 
ATOM     24  C   LIG    1       -0.017   1.378   0.010  0.00  0.00    -0.090 A 
ATOM     25  C   LIG    1        1.171   2.086   0.002  0.00  0.00    +0.010 A 
ATOM     26  C   LIG    1        2.377   1.411  -0.014  0.00  0.00    +0.000 A 
ENDBRANCH  19  24
ENDBRANCH  18  19
BRANCH  18  27
ATOM     27  C   LIG    1       -3.162   2.990   1.478  0.00  0.00    +0.180 C 
BRANCH  27  28
ATOM     28  O   LIG    1       -3.152   4.175   0.680  0.00  0.00    -0.570 OA
ATOM     29  H   LIG    1       -4.004   4.631   0.642  0.00  0.00    +0.380 HD
ENDBRANCH  27  28
ENDBRANCH  18  27
ENDBRANCH   1  18
TORSDOF 7
