REMARK  Name = ZINCvU0000000JTl.0
REMARK                            x       y       z     vdW  Elec       q    Type
REMARK                         _______ _______ _______ _____ _____    ______ ____
ROOT
ATOM      1  C   LIG    1       -1.003   3.164  -0.020  0.00  0.00    -0.330 A 
ATOM      2  C   LIG    1       -1.181   1.801   0.014  0.00  0.00    +0.250 A 
ATOM      3  C   LIG    1       -0.013   1.077   0.045  0.00  0.00    +0.030 A 
ATOM      4  C   LIG    1        1.125   1.827   0.028  0.00  0.00    -0.100 A 
ATOM      5  S   LIG    1        0.716   3.535  -0.024  0.00  0.00    +0.240 S 
ENDROOT
BRANCH   4   6
ATOM      6  C   LIG    1        2.499   1.284   0.049  0.00  0.00    -0.020 A 
ATOM      7  C   LIG    1        2.707  -0.096   0.096  0.00  0.00    +0.060 A 
ATOM      8  C   LIG    1        3.992  -0.597   0.110  0.00  0.00    +0.050 A 
ATOM      9  C   LIG    1        5.074   0.266   0.089  0.00  0.00    -0.080 A 
ATOM     10  C   LIG    1        4.875   1.635   0.048  0.00  0.00    +0.050 A 
ATOM     11 BR   LIG    1        6.833  -0.429   0.117  0.00  0.00    -0.040 Br
ATOM     12  C   LIG    1        3.595   2.148   0.028  0.00  0.00    +0.030 A 
ENDBRANCH   4   6
BRANCH   2  13
ATOM     13  N   LIG    1       -2.442   1.203   0.020  0.00  0.00    -0.640 N 
ATOM     14  H   LIG    1       -3.238   1.751   0.102  0.00  0.00    +0.430 HD
ATOM     15  C   LIG    1       -2.553  -0.136  -0.088  0.00  0.00    +0.540 C 
ATOM     16  O   LIG    1       -1.557  -0.828  -0.097  0.00  0.00    -0.500 OA
BRANCH  15  17
ATOM     17  C   LIG    1       -3.914  -0.772  -0.199  0.00  0.00    +0.130 C 
BRANCH  17  18
ATOM     18  S   LIG    1       -3.732  -2.568  -0.329  0.00  0.00    +0.080 S 
BRANCH  18  19
ATOM     19  C   LIG    1       -5.426  -3.040  -0.441  0.00  0.00    +0.250 A 
ATOM     20  N   LIG    1       -6.441  -2.212  -0.424  0.00  0.00    -0.490 NA
ATOM     21  C   LIG    1       -7.602  -2.911  -0.530  0.00  0.00    +0.060 A 
ATOM     22  C   LIG    1       -8.947  -2.537  -0.563  0.00  0.00    +0.060 A 
ATOM     23  C   LIG    1       -9.923  -3.502  -0.681  0.00  0.00    +0.010 A 
ATOM     24  C   LIG    1       -9.580  -4.842  -0.769  0.00  0.00    +0.030 A 
ATOM     25  C   LIG    1       -8.255  -5.228  -0.739  0.00  0.00    +0.020 A 
ATOM     26  C   LIG    1       -7.260  -4.271  -0.619  0.00  0.00    +0.060 A 
ATOM     27  N   LIG    1       -5.877  -4.324  -0.566  0.00  0.00    -0.580 N 
ATOM     28  H   LIG    1       -5.330  -5.125  -0.607  0.00  0.00    +0.430 HD
ENDBRANCH  18  19
ENDBRANCH  17  18
ENDBRANCH  15  17
ENDBRANCH   2  13
BRANCH   1  29
ATOM     29  C   LIG    1       -2.043   4.121  -0.053  0.00  0.00    +0.550 C 
ATOM     30  O   LIG    1       -3.205   3.758  -0.048  0.00  0.00    -0.520 OA
BRANCH  29  31
ATOM     31  O   LIG    1       -1.748   5.438  -0.090  0.00  0.00    -0.350 OA
BRANCH  31  33
ATOM     32  C   LIG    1       -2.322   7.785  -0.162  0.00  0.00    +0.070 C 
ATOM     33  C   LIG    1       -2.849   6.349  -0.122  0.00  0.00    +0.200 C 
ENDBRANCH  31  33
ENDBRANCH  29  31
ENDBRANCH   1  29
TORSDOF 8
