REMARK  Name = ZINCtV000002L40A.1
REMARK                            x       y       z     vdW  Elec       q    Type
REMARK                         _______ _______ _______ _____ _____    ______ ____
ROOT
ATOM      1  N   LIG    1        1.284  -4.894  -0.036  0.00  0.00    -0.480 N 
ATOM      2  C   LIG    1        1.497  -5.593   1.238  0.00  0.00    +0.190 C 
ATOM      3  C   LIG    1        2.743  -6.476   1.134  0.00  0.00    +0.040 C 
ATOM      4  C   LIG    1        3.955  -5.603   0.800  0.00  0.00    +0.020 C 
ATOM      5  C   LIG    1        3.687  -4.849  -0.505  0.00  0.00    -0.010 C 
ATOM      6  C   LIG    1        2.414  -4.013  -0.354  0.00  0.00    +0.210 C 
ENDROOT
BRANCH   1  13
ATOM      7  C   LIG    1       -3.620  -6.113   0.128  0.00  0.00    -0.150 A 
ATOM      8  C   LIG    1       -3.583  -4.753   0.088  0.00  0.00    +0.120 A 
ATOM      9  C   LIG    1       -2.344  -4.090   0.044  0.00  0.00    +0.140 A 
ATOM     10  N   LIG    1       -2.278  -2.755   0.009  0.00  0.00    -0.480 NA
ATOM     11  C   LIG    1       -1.129  -2.122  -0.037  0.00  0.00    +0.320 A 
ATOM     12  C   LIG    1        0.081  -2.801  -0.054  0.00  0.00    -0.090 A 
ATOM     13  C   LIG    1        0.091  -4.187  -0.021  0.00  0.00    +0.170 A 
ATOM     14  C   LIG    1       -1.155  -4.857   0.030  0.00  0.00    -0.090 A 
ATOM     15  C   LIG    1       -1.230  -6.256   0.066  0.00  0.00    +0.070 A 
ATOM     16  C   LIG    1       -2.448  -6.865   0.115  0.00  0.00    +0.040 A 
BRANCH   7  18
ATOM     17  F   LIG    1       -4.747  -8.201   0.211  0.00  0.00    -0.170 F 
ATOM     18  C   LIG    1       -4.952  -6.817   0.182  0.00  0.00    +0.510 C 
ATOM     19  F   LIG    1       -5.703  -6.480  -0.949  0.00  0.00    -0.170 F 
ATOM     20  F   LIG    1       -5.641  -6.424   1.334  0.00  0.00    -0.170 F 
ENDBRANCH   7  18
ENDBRANCH   1  13
BRANCH   5  21
ATOM     21  C   LIG    1        4.869  -3.928  -0.815  0.00  0.00    +0.250 C 
BRANCH  21  22
ATOM     22  N   LIG    1        6.064  -4.736  -1.073  0.00  0.00    -0.740 N 
ATOM     23  H   LIG    1        6.013  -5.704  -1.030  0.00  0.00    +0.400 HD
BRANCH  22  24
ATOM     24  C   LIG    1        7.276  -4.113  -1.381  0.00  0.00    +0.220 A 
ATOM     25  C   LIG    1        7.348  -2.728  -1.448  0.00  0.00    -0.060 A 
ATOM     26  C   LIG    1        8.549  -2.114  -1.746  0.00  0.00    +0.070 A 
ATOM     27  C   LIG    1        9.677  -2.879  -1.990  0.00  0.00    -0.090 A 
ATOM     28  C   LIG    1        9.606  -4.259  -1.929  0.00  0.00    +0.070 A 
ATOM     29 CL   LIG    1       11.183  -2.104  -2.372  0.00  0.00    -0.080 Cl
ATOM     30  C   LIG    1        8.409  -4.878  -1.625  0.00  0.00    -0.050 A 
ENDBRANCH  22  24
ENDBRANCH  21  22
ENDBRANCH   5  21
TORSDOF 5
