REMARK  Name = ZINCtV00001bB3sk.0
REMARK                            x       y       z     vdW  Elec       q    Type
REMARK                         _______ _______ _______ _____ _____    ______ ____
ROOT
ATOM      1  C   LIG    1       -0.453   4.277   1.353  0.00  0.00    +0.150 C 
ATOM      2  C   LIG    1       -1.525   3.488   0.645  0.00  0.00    +0.170 A 
ATOM      3  C   LIG    1       -1.206   2.679  -0.407  0.00  0.00    -0.220 A 
ATOM      4  C   LIG    1       -2.290   1.937  -1.068  0.00  0.00    +0.520 A 
ATOM      5  N   LIG    1       -3.541   2.072  -0.610  0.00  0.00    -0.570 NA
ATOM      6  C   LIG    1       -3.804   2.867   0.411  0.00  0.00    +0.470 A 
ATOM      7  O   LIG    1       -2.052   1.205  -2.016  0.00  0.00    -0.490 OA
ATOM      8  N   LIG    1       -2.824   3.575   1.045  0.00  0.00    -0.460 N 
ENDROOT
BRANCH   3   9
ATOM      9  C   LIG    1        0.195   2.557  -0.875  0.00  0.00    -0.020 A 
ATOM     10  C   LIG    1        0.846   3.658  -1.429  0.00  0.00    +0.010 A 
ATOM     11  C   LIG    1        2.149   3.537  -1.869  0.00  0.00    +0.000 A 
ATOM     12  C   LIG    1        2.808   2.325  -1.760  0.00  0.00    +0.000 A 
ATOM     13  C   LIG    1        2.167   1.229  -1.211  0.00  0.00    +0.000 A 
ATOM     14  C   LIG    1        0.865   1.339  -0.768  0.00  0.00    +0.030 A 
ENDBRANCH   3   9
BRANCH   8  15
ATOM     15  C   LIG    1       -3.159   4.402   2.123  0.00  0.00    +0.090 A 
ATOM     16  C   LIG    1       -3.162   3.894   3.416  0.00  0.00    +0.030 A 
ATOM     17  C   LIG    1       -3.488   4.715   4.478  0.00  0.00    +0.030 A 
ATOM     18  C   LIG    1       -3.822   6.038   4.254  0.00  0.00    +0.030 A 
ATOM     19  C   LIG    1       -3.826   6.545   2.967  0.00  0.00    +0.030 A 
ATOM     20  C   LIG    1       -3.496   5.731   1.901  0.00  0.00    +0.030 A 
ENDBRANCH   8  15
BRANCH   6  21
ATOM     21  C   LIG    1       -5.186   2.991   0.877  0.00  0.00    -0.030 C 
ATOM     22  C   LIG    1       -6.160   2.257   0.302  0.00  0.00    +0.160 C 
BRANCH  22  23
ATOM     23  C   LIG    1       -7.549   2.382   0.771  0.00  0.00    -0.080 A 
ATOM     24  C   LIG    1       -7.862   3.258   1.816  0.00  0.00    +0.050 A 
ATOM     25  C   LIG    1       -9.166   3.374   2.246  0.00  0.00    +0.030 A 
ATOM     26  C   LIG    1      -10.165   2.618   1.653  0.00  0.00    -0.020 A 
ATOM     27  C   LIG    1       -9.861   1.745   0.622  0.00  0.00    +0.030 A 
ATOM     28 CL   LIG    1      -11.804   2.766   2.207  0.00  0.00    -0.060 Cl
ATOM     29  C   LIG    1       -8.562   1.622   0.177  0.00  0.00    +0.070 A 
ENDBRANCH  22  23
ENDBRANCH   6  21
TORSDOF 4
