REMARK  Name = ZINCb70000004HBR.1
REMARK                            x       y       z     vdW  Elec       q    Type
REMARK                         _______ _______ _______ _____ _____    ______ ____
ROOT
ATOM      1  C   LIG    1       -0.013   1.086   0.008  0.00  0.00    +0.180 C 
ATOM      2  C   LIG    1       -0.818   1.565   1.237  0.00  0.00    +0.190 C 
ATOM      3  S   LIG    1        0.531   1.925   2.438  0.00  0.00    -0.140 S 
ATOM      4  C   LIG    1        1.725   2.446   1.137  0.00  0.00    +0.360 C 
ATOM      5  N   LIG    1        1.362   1.574  -0.003  0.00  0.00    -0.500 N 
ATOM      6  H   LIG    1        1.510   2.090  -0.857  0.00  0.00    +0.440 HD
ATOM      7  H   LIG    1        1.982   0.778  -0.003  0.00  0.00    +0.440 HD
ENDROOT
BRANCH   1   9
ATOM      8  N   LIG    1       -1.982   1.202  -1.485  0.00  0.00    -0.580 N 
ATOM      9  C   LIG    1       -0.707   1.567  -1.240  0.00  0.00    +0.500 C 
ATOM     10  O   LIG    1       -0.119   2.281  -2.024  0.00  0.00    -0.520 OA
ATOM     11  C   LIG    1       -2.692   0.339  -0.538  0.00  0.00    +0.310 C 
BRANCH   8  13
ATOM     12  C   LIG    1       -2.422   0.668  -3.830  0.00  0.00    +0.030 C 
ATOM     13  C   LIG    1       -2.657   1.670  -2.698  0.00  0.00    +0.290 C 
ENDBRANCH   8  13
ENDBRANCH   1   9
TORSDOF 2
