REMARK  Name = ZINCtV00000L6jbT.0
REMARK                            x       y       z     vdW  Elec       q    Type
REMARK                         _______ _______ _______ _____ _____    ______ ____
ROOT
ATOM      1  C   LIG    1        5.869   2.358  -0.887  0.00  0.00    +0.110 C 
ATOM      2  C   LIG    1        4.934   1.726  -0.126  0.00  0.00    +0.030 C 
ENDROOT
BRANCH   2   3
ATOM      3  C   LIG    1        5.034   0.274   0.110  0.00  0.00    +0.150 A 
ATOM      4  N   LIG    1        4.085  -0.576  -0.107  0.00  0.00    -0.420 NA
ATOM      5  C   LIG    1        4.329  -1.871   0.154  0.00  0.00    +0.080 A 
ATOM      6  C   LIG    1        3.470  -2.982  -0.000  0.00  0.00    +0.090 A 
ATOM      7  C   LIG    1        3.894  -4.234   0.324  0.00  0.00    +0.030 A 
ATOM      8  C   LIG    1        5.176  -4.447   0.811  0.00  0.00    +0.050 A 
ATOM      9  C   LIG    1        6.036  -3.384   0.973  0.00  0.00    +0.050 A 
ATOM     10  C   LIG    1        5.621  -2.094   0.646  0.00  0.00    -0.160 A 
ATOM     11  S   LIG    1        6.459  -0.547   0.733  0.00  0.00    +0.080 S 
ENDBRANCH   2   3
BRANCH   2  12
ATOM     12  C   LIG    1        3.822   2.493   0.464  0.00  0.00    +0.140 A 
ATOM     13  N   LIG    1        2.886   1.990   1.199  0.00  0.00    -0.430 NA
ATOM     14  C   LIG    1        1.938   2.820   1.665  0.00  0.00    +0.080 A 
ATOM     15  C   LIG    1        0.823   2.521   2.479  0.00  0.00    +0.080 A 
ATOM     16  C   LIG    1       -0.044   3.502   2.852  0.00  0.00    +0.030 A 
ATOM     17  C   LIG    1        0.154   4.815   2.451  0.00  0.00    +0.050 A 
ATOM     18  C   LIG    1        1.232   5.138   1.657  0.00  0.00    +0.050 A 
ATOM     19  C   LIG    1        2.128   4.147   1.261  0.00  0.00    -0.170 A 
ATOM     20  S   LIG    1        3.580   4.223   0.266  0.00  0.00    +0.100 S 
ENDBRANCH   2  12
BRANCH   1  26
ATOM     21  C   LIG    1        8.068   2.101  -2.022  0.00  0.00    -0.030 A 
ATOM     22  C   LIG    1        8.950   1.355  -2.773  0.00  0.00    +0.110 A 
ATOM     23  C   LIG    1        8.595   0.091  -3.212  0.00  0.00    +0.050 A 
ATOM     24  C   LIG    1        7.355  -0.437  -2.896  0.00  0.00    +0.090 A 
ATOM     25  C   LIG    1        6.463   0.294  -2.140  0.00  0.00    +0.050 A 
ATOM     26  C   LIG    1        6.814   1.573  -1.693  0.00  0.00    -0.010 A 
BRANCH  21  28
ATOM     27  O   LIG    1        9.582   3.862  -1.732  0.00  0.00    -0.140 OA
ATOM     28  N   LIG    1        8.447   3.455  -1.559  0.00  0.00    +0.030 N 
ATOM     29  O   LIG    1        7.625   4.162  -1.004  0.00  0.00    -0.170 OA
ENDBRANCH  21  28
ENDBRANCH   1  26
TORSDOF 4
