REMARK  Name = ZINCrH000004tnFj.0
REMARK                            x       y       z     vdW  Elec       q    Type
REMARK                         _______ _______ _______ _____ _____    ______ ____
ROOT
ATOM      1  N   LIG    1       -2.345   0.934   0.018  0.00  0.00    -0.740 N 
ATOM      2  H   LIG    1       -2.332  -0.036   0.013  0.00  0.00    +0.400 HD
ATOM      3  C   LIG    1       -1.187   1.624   0.017  0.00  0.00    +0.710 C 
ATOM      4  N   LIG    1       -0.011   0.966   0.007  0.00  0.00    -0.710 N 
ATOM      5  H   LIG    1        0.002  -0.004   0.002  0.00  0.00    +0.400 HD
ATOM      6  O   LIG    1       -1.204   2.840   0.023  0.00  0.00    -0.580 OA
ENDROOT
BRANCH   4   7
ATOM      7  C   LIG    1        1.248   1.716  -0.001  0.00  0.00    +0.280 C 
ATOM      8  C   LIG    1        2.477   1.025  -0.594  0.00  0.00    -0.030 C 
ATOM      9  C   LIG    1        3.670   1.890  -1.024  0.00  0.00    +0.130 C 
ATOM     10  C   LIG    1        4.196   2.566   0.219  0.00  0.00    -0.070 A 
ATOM     11  C   LIG    1        5.254   3.450   0.366  0.00  0.00    +0.000 A 
ATOM     12  C   LIG    1        5.571   3.958   1.613  0.00  0.00    +0.100 A 
ATOM     13  C   LIG    1        4.828   3.581   2.719  0.00  0.00    -0.010 A 
ATOM     14  C   LIG    1        3.776   2.701   2.572  0.00  0.00    +0.060 A 
ATOM     15  F   LIG    1        6.602   4.820   1.751  0.00  0.00    -0.140 F 
ATOM     16  C   LIG    1        3.457   2.191   1.321  0.00  0.00    -0.080 A 
ATOM     17  C   LIG    1        2.366   1.228   0.922  0.00  0.00    -0.010 C 
ENDBRANCH   4   7
BRANCH   1  26
ATOM     18  C   LIG    1       -4.540   2.668   4.087  0.00  0.00    -0.020 A 
ATOM     19  C   LIG    1       -3.240   2.791   3.591  0.00  0.00    +0.050 A 
ATOM     20  C   LIG    1       -2.977   2.454   2.282  0.00  0.00    +0.040 A 
ATOM     21  C   LIG    1       -3.990   1.992   1.449  0.00  0.00    -0.070 A 
ATOM     22  C   LIG    1       -5.274   1.864   1.934  0.00  0.00    -0.070 A 
ATOM     23  C   LIG    1       -6.413   1.356   1.089  0.00  0.00    +0.080 C 
ATOM     24  C   LIG    1       -6.061   1.440  -0.395  0.00  0.00    +0.030 C 
ATOM     25  C   LIG    1       -4.698   0.769  -0.606  0.00  0.00    +0.020 C 
ATOM     26  C   LIG    1       -3.624   1.649   0.028  0.00  0.00    +0.310 C 
ATOM     27  C   LIG    1       -5.552   2.204   3.249  0.00  0.00    +0.050 A 
BRANCH  18  29
ATOM     28  N   LIG    1       -5.060   3.293   6.522  0.00  0.00    -0.410 NA
ATOM     29  C   LIG    1       -4.830   3.017   5.445  0.00  0.00    +0.250 C 
ENDBRANCH  18  29
ENDBRANCH   1  26
TORSDOF 3
