REMARK  Name = ZINCrD000000AfER.0
REMARK                            x       y       z     vdW  Elec       q    Type
REMARK                         _______ _______ _______ _____ _____    ______ ____
ROOT
ATOM      1  N   LIG    1        2.143   9.472   0.456  0.00  0.00    -0.730 N 
ATOM      2  H   LIG    1        1.276   9.907   0.466  0.00  0.00    +0.400 HD
ATOM      3  C   LIG    1        3.267  10.210   0.550  0.00  0.00    +0.560 C 
ATOM      4  O   LIG    1        4.354   9.666   0.538  0.00  0.00    -0.500 OA
ENDROOT
BRANCH   3   5
ATOM      5  C   LIG    1        3.178  11.677   0.668  0.00  0.00    -0.190 A 
ATOM      6  C   LIG    1        1.934  12.316   0.683  0.00  0.00    +0.120 A 
ATOM      7  C   LIG    1        1.905  13.695   0.795  0.00  0.00    -0.050 A 
ATOM      8  C   LIG    1        3.094  14.397   0.888  0.00  0.00    +0.310 A 
ATOM      9  N   LIG    1        4.257  13.777   0.872  0.00  0.00    -0.480 NA
ATOM     10  C   LIG    1        4.343  12.458   0.772  0.00  0.00    +0.150 A 
BRANCH  10  11
ATOM     11  S   LIG    1        5.924  11.681   0.763  0.00  0.00    +0.140 S 
BRANCH  11  12
ATOM     12  C   LIG    1        6.953  13.079   1.067  0.00  0.00    -0.170 A 
ATOM     13  C   LIG    1        7.536  13.758   0.004  0.00  0.00    +0.070 A 
ATOM     14  C   LIG    1        8.338  14.856   0.245  0.00  0.00    +0.000 A 
ATOM     15  C   LIG    1        8.570  15.273   1.544  0.00  0.00    +0.030 A 
ATOM     16  C   LIG    1        7.996  14.596   2.604  0.00  0.00    +0.000 A 
ATOM     17  C   LIG    1        7.188  13.501   2.370  0.00  0.00    +0.060 A 
ENDBRANCH  11  12
ENDBRANCH  10  11
ENDBRANCH   3   5
BRANCH   1  18
ATOM     18  C   LIG    1        2.231   8.015   0.339  0.00  0.00    +0.290 C 
BRANCH  18  19
ATOM     19  C   LIG    1        0.823   7.424   0.249  0.00  0.00    +0.060 C 
BRANCH  19  21
ATOM     20  O   LIG    1        1.998   5.382   0.117  0.00  0.00    -0.460 OA
ATOM     21  C   LIG    1        0.913   5.925   0.129  0.00  0.00    +0.510 C 
ATOM     22  N   LIG    1       -0.211   5.187   0.035  0.00  0.00    -0.660 N 
ATOM     23  H   LIG    1       -1.074   5.625  -0.030  0.00  0.00    +0.420 HD
BRANCH  22  24
ATOM     24  C   LIG    1       -0.133   3.795   0.031  0.00  0.00    +0.360 A 
ATOM     25  C   LIG    1       -1.300   3.040   0.041  0.00  0.00    -0.070 A 
ATOM     26  C   LIG    1       -1.208   1.659   0.037  0.00  0.00    +0.090 A 
ATOM     27  C   LIG    1        0.053   1.079   0.023  0.00  0.00    -0.060 A 
ATOM     28  C   LIG    1        1.171   1.891   0.019  0.00  0.00    +0.290 A 
ATOM     29  N   LIG    1        1.052   3.205   0.018  0.00  0.00    -0.480 NA
ENDBRANCH  22  24
ENDBRANCH  19  21
ENDBRANCH  18  19
ENDBRANCH   1  18
TORSDOF 7
