REMARK  Name = ZINCrH000004utIR.0
REMARK                            x       y       z     vdW  Elec       q    Type
REMARK                         _______ _______ _______ _____ _____    ______ ____
ROOT
ATOM      1  O   LIG    1       -3.189   1.217  -3.294  0.00  0.00    -0.540 OA
ATOM      2  C   LIG    1       -2.813   1.920  -2.380  0.00  0.00    +0.550 C 
ATOM      3  N   LIG    1       -2.154   1.375  -1.338  0.00  0.00    -0.710 N 
ATOM      4  H   LIG    1       -1.783   1.945  -0.647  0.00  0.00    +0.410 HD
ENDROOT
BRANCH   2   5
ATOM      5  C   LIG    1       -3.082   3.402  -2.409  0.00  0.00    -0.130 C 
ATOM      6  C   LIG    1       -3.324   4.050  -3.773  0.00  0.00    +0.090 C 
ATOM      7  C   LIG    1       -2.011   4.303  -3.028  0.00  0.00    +0.070 C 
BRANCH   5   8
ATOM      8  C   LIG    1       -3.853   3.946  -1.234  0.00  0.00    -0.010 A 
ATOM      9  C   LIG    1       -3.621   5.235  -0.791  0.00  0.00    +0.020 A 
ATOM     10  C   LIG    1       -4.332   5.735   0.284  0.00  0.00    +0.080 A 
ATOM     11  C   LIG    1       -5.268   4.943   0.922  0.00  0.00    -0.180 A 
ATOM     12  C   LIG    1       -5.496   3.652   0.483  0.00  0.00    +0.080 A 
ATOM     13  C   LIG    1       -4.788   3.154  -0.595  0.00  0.00    +0.020 A 
BRANCH  11  14
ATOM     14  C   LIG    1       -6.040   5.487   2.096  0.00  0.00    +0.510 C 
ATOM     15  F   LIG    1       -7.301   4.883   2.145  0.00  0.00    -0.180 F 
ATOM     16  F   LIG    1       -6.191   6.871   1.955  0.00  0.00    -0.180 F 
ATOM     17  F   LIG    1       -5.345   5.212   3.279  0.00  0.00    -0.180 F 
ENDBRANCH  11  14
ENDBRANCH   5   8
ENDBRANCH   2   5
BRANCH   3  18
ATOM     18  C   LIG    1       -1.997  -0.080  -1.250  0.00  0.00    +0.270 C 
BRANCH  18  19
ATOM     19  C   LIG    1       -1.217  -0.433   0.017  0.00  0.00    +0.040 C 
BRANCH  19  20
ATOM     20  C   LIG    1       -1.162  -1.931   0.172  0.00  0.00    -0.090 A 
ATOM     21  C   LIG    1       -0.578  -2.706  -0.812  0.00  0.00    +0.050 A 
ATOM     22  C   LIG    1       -0.522  -4.079  -0.669  0.00  0.00    -0.010 A 
ATOM     23  C   LIG    1       -1.061  -4.680   0.456  0.00  0.00    +0.100 A 
ATOM     24  C   LIG    1       -1.651  -3.903   1.439  0.00  0.00    -0.010 A 
ATOM     25  F   LIG    1       -1.011  -6.023   0.595  0.00  0.00    -0.140 F 
ATOM     26  C   LIG    1       -1.701  -2.530   1.296  0.00  0.00    +0.060 A 
ENDBRANCH  19  20
BRANCH  19  27
ATOM     27  C   LIG    1        0.205   0.122  -0.087  0.00  0.00    +0.180 C 
BRANCH  27  28
ATOM     28  O   LIG    1        0.158   1.550  -0.117  0.00  0.00    -0.570 OA
ATOM     29  H   LIG    1        1.027   1.970  -0.183  0.00  0.00    +0.390 HD
ENDBRANCH  27  28
ENDBRANCH  19  27
ENDBRANCH  18  19
ENDBRANCH   3  18
TORSDOF 8
