REMARK  Name = ZINCqH0000051qGj.0
REMARK                            x       y       z     vdW  Elec       q    Type
REMARK                         _______ _______ _______ _____ _____    ______ ____
ROOT
ATOM      1  O   LIG    1       -1.644   1.313  -0.713  0.00  0.00    -0.520 OA
ATOM      2  C   LIG    1       -1.898   0.714  -1.737  0.00  0.00    +0.530 C 
ATOM      3  N   LIG    1       -1.717  -0.620  -1.799  0.00  0.00    -0.730 N 
ATOM      4  H   LIG    1       -1.995  -1.110  -2.588  0.00  0.00    +0.400 HD
ENDROOT
BRANCH   3   5
ATOM      5  C   LIG    1       -1.102  -1.329  -0.675  0.00  0.00    +0.240 C 
ATOM      6  C   LIG    1       -1.556  -2.790  -0.685  0.00  0.00    +0.030 C 
ATOM      7  C   LIG    1       -1.161  -3.465   0.635  0.00  0.00    +0.150 C 
ATOM      8  C   LIG    1        0.302  -3.192   0.885  0.00  0.00    +0.080 A 
ATOM      9  N   LIG    1        1.107  -3.802   1.705  0.00  0.00    -0.290 NA
ATOM     10  N   LIG    1        2.374  -3.208   1.596  0.00  0.00    -0.480 N 
ATOM     11  H   LIG    1        3.168  -3.463   2.092  0.00  0.00    +0.440 HD
ATOM     12  C   LIG    1        2.293  -2.218   0.679  0.00  0.00    +0.250 A 
ATOM     13  C   LIG    1        1.027  -2.186   0.225  0.00  0.00    -0.230 A 
ATOM     14  C   LIG    1        0.425  -1.260  -0.804  0.00  0.00    +0.100 C 
ENDBRANCH   3   5
BRANCH   2  15
ATOM     15  C   LIG    1       -2.415   1.462  -2.939  0.00  0.00    -0.070 C 
ATOM     16  C   LIG    1       -2.696   2.915  -2.553  0.00  0.00    +0.050 C 
ATOM     17  C   LIG    1       -3.744   2.954  -1.439  0.00  0.00    +0.010 C 
ATOM     18  C   LIG    1       -5.036   2.298  -1.930  0.00  0.00    +0.000 C 
ATOM     19  C   LIG    1       -4.755   0.844  -2.316  0.00  0.00    +0.010 C 
ATOM     20  C   LIG    1       -3.707   0.805  -3.430  0.00  0.00    +0.040 C 
BRANCH  15  21
ATOM     21  C   LIG    1       -1.368   1.423  -4.053  0.00  0.00    +0.100 C 
BRANCH  21  22
ATOM     22  C   LIG    1       -0.141   2.182  -3.616  0.00  0.00    -0.050 A 
ATOM     23  C   LIG    1       -0.002   3.518  -3.946  0.00  0.00    +0.010 A 
ATOM     24  C   LIG    1        1.120   4.217  -3.541  0.00  0.00    +0.040 A 
ATOM     25  C   LIG    1        2.109   3.578  -2.817  0.00  0.00    -0.030 A 
ATOM     26  C   LIG    1        1.972   2.239  -2.491  0.00  0.00    +0.100 A 
ATOM     27  F   LIG    1        2.938   1.615  -1.782  0.00  0.00    -0.140 F 
ATOM     28  C   LIG    1        0.846   1.542  -2.892  0.00  0.00    -0.020 A 
ENDBRANCH  21  22
ENDBRANCH  15  21
ENDBRANCH   2  15
TORSDOF 4
