REMARK  Name = ZINCkj00000kIYvd.0
REMARK                            x       y       z     vdW  Elec       q    Type
REMARK                         _______ _______ _______ _____ _____    ______ ____
ROOT
ATOM      1  C   LIG    1        3.285  -2.441  -1.499  0.00  0.00    +0.250 C 
ATOM      2  C   LIG    1        4.586  -2.640  -0.719  0.00  0.00    +0.090 C 
ENDROOT
BRANCH   1   3
ATOM      3  C   LIG    1        2.119  -2.886  -0.653  0.00  0.00    +0.220 A 
ATOM      4  N   LIG    1        1.776  -4.120  -0.394  0.00  0.00    -0.300 NA
ATOM      5  N   LIG    1        0.732  -4.153   0.353  0.00  0.00    -0.030 NA
ATOM      6  N   LIG    1        0.341  -2.954   0.624  0.00  0.00    -0.060 NA
ATOM      7  N   LIG    1        1.236  -2.083  -0.021  0.00  0.00    -0.320 N 
BRANCH   7   8
ATOM      8  C   LIG    1        1.214  -0.680  -0.013  0.00  0.00    +0.110 A 
ATOM      9  C   LIG    1        0.002  -0.004   0.002  0.00  0.00    +0.050 A 
ATOM     10  C   LIG    1       -0.017   1.377   0.010  0.00  0.00    +0.040 A 
ATOM     11  C   LIG    1        1.171   2.086   0.002  0.00  0.00    +0.040 A 
ATOM     12  C   LIG    1        2.380   1.415  -0.013  0.00  0.00    +0.040 A 
ATOM     13  C   LIG    1        2.405   0.034  -0.021  0.00  0.00    +0.010 A 
ENDBRANCH   7   8
ENDBRANCH   1   3
BRANCH   1  14
ATOM     14  N   LIG    1        3.327  -3.238  -2.732  0.00  0.00    -0.660 NA
ATOM     15  H   LIG    1        2.399  -3.515  -3.016  0.00  0.00    +0.360 HD
BRANCH  14  16
ATOM     16  C   LIG    1        4.009  -2.507  -3.808  0.00  0.00    +0.190 C 
BRANCH  16  17
ATOM     17  C   LIG    1        4.033  -3.367  -5.074  0.00  0.00    +0.270 C 
BRANCH  17  18
ATOM     18  N   LIG    1        4.716  -2.636  -6.150  0.00  0.00    -0.510 N 
ATOM     19  H   LIG    1        5.662  -2.427  -5.867  0.00  0.00    +0.430 HD
ATOM     20  H   LIG    1        4.223  -1.775  -6.337  0.00  0.00    +0.430 HD
BRANCH  18  22
ATOM     21  C   LIG    1        5.337  -2.654  -8.518  0.00  0.00    +0.090 C 
ATOM     22  C   LIG    1        4.739  -3.461  -7.364  0.00  0.00    +0.170 C 
ATOM     23  C   LIG    1        5.591  -4.708  -7.118  0.00  0.00    +0.080 C 
ENDBRANCH  18  22
ENDBRANCH  17  18
ENDBRANCH  16  17
ENDBRANCH  14  16
ENDBRANCH   1  14
TORSDOF 7
