REMARK  Name = ZINCnE000001Twyv.1
REMARK                            x       y       z     vdW  Elec       q    Type
REMARK                         _______ _______ _______ _____ _____    ______ ____
ROOT
ATOM      1  O   LIG    1       -0.682   2.660  -3.115  0.00  0.00    -0.620 OA
ATOM      2  C   LIG    1       -0.078   2.260  -2.139  0.00  0.00    +0.660 C 
ATOM      3  N   LIG    1       -0.729   1.575  -1.178  0.00  0.00    -0.620 N 
ATOM      4  C   LIG    1       -0.013   1.086   0.008  0.00  0.00    +0.270 C 
ATOM      5  C   LIG    1       -0.736   1.583   1.264  0.00  0.00    +0.000 C 
ATOM      6  C   LIG    1       -2.208   1.161   1.197  0.00  0.00    +0.010 C 
ATOM      7  C   LIG    1       -2.869   1.797  -0.028  0.00  0.00    -0.030 C 
ATOM      8  C   LIG    1       -2.168   1.303  -1.297  0.00  0.00    +0.270 C 
ATOM      9  N   LIG    1        1.242   2.503  -2.017  0.00  0.00    -0.690 NA
ENDROOT
BRANCH   9  10
ATOM     10  C   LIG    1        1.913   3.209  -3.007  0.00  0.00    +0.360 A 
ATOM     11  N   LIG    1        1.363   3.678  -4.085  0.00  0.00    -0.570 NA
ATOM     12  C   LIG    1        2.144   4.325  -4.923  0.00  0.00    +0.280 A 
ATOM     13  C   LIG    1        3.432   4.409  -4.529  0.00  0.00    -0.330 A 
ATOM     14  S   LIG    1        3.579   3.590  -2.976  0.00  0.00    +0.040 S 
BRANCH  13  15
ATOM     15  C   LIG    1        4.525   5.074  -5.268  0.00  0.00    +0.060 A 
ATOM     16  C   LIG    1        4.269   5.689  -6.495  0.00  0.00    -0.020 A 
ATOM     17  C   LIG    1        5.293   6.313  -7.177  0.00  0.00    +0.010 A 
ATOM     18  C   LIG    1        6.573   6.322  -6.652  0.00  0.00    -0.050 A 
ATOM     19  C   LIG    1        6.835   5.710  -5.439  0.00  0.00    +0.010 A 
ATOM     20  C   LIG    1        5.819   5.087  -4.745  0.00  0.00    -0.020 A 
ENDBRANCH  13  15
ENDBRANCH   9  10
BRANCH   7  21
ATOM     21  C   LIG    1       -4.347   1.402  -0.075  0.00  0.00    +0.030 C 
BRANCH  21  22
ATOM     22  C   LIG    1       -5.034   2.135  -1.229  0.00  0.00    +0.170 C 
BRANCH  22  23
ATOM     23  O   LIG    1       -6.414   1.766  -1.272  0.00  0.00    -0.580 OA
ATOM     24  H   LIG    1       -6.913   2.194  -1.981  0.00  0.00    +0.380 HD
ENDBRANCH  22  23
ENDBRANCH  21  22
ENDBRANCH   7  21
TORSDOF 5
