REMARK  Name = ZINCqH0000000W9Z.0
REMARK                            x       y       z     vdW  Elec       q    Type
REMARK                         _______ _______ _______ _____ _____    ______ ____
ROOT
ATOM      1  S   LIG    1       -5.228   1.411  -0.570  0.00  0.00    +2.690 S 
ATOM      2  O   LIG    1       -5.766   2.720  -0.691  0.00  0.00    -0.920 OA
ATOM      3  O   LIG    1       -5.523   0.547   0.520  0.00  0.00    -0.920 OA
ENDROOT
BRANCH   1   4
ATOM      4  C   LIG    1       -5.692   0.544  -2.032  0.00  0.00    -0.630 A 
ATOM      5  C   LIG    1       -4.730  -0.099  -2.788  0.00  0.00    +0.140 A 
ATOM      6  C   LIG    1       -5.094  -0.779  -3.935  0.00  0.00    +0.070 A 
ATOM      7  C   LIG    1       -6.421  -0.816  -4.326  0.00  0.00    +0.010 A 
ATOM      8  C   LIG    1       -7.383  -0.172  -3.568  0.00  0.00    +0.080 A 
ATOM      9 CL   LIG    1       -6.878  -1.670  -5.767  0.00  0.00    -0.030 Cl
ATOM     10  C   LIG    1       -7.019   0.502  -2.418  0.00  0.00    -0.080 A 
BRANCH  10  11
ATOM     11  C   LIG    1       -8.067   1.199  -1.590  0.00  0.00    +0.480 C 
ATOM     12  F   LIG    1       -7.853   2.580  -1.632  0.00  0.00    -0.140 F 
ATOM     13  F   LIG    1       -7.986   0.754  -0.266  0.00  0.00    -0.160 F 
ATOM     14  F   LIG    1       -9.336   0.907  -2.102  0.00  0.00    -0.160 F 
ENDBRANCH  10  11
ENDBRANCH   1   4
BRANCH   1  18
ATOM     15  C   LIG    1       -1.347   1.544   0.269  0.00  0.00    +0.030 C 
ATOM     16  C   LIG    1       -1.339   2.409  -1.020  0.00  0.00    +0.070 C 
ATOM     17  C   LIG    1       -2.840   2.647  -1.286  0.00  0.00    +0.280 C 
ATOM     18  N   LIG    1       -3.580   1.577  -0.601  0.00  0.00    -1.010 NA
ATOM     19  C   LIG    1       -2.613   0.677   0.053  0.00  0.00    +0.320 C 
BRANCH  15  20
ATOM     20  C   LIG    1       -0.112   0.685   0.351  0.00  0.00    +0.480 C 
ATOM     21  O   LIG    1       -0.213  -0.519   0.365  0.00  0.00    -0.500 OA
BRANCH  20  22
ATOM     22  O   LIG    1        1.101   1.258   0.403  0.00  0.00    -0.350 OA
BRANCH  22  24
ATOM     23  C   LIG    1        2.271  -0.534  -0.760  0.00  0.00    +0.030 C 
ATOM     24  C   LIG    1        2.247   0.369   0.475  0.00  0.00    +0.120 C 
ATOM     25  C   LIG    1        2.145  -0.493   1.735  0.00  0.00    +0.020 C 
ATOM     26  C   LIG    1        3.532   1.197   0.526  0.00  0.00    +0.080 C 
ENDBRANCH  22  24
ENDBRANCH  20  22
ENDBRANCH  15  20
ENDBRANCH   1  18
TORSDOF 6
