REMARK  Name = ZINCqH0000000k9q.0
REMARK                            x       y       z     vdW  Elec       q    Type
REMARK                         _______ _______ _______ _____ _____    ______ ____
ROOT
ATOM      1  N   LIG    1       -4.589   2.804   2.765  0.00  0.00    -0.510 N 
ATOM      2  C   LIG    1       -3.492   2.592   2.013  0.00  0.00    +0.560 A 
ATOM      3  C   LIG    1       -3.550   1.628   0.965  0.00  0.00    -0.230 A 
ATOM      4  C   LIG    1       -4.747   0.947   0.768  0.00  0.00    +0.090 A 
ATOM      5  S   LIG    1       -4.579  -0.183  -0.570  0.00  0.00    +0.220 S 
ATOM      6  C   LIG    1       -2.911   0.279  -0.847  0.00  0.00    -0.040 A 
ATOM      7  N   LIG    1       -5.804   1.213   1.561  0.00  0.00    -0.520 NA
ATOM      8  C   LIG    1       -2.519   1.214   0.019  0.00  0.00    +0.040 A 
ATOM      9  O   LIG    1       -2.466   3.215   2.225  0.00  0.00    -0.500 OA
ATOM     10  C   LIG    1       -5.735   2.103   2.522  0.00  0.00    +0.360 A 
ENDROOT
BRANCH   8  11
ATOM     11  C   LIG    1       -1.157   1.788   0.017  0.00  0.00    -0.140 A 
ATOM     12  C   LIG    1       -0.013   1.076   0.008  0.00  0.00    +0.020 A 
ATOM     13  C   LIG    1        1.140   1.837   0.001  0.00  0.00    +0.000 A 
ATOM     14  C   LIG    1        0.945   3.158   0.010  0.00  0.00    -0.060 A 
ATOM     15  S   LIG    1       -0.779   3.506   0.028  0.00  0.00    +0.180 S 
ENDBRANCH   8  11
BRANCH   1  16
ATOM     16  C   LIG    1       -4.553   3.791   3.848  0.00  0.00    +0.340 C 
BRANCH  16  18
ATOM     17  C   LIG    1       -5.952   5.792   3.877  0.00  0.00    +0.070 C 
ATOM     18  C   LIG    1       -4.966   5.138   3.313  0.00  0.00    -0.070 C 
ENDBRANCH  16  18
ENDBRANCH   1  16
BRANCH  10  19
ATOM     19  S   LIG    1       -7.155   2.402   3.522  0.00  0.00    +0.100 S 
BRANCH  19  20
ATOM     20  C   LIG    1       -8.319   1.238   2.770  0.00  0.00    +0.100 C 
BRANCH  20  21
ATOM     21  C   LIG    1       -9.644   1.320   3.484  0.00  0.00    +0.540 C 
ATOM     22  N   LIG    1      -10.669   0.538   3.094  0.00  0.00    -0.690 N 
ATOM     23  H   LIG    1      -10.555  -0.078   2.353  0.00  0.00    +0.410 HD
ATOM     24  O   LIG    1       -9.787   2.090   4.410  0.00  0.00    -0.520 OA
BRANCH  22  25
ATOM     25  C   LIG    1      -11.957   0.618   3.788  0.00  0.00    +0.220 C 
ATOM     26  C   LIG    1      -12.662  -0.698   4.125  0.00  0.00    +0.020 C 
ATOM     27  C   LIG    1      -13.206   0.199   3.010  0.00  0.00    +0.020 C 
ENDBRANCH  22  25
ENDBRANCH  20  21
ENDBRANCH  19  20
ENDBRANCH  10  19
TORSDOF 7
