REMARK  Name = ZINCrD00000F5Lm8.0
REMARK                            x       y       z     vdW  Elec       q    Type
REMARK                         _______ _______ _______ _____ _____    ______ ____
ROOT
ATOM      1  C   LIG    1       -7.083   3.407   0.281  0.00  0.00    +0.280 A 
ATOM      2  N   LIG    1       -7.943   4.413   0.230  0.00  0.00    -0.430 NA
ATOM      3  C   LIG    1       -7.520   5.677   0.125  0.00  0.00    +0.450 A 
ATOM      4  N   LIG    1       -8.167   6.836   0.056  0.00  0.00    -0.510 NA
ATOM      5  C   LIG    1       -7.293   7.832  -0.026  0.00  0.00    +0.500 A 
ATOM      6  N   LIG    1       -6.074   7.350  -0.026  0.00  0.00    -0.320 NA
ATOM      7  N   LIG    1       -6.183   5.957   0.074  0.00  0.00    -0.310 N 
ATOM      8  C   LIG    1       -5.263   4.947   0.119  0.00  0.00    +0.120 A 
ATOM      9  C   LIG    1       -5.702   3.655   0.227  0.00  0.00    +0.060 A 
ENDROOT
BRANCH   1  13
ATOM     10  C   LIG    1       -8.507  -0.584   0.613  0.00  0.00    +0.040 A 
ATOM     11  C   LIG    1       -9.406   0.466   0.560  0.00  0.00    +0.000 A 
ATOM     12  C   LIG    1       -8.950   1.764   0.452  0.00  0.00    +0.080 A 
ATOM     13  C   LIG    1       -7.579   2.015   0.397  0.00  0.00    -0.070 A 
ATOM     14  C   LIG    1       -6.678   0.953   0.446  0.00  0.00    +0.050 A 
ATOM     15  C   LIG    1       -7.146  -0.341   0.558  0.00  0.00    +0.010 A 
ENDBRANCH   1  13
BRANCH   8  16
ATOM     16  S   LIG    1       -3.538   5.302   0.048  0.00  0.00    +0.270 S 
BRANCH  16  17
ATOM     17  C   LIG    1       -3.427   5.947  -1.589  0.00  0.00    +0.110 A 
ATOM     18  N   LIG    1       -4.396   5.993  -2.473  0.00  0.00    -0.260 NA
ATOM     19  N   LIG    1       -3.959   6.527  -3.559  0.00  0.00    -0.250 NA
ATOM     20  C   LIG    1       -2.695   6.841  -3.412  0.00  0.00    +0.220 A 
ATOM     21  O   LIG    1       -2.330   6.475  -2.163  0.00  0.00    -0.190 OA
BRANCH  20  22
ATOM     22  C   LIG    1       -1.827   7.474  -4.426  0.00  0.00    +0.020 A 
ATOM     23  C   LIG    1       -0.486   7.767  -4.145  0.00  0.00    +0.010 A 
ATOM     24  C   LIG    1        0.286   8.363  -5.119  0.00  0.00    +0.280 A 
ATOM     25  N   LIG    1       -0.221   8.656  -6.301  0.00  0.00    -0.470 NA
ATOM     26  C   LIG    1       -1.478   8.398  -6.608  0.00  0.00    +0.280 A 
ATOM     27  C   LIG    1       -2.322   7.803  -5.694  0.00  0.00    +0.030 A 
ENDBRANCH  20  22
ENDBRANCH  16  17
ENDBRANCH   8  16
TORSDOF 4
