REMARK  Name = ZINCqH00000503q1.0
REMARK                            x       y       z     vdW  Elec       q    Type
REMARK                         _______ _______ _______ _____ _____    ______ ____
ROOT
ATOM      1  N   LIG    1       -1.240   2.071   0.019  0.00  0.00    -0.700 N 
ATOM      2  H   LIG    1       -2.050   1.622  -0.268  0.00  0.00    +0.410 HD
ATOM      3  C   LIG    1       -1.289   3.356   0.426  0.00  0.00    +0.710 C 
ATOM      4  N   LIG    1       -2.477   3.984   0.531  0.00  0.00    -0.730 N 
ATOM      5  H   LIG    1       -3.296   3.512   0.314  0.00  0.00    +0.400 HD
ATOM      6  O   LIG    1       -0.262   3.947   0.697  0.00  0.00    -0.570 OA
ENDROOT
BRANCH   1  12
ATOM      7  C   LIG    1        2.051  -0.749   2.352  0.00  0.00    +0.130 C 
ATOM      8  C   LIG    1        1.601   0.007   1.128  0.00  0.00    -0.110 A 
ATOM      9  C   LIG    1        2.393   0.019  -0.006  0.00  0.00    +0.020 A 
ATOM     10  C   LIG    1        1.983   0.711  -1.132  0.00  0.00    +0.010 A 
ATOM     11  C   LIG    1        0.780   1.394  -1.126  0.00  0.00    +0.150 A 
ATOM     12  C   LIG    1       -0.017   1.385   0.012  0.00  0.00    +0.090 A 
ATOM     13  F   LIG    1        0.381   2.070  -2.226  0.00  0.00    -0.110 F 
ATOM     14 CL   LIG    1        3.903  -0.837  -0.018  0.00  0.00    -0.030 Cl
ATOM     15  C   LIG    1        0.397   0.688   1.141  0.00  0.00    +0.150 A 
ATOM     16  F   LIG    1       -0.375   0.676   2.249  0.00  0.00    -0.110 F 
ENDBRANCH   1  12
BRANCH   4  17
ATOM     17  C   LIG    1       -2.530   5.380   0.973  0.00  0.00    +0.260 C 
ATOM     18  C   LIG    1       -2.314   6.306  -0.228  0.00  0.00    -0.010 C 
ATOM     19  C   LIG    1       -2.450   7.761   0.229  0.00  0.00    +0.230 C 
ATOM     20  O   LIG    1       -3.737   7.956   0.818  0.00  0.00    -0.360 OA
ATOM     21  C   LIG    1       -3.977   7.150   1.974  0.00  0.00    +0.260 C 
ATOM     22  C   LIG    1       -3.903   5.671   1.587  0.00  0.00    +0.020 C 
BRANCH  21  23
ATOM     23  C   LIG    1       -5.346   7.457   2.524  0.00  0.00    +0.200 A 
ATOM     24  N   LIG    1       -6.439   7.580   1.822  0.00  0.00    -0.460 NA
ATOM     25  C   LIG    1       -7.464   7.854   2.642  0.00  0.00    +0.140 A 
ATOM     26  C   LIG    1       -6.988   7.904   3.901  0.00  0.00    +0.130 A 
ATOM     27  N   LIG    1       -5.646   7.647   3.827  0.00  0.00    -0.460 N 
ATOM     28  C   LIG    1       -4.708   7.591   4.952  0.00  0.00    +0.330 C 
ENDBRANCH  21  23
ENDBRANCH   4  17
TORSDOF 3
