REMARK  Name = ZINCqH00000014iQ.0
REMARK                            x       y       z     vdW  Elec       q    Type
REMARK                         _______ _______ _______ _____ _____    ______ ____
ROOT
ATOM      1  C   LIG    1        0.949   1.979   9.856  0.00  0.00    +0.120 A 
ATOM      2  N   LIG    1        1.435   2.980   9.225  0.00  0.00    -0.470 NA
ATOM      3  C   LIG    1        1.726   2.821   7.920  0.00  0.00    +0.140 A 
ATOM      4  C   LIG    1        2.262   3.742   6.998  0.00  0.00    +0.070 A 
ATOM      5  C   LIG    1        2.487   3.374   5.707  0.00  0.00    +0.130 A 
ATOM      6  C   LIG    1        2.185   2.092   5.271  0.00  0.00    -0.670 A 
ATOM      7  C   LIG    1        1.660   1.171   6.149  0.00  0.00    +0.200 A 
ATOM      8  C   LIG    1        1.428   1.528   7.475  0.00  0.00    -0.220 A 
ATOM      9  S   LIG    1        0.780   0.620   8.838  0.00  0.00    +0.130 S 
ENDROOT
BRANCH   1  11
ATOM     10  C   LIG    1       -0.500   3.061  11.552  0.00  0.00    +0.060 C 
ATOM     11  C   LIG    1        0.573   1.997  11.315  0.00  0.00    +0.000 C 
ATOM     12  C   LIG    1        1.809   2.322  12.156  0.00  0.00    +0.060 C 
ATOM     13  C   LIG    1        0.028   0.625  11.718  0.00  0.00    +0.060 C 
ENDBRANCH   1  11
BRANCH   6  14
ATOM     14  S   LIG    1        2.479   1.640   3.593  0.00  0.00    +2.710 S 
ATOM     15  O   LIG    1        3.479   2.526   3.109  0.00  0.00    -0.940 OA
ATOM     16  O   LIG    1        2.620   0.226   3.577  0.00  0.00    -0.950 OA
BRANCH  14  17
ATOM     17  N   LIG    1        1.099   1.983   2.744  0.00  0.00    -1.010 NA
ATOM     18  C   LIG    1        0.796   3.260   2.081  0.00  0.00    +0.270 C 
ATOM     19  C   LIG    1       -0.582   3.108   1.399  0.00  0.00    +0.060 C 
ATOM     20  C   LIG    1       -0.728   1.578   1.258  0.00  0.00    -0.100 C 
ATOM     21  C   LIG    1       -0.013   1.086   0.008  0.00  0.00    +0.030 C 
ATOM     22  C   LIG    1       -0.757   1.595  -1.232  0.00  0.00    -0.010 C 
ATOM     23  C   LIG    1       -2.220   1.150  -1.154  0.00  0.00    +0.200 C 
ATOM     24  O   LIG    1       -2.812   1.657   0.043  0.00  0.00    -0.380 OA
ATOM     25  C   LIG    1       -2.197   1.180   1.244  0.00  0.00    +0.240 C 
ATOM     26  C   LIG    1       -0.029   1.056   2.528  0.00  0.00    +0.290 C 
ENDBRANCH  14  17
ENDBRANCH   6  14
TORSDOF 3
