REMARK  Name = ZINCqH0000005nTM.1
REMARK                            x       y       z     vdW  Elec       q    Type
REMARK                         _______ _______ _______ _____ _____    ______ ____
ROOT
ATOM      1  N   LIG    1        0.081  -4.193   2.445  0.00  0.00    -0.670 N 
ATOM      2  H   LIG    1        0.553  -3.348   2.375  0.00  0.00    +0.410 HD
ATOM      3  C   LIG    1       -0.507  -4.728   1.357  0.00  0.00    +0.560 C 
ATOM      4  O   LIG    1       -1.026  -5.825   1.424  0.00  0.00    -0.510 OA
ENDROOT
BRANCH   1   8
ATOM      5  C   LIG    1       -0.128  -6.168   6.111  0.00  0.00    +0.100 A 
ATOM      6  C   LIG    1       -0.034  -6.898   4.934  0.00  0.00    +0.010 A 
ATOM      7  C   LIG    1        0.035  -6.244   3.720  0.00  0.00    +0.050 A 
ATOM      8  C   LIG    1        0.011  -4.856   3.676  0.00  0.00    +0.110 A 
ATOM      9  C   LIG    1       -0.078  -4.126   4.854  0.00  0.00    +0.020 A 
ATOM     10  C   LIG    1       -0.153  -4.780   6.068  0.00  0.00    -0.020 A 
BRANCH   5  15
ATOM     11  C   LIG    1       -1.484  -8.272  11.098  0.00  0.00    +0.190 C 
ATOM     12  N   LIG    1       -1.411  -7.576   9.807  0.00  0.00    -0.550 NA
ATOM     13  C   LIG    1       -0.286  -6.631   9.780  0.00  0.00    +0.170 C 
ATOM     14  C   LIG    1       -0.292  -5.872   8.451  0.00  0.00    +0.200 C 
ATOM     15  N   LIG    1       -0.198  -6.830   7.342  0.00  0.00    -0.490 N 
ATOM     16  C   LIG    1       -1.323  -7.775   7.368  0.00  0.00    +0.200 C 
ATOM     17  C   LIG    1       -1.317  -8.535   8.697  0.00  0.00    +0.190 C 
ENDBRANCH   5  15
ENDBRANCH   1   8
BRANCH   3  18
ATOM     18  C   LIG    1       -0.522  -3.981   0.081  0.00  0.00    -0.140 A 
ATOM     19  C   LIG    1        0.073  -2.721   0.001  0.00  0.00    +0.090 A 
ATOM     20  C   LIG    1        0.056  -2.028  -1.193  0.00  0.00    +0.030 A 
ATOM     21  C   LIG    1       -0.544  -2.583  -2.309  0.00  0.00    +0.100 A 
ATOM     22  C   LIG    1       -1.140  -3.829  -2.235  0.00  0.00    -0.190 A 
ATOM     23  C   LIG    1       -1.131  -4.532  -1.048  0.00  0.00    +0.140 A 
BRANCH  22  24
ATOM     24  C   LIG    1       -1.796  -4.423  -3.454  0.00  0.00    +0.510 C 
ATOM     25  F   LIG    1       -1.705  -5.818  -3.401  0.00  0.00    -0.170 F 
ATOM     26  F   LIG    1       -1.151  -3.957  -4.605  0.00  0.00    -0.170 F 
ATOM     27  F   LIG    1       -3.143  -4.045  -3.490  0.00  0.00    -0.170 F 
ENDBRANCH  22  24
ENDBRANCH   3  18
TORSDOF 4
