REMARK  Name = ZINCrH00000loX2L.0
REMARK                            x       y       z     vdW  Elec       q    Type
REMARK                         _______ _______ _______ _____ _____    ______ ____
ROOT
ATOM      1  C   LIG    1       -5.282   0.254  -0.004  0.00  0.00    +0.600 C 
ATOM      2  N   LIG    1       -5.373   0.806  -1.231  0.00  0.00    -0.710 N 
ATOM      3  H   LIG    1       -4.624   1.301  -1.597  0.00  0.00    +0.400 HD
ATOM      4  O   LIG    1       -6.221  -0.367   0.455  0.00  0.00    -0.510 OA
ENDROOT
BRANCH   1   8
ATOM      5  N   LIG    1       -2.062   0.977   1.338  0.00  0.00    -0.270 N 
ATOM      6  C   LIG    1       -2.535   0.270   2.387  0.00  0.00    +0.220 A 
ATOM      7  C   LIG    1       -3.795  -0.116   2.075  0.00  0.00    -0.240 A 
ATOM      8  C   LIG    1       -4.040   0.403   0.782  0.00  0.00    +0.010 A 
ATOM      9  N   LIG    1       -2.952   1.049   0.414  0.00  0.00    -0.250 NA
BRANCH   7  10
ATOM     10  C   LIG    1       -4.737  -0.928   2.926  0.00  0.00    +0.470 C 
ATOM     11  F   LIG    1       -6.057  -0.566   2.635  0.00  0.00    -0.170 F 
ATOM     12  F   LIG    1       -4.473  -0.683   4.278  0.00  0.00    -0.210 F 
ENDBRANCH   7  10
BRANCH   5  13
ATOM     13  C   LIG    1       -0.729   1.579   1.267  0.00  0.00    +0.330 C 
BRANCH  13  15
ATOM     14  C   LIG    1        1.423   1.615  -0.003  0.00  0.00    +0.040 C 
ATOM     15  C   LIG    1       -0.013   1.086   0.008  0.00  0.00    -0.030 C 
ATOM     16  C   LIG    1       -0.753   1.593  -1.232  0.00  0.00    +0.040 C 
ENDBRANCH  13  15
ENDBRANCH   5  13
ENDBRANCH   1   8
BRANCH   2  17
ATOM     17  C   LIG    1       -6.605   0.658  -2.010  0.00  0.00    +0.290 C 
ATOM     18  C   LIG    1       -6.571  -0.669  -2.771  0.00  0.00    +0.040 C 
BRANCH  17  19
ATOM     19  C   LIG    1       -6.718   1.796  -2.991  0.00  0.00    -0.090 A 
ATOM     20  C   LIG    1       -5.594   2.246  -3.658  0.00  0.00    +0.020 A 
ATOM     21  C   LIG    1       -5.694   3.291  -4.558  0.00  0.00    +0.030 A 
ATOM     22  C   LIG    1       -6.922   3.889  -4.795  0.00  0.00    +0.050 A 
ATOM     23  O   LIG    1       -7.004   4.920  -5.680  0.00  0.00    -0.310 OA
ATOM     24  C   LIG    1       -8.310   5.247  -6.168  0.00  0.00    +0.220 C 
ATOM     25  C   LIG    1       -9.271   5.293  -4.972  0.00  0.00    +0.220 C 
ATOM     26  O   LIG    1       -9.269   4.005  -4.346  0.00  0.00    -0.310 OA
ATOM     27  C   LIG    1       -8.053   3.435  -4.125  0.00  0.00    +0.060 A 
ATOM     28  C   LIG    1       -7.947   2.384  -3.227  0.00  0.00    +0.040 A 
ENDBRANCH  17  19
ENDBRANCH   2  17
TORSDOF 6
