REMARK  Name = ZINCpk000005PDZF.0
REMARK                            x       y       z     vdW  Elec       q    Type
REMARK                         _______ _______ _______ _____ _____    ______ ____
ROOT
ATOM      1  C   LIG    1       -6.037   3.598   3.009  0.00  0.00    +0.250 C 
ATOM      2  C   LIG    1       -6.959   2.605   2.296  0.00  0.00    -0.010 C 
ATOM      3  C   LIG    1       -7.237   1.421   3.225  0.00  0.00    +0.220 C 
ATOM      4  O   LIG    1       -6.001   0.813   3.604  0.00  0.00    -0.370 OA
ATOM      5  C   LIG    1       -5.117   1.681   4.316  0.00  0.00    +0.220 C 
ATOM      6  C   LIG    1       -4.753   2.875   3.430  0.00  0.00    +0.210 C 
ENDROOT
BRANCH   1   8
ATOM      7  C   LIG    1       -6.531   5.757   1.993  0.00  0.00    +0.520 C 
ATOM      8  N   LIG    1       -5.703   4.699   2.101  0.00  0.00    -0.730 N 
ATOM      9  H   LIG    1       -4.887   4.666   1.578  0.00  0.00    +0.400 HD
ATOM     10  O   LIG    1       -7.551   5.798   2.648  0.00  0.00    -0.520 OA
BRANCH   7  11
ATOM     11  C   LIG    1       -6.188   6.890   1.060  0.00  0.00    +0.110 C 
BRANCH  11  18
ATOM     12  C   LIG    1       -6.133   8.958   3.122  0.00  0.00    +0.100 C 
ATOM     13  C   LIG    1       -7.243   8.922   2.103  0.00  0.00    -0.120 A 
ATOM     14  C   LIG    1       -8.250   9.868   2.132  0.00  0.00    +0.260 A 
ATOM     15  N   LIG    1       -9.225   9.843   1.244  0.00  0.00    -0.480 NA
ATOM     16  C   LIG    1       -9.281   8.923   0.301  0.00  0.00    +0.250 A 
ATOM     17  C   LIG    1       -8.306   7.948   0.206  0.00  0.00    -0.030 A 
ATOM     18  C   LIG    1       -7.268   7.939   1.125  0.00  0.00    -0.030 A 
ENDBRANCH  11  18
ENDBRANCH   7  11
ENDBRANCH   1   8
BRANCH   6  19
ATOM     19  N   LIG    1       -4.044   2.403   2.239  0.00  0.00    -0.700 N 
ATOM     20  H   LIG    1       -4.533   2.234   1.418  0.00  0.00    +0.410 HD
BRANCH  19  21
ATOM     21  C   LIG    1       -2.675   2.197   2.284  0.00  0.00    +0.440 A 
ATOM     22  N   LIG    1       -2.020   1.773   1.207  0.00  0.00    -0.580 NA
ATOM     23  C   LIG    1       -0.718   1.572   1.248  0.00  0.00    +0.360 A 
ATOM     24  N   LIG    1       -0.015   1.789   2.341  0.00  0.00    -0.560 NA
ATOM     25  C   LIG    1       -0.597   2.217   3.453  0.00  0.00    +0.350 A 
ATOM     26  C   LIG    1       -0.013   1.086   0.008  0.00  0.00    +0.170 C 
ATOM     27  C   LIG    1       -1.960   2.437   3.459  0.00  0.00    -0.160 A 
ENDBRANCH  19  21
ENDBRANCH   6  19
TORSDOF 5
