REMARK  Name = ZINCrH000004qJsV.0
REMARK                            x       y       z     vdW  Elec       q    Type
REMARK                         _______ _______ _______ _____ _____    ______ ____
ROOT
ATOM      1  C   LIG    1       -2.575   4.138   0.252  0.00  0.00    +0.060 C 
ENDROOT
BRANCH   1   4
ATOM      2  N   LIG    1       -1.240   2.069   0.019  0.00  0.00    -0.670 N 
ATOM      3  H   LIG    1       -2.072   1.575  -0.046  0.00  0.00    +0.410 HD
ATOM      4  C   LIG    1       -1.260   3.412   0.128  0.00  0.00    +0.510 C 
ATOM      5  O   LIG    1       -0.220   4.036   0.127  0.00  0.00    -0.520 OA
BRANCH   2  12
ATOM      6  C   LIG    1       -1.115  -0.496   1.243  0.00  0.00    +0.080 C 
ATOM      7  C   LIG    1        0.087   0.129   0.583  0.00  0.00    -0.060 A 
ATOM      8  C   LIG    1        1.290  -0.546   0.558  0.00  0.00    -0.060 A 
ATOM      9  C   LIG    1        2.398   0.030  -0.050  0.00  0.00    +0.210 A 
ATOM     10  C   LIG    1        2.295   1.286  -0.633  0.00  0.00    -0.070 A 
ATOM     11  C   LIG    1        1.091   1.962  -0.609  0.00  0.00    +0.070 A 
ATOM     12  C   LIG    1       -0.016   1.385  -0.001  0.00  0.00    +0.080 A 
BRANCH   9  13
ATOM     13  N   LIG    1        3.618  -0.655  -0.076  0.00  0.00    -0.640 N 
ATOM     14  C   LIG    1        4.786  -0.046  -0.718  0.00  0.00    +0.280 C 
ATOM     15  C   LIG    1        3.727  -1.980   0.539  0.00  0.00    +0.270 C 
ENDBRANCH   9  13
ENDBRANCH   2  12
ENDBRANCH   1   4
BRANCH   1  16
ATOM     16  C   LIG    1       -2.318   5.643   0.360  0.00  0.00    +0.040 C 
BRANCH  16  17
ATOM     17  C   LIG    1       -3.652   6.380   0.486  0.00  0.00    +0.280 C 
BRANCH  17  18
ATOM     18  N   LIG    1       -3.407   7.821   0.590  0.00  0.00    -0.710 N 
ATOM     19  H   LIG    1       -2.498   8.160   0.572  0.00  0.00    +0.410 HD
ATOM     20  C   LIG    1       -4.443   8.674   0.710  0.00  0.00    +0.650 C 
ATOM     21  O   LIG    1       -5.581   8.249   0.732  0.00  0.00    -0.570 OA
BRANCH  20  22
ATOM     22  O   LIG    1       -4.217   9.998   0.805  0.00  0.00    -0.370 OA
BRANCH  22  23
ATOM     23  C   LIG    1       -5.380  10.858   0.932  0.00  0.00    +0.290 C 
BRANCH  23  24
ATOM     24  C   LIG    1       -4.935  12.294   1.026  0.00  0.00    -0.100 A 
ATOM     25  C   LIG    1       -4.677  12.859   2.261  0.00  0.00    +0.040 A 
ATOM     26  C   LIG    1       -4.264  14.175   2.346  0.00  0.00    +0.010 A 
ATOM     27  C   LIG    1       -4.119  14.930   1.197  0.00  0.00    +0.020 A 
ATOM     28  C   LIG    1       -4.382  14.367  -0.037  0.00  0.00    +0.010 A 
ATOM     29  C   LIG    1       -4.790  13.049  -0.123  0.00  0.00    +0.040 A 
ENDBRANCH  23  24
ENDBRANCH  22  23
ENDBRANCH  20  22
ENDBRANCH  17  18
ENDBRANCH  16  17
ENDBRANCH   1  16
TORSDOF 9
