REMARK  Name = ZINCqH00000349j1.0
REMARK                            x       y       z     vdW  Elec       q    Type
REMARK                         _______ _______ _______ _____ _____    ______ ____
ROOT
ATOM      1  C   LIG    1        1.090  -1.303   1.589  0.00  0.00    +0.160 C 
ATOM      2  C   LIG    1       -0.388  -1.063   1.250  0.00  0.00    +0.270 C 
ATOM      3  N   LIG    1       -0.895  -2.276   0.586  0.00  0.00    -0.550 N 
ATOM      4  C   LIG    1       -0.066  -2.895  -0.365  0.00  0.00    +0.070 A 
ATOM      5  C   LIG    1       -0.585  -3.856  -1.218  0.00  0.00    +0.050 A 
ATOM      6  C   LIG    1        0.236  -4.464  -2.150  0.00  0.00    +0.000 A 
ATOM      7  C   LIG    1        1.571  -4.115  -2.230  0.00  0.00    +0.030 A 
ATOM      8  C   LIG    1        2.093  -3.156  -1.382  0.00  0.00    +0.010 A 
ATOM      9  C   LIG    1        1.278  -2.540  -0.445  0.00  0.00    +0.100 A 
ATOM     10  C   LIG    1       -2.111  -2.776   0.881  0.00  0.00    +0.610 C 
ATOM     11  O   LIG    1       -2.534  -3.744   0.278  0.00  0.00    -0.490 OA
ATOM     12  O   LIG    1        1.799  -1.596   0.382  0.00  0.00    -0.300 OA
ENDROOT
BRANCH  10  13
ATOM     13  C   LIG    1       -2.926  -2.151   1.930  0.00  0.00    -0.320 A 
ATOM     14  C   LIG    1       -3.656  -2.808   2.885  0.00  0.00    +0.160 A 
ATOM     15  N   LIG    1       -4.292  -2.017   3.706  0.00  0.00    -0.430 NA
ATOM     16  C   LIG    1       -4.168  -0.734   3.517  0.00  0.00    +0.090 A 
ATOM     17  C   LIG    1       -3.716  -4.311   2.982  0.00  0.00    +0.170 C 
ATOM     18  S   LIG    1       -3.148  -0.421   2.181  0.00  0.00    +0.280 S 
BRANCH  16  19
ATOM     19  C   LIG    1       -4.819   0.306   4.343  0.00  0.00    +0.370 A 
ATOM     20  N   LIG    1       -4.612   1.585   4.055  0.00  0.00    -0.510 NA
ATOM     21  C   LIG    1       -5.184   2.539   4.769  0.00  0.00    +0.340 A 
ATOM     22  C   LIG    1       -5.998   2.190   5.837  0.00  0.00    -0.050 A 
ATOM     23  C   LIG    1       -6.188   0.844   6.114  0.00  0.00    +0.330 A 
ATOM     24  N   LIG    1       -5.592  -0.061   5.357  0.00  0.00    -0.470 NA
ENDBRANCH  16  19
ENDBRANCH  10  13
BRANCH   1  26
ATOM     25  C   LIG    1        3.119  -0.326   2.672  0.00  0.00    +0.030 C 
ATOM     26  C   LIG    1        1.678  -0.048   2.237  0.00  0.00    +0.050 C 
ENDBRANCH   1  26
TORSDOF 3
