REMARK  Name = ZINCpk00000y6vq9.0
REMARK                            x       y       z     vdW  Elec       q    Type
REMARK                         _______ _______ _______ _____ _____    ______ ____
ROOT
ATOM      1  C   LIG    1        9.030  -2.428   5.887  0.00  0.00    +0.330 C 
ATOM      2  C   LIG    1        8.335  -2.036   4.564  0.00  0.00    +0.000 C 
ATOM      3  C   LIG    1        8.624  -3.270   3.678  0.00  0.00    +0.070 C 
ATOM      4  C   LIG    1        9.877  -3.870   4.276  0.00  0.00    +0.520 C 
ATOM      5  O   LIG    1       10.592  -4.679   3.723  0.00  0.00    -0.520 OA
ATOM      6  N   LIG    1       10.084  -3.377   5.509  0.00  0.00    -0.600 N 
ATOM      7  C   LIG    1       11.214  -3.742   6.367  0.00  0.00    +0.310 C 
ENDROOT
BRANCH   1  13
ATOM      8  C   LIG    1        7.918  -0.922   8.355  0.00  0.00    +0.320 C 
ATOM      9  N   LIG    1        9.132  -0.567   7.617  0.00  0.00    -0.450 N 
ATOM     10  C   LIG    1        9.974   0.476   7.892  0.00  0.00    +0.140 A 
ATOM     11  C   LIG    1       10.954   0.440   6.968  0.00  0.00    +0.140 A 
ATOM     12  N   LIG    1       10.720  -0.601   6.155  0.00  0.00    -0.470 NA
ATOM     13  C   LIG    1        9.632  -1.211   6.540  0.00  0.00    +0.180 A 
ENDBRANCH   1  13
BRANCH   2  14
ATOM     14  C   LIG    1        6.830  -1.850   4.770  0.00  0.00    +0.280 C 
BRANCH  14  15
ATOM     15  N   LIG    1        6.224  -1.365   3.528  0.00  0.00    -0.730 N 
ATOM     16  H   LIG    1        6.776  -1.214   2.745  0.00  0.00    +0.400 HD
ATOM     17  C   LIG    1        4.898  -1.128   3.473  0.00  0.00    +0.520 C 
ATOM     18  O   LIG    1        4.207  -1.316   4.452  0.00  0.00    -0.510 OA
BRANCH  17  19
ATOM     19  C   LIG    1        4.274  -0.628   2.196  0.00  0.00    +0.200 C 
BRANCH  19  20
ATOM     20  O   LIG    1        2.869  -0.455   2.388  0.00  0.00    -0.360 OA
BRANCH  20  21
ATOM     21  C   LIG    1        2.178   0.019   1.231  0.00  0.00    +0.150 C 
ATOM     22  C   LIG    1        0.742  -0.511   1.242  0.00  0.00    +0.020 C 
ATOM     23  C   LIG    1        0.002  -0.004   0.002  0.00  0.00    +0.010 C 
ATOM     24  C   LIG    1       -0.019   1.526   0.010  0.00  0.00    +0.000 C 
ATOM     25  C   LIG    1        1.417   2.055  -0.000  0.00  0.00    +0.010 C 
ATOM     26  C   LIG    1        2.157   1.548   1.239  0.00  0.00    -0.010 C 
ENDBRANCH  20  21
ENDBRANCH  19  20
ENDBRANCH  17  19
ENDBRANCH  14  15
ENDBRANCH   2  14
TORSDOF 6
