REMARK  Name = ZINCrD000000B3Uy.0
REMARK                            x       y       z     vdW  Elec       q    Type
REMARK                         _______ _______ _______ _____ _____    ______ ____
ROOT
ATOM      1  C   LIG    1       -3.765  -4.177   3.938  0.00  0.00    +0.560 C 
ATOM      2  N   LIG    1       -3.576  -3.814   2.654  0.00  0.00    -0.720 N 
ATOM      3  H   LIG    1       -4.239  -4.040   1.984  0.00  0.00    +0.400 HD
ATOM      4  O   LIG    1       -2.893  -3.976   4.761  0.00  0.00    -0.510 OA
ENDROOT
BRANCH   1   8
ATOM      5  O   LIG    1       -8.054  -6.111   3.022  0.00  0.00    -0.520 OA
ATOM      6  C   LIG    1       -7.217  -5.801   3.851  0.00  0.00    +0.540 A 
ATOM      7  C   LIG    1       -5.974  -5.167   3.417  0.00  0.00    +0.000 A 
ATOM      8  C   LIG    1       -5.037  -4.821   4.347  0.00  0.00    -0.030 A 
ATOM      9  C   LIG    1       -5.313  -5.107   5.763  0.00  0.00    -0.110 A 
ATOM     10  C   LIG    1       -4.382  -4.777   6.753  0.00  0.00    +0.110 A 
ATOM     11  C   LIG    1       -4.657  -5.052   8.063  0.00  0.00    -0.020 A 
ATOM     12  C   LIG    1       -5.854  -5.655   8.421  0.00  0.00    +0.070 A 
ATOM     13  C   LIG    1       -6.791  -5.979   7.463  0.00  0.00    -0.030 A 
ATOM     14  C   LIG    1       -6.530  -5.714   6.122  0.00  0.00    +0.180 A 
ATOM     15  N   LIG    1       -7.451  -6.049   5.152  0.00  0.00    -0.630 N 
ATOM     16  H   LIG    1       -8.284  -6.471   5.413  0.00  0.00    +0.420 HD
ENDBRANCH   1   8
BRANCH   2  17
ATOM     17  C   LIG    1       -2.368  -3.078   2.271  0.00  0.00    +0.280 C 
BRANCH  17  18
ATOM     18  C   LIG    1       -2.401  -2.792   0.768  0.00  0.00    +0.090 C 
BRANCH  18  19
ATOM     19  C   LIG    1       -1.159  -2.035   0.374  0.00  0.00    -0.070 A 
ATOM     20  C   LIG    1       -0.026  -2.724  -0.016  0.00  0.00    +0.040 A 
ATOM     21  C   LIG    1        1.117  -2.033  -0.377  0.00  0.00    -0.030 A 
ATOM     22  C   LIG    1        1.127  -0.645  -0.348  0.00  0.00    +0.060 A 
ATOM     23  O   LIG    1        2.261   0.021  -0.700  0.00  0.00    -0.290 OA
ATOM     24  C   LIG    1        2.118   1.410  -1.018  0.00  0.00    +0.230 C 
ATOM     25  C   LIG    1        1.247   2.063   0.065  0.00  0.00    +0.230 C 
ATOM     26  O   LIG    1       -0.025   1.407   0.073  0.00  0.00    -0.300 OA
ATOM     27  C   LIG    1       -0.013   0.047   0.042  0.00  0.00    +0.070 A 
ATOM     28 CL   LIG    1        2.538  -2.901  -0.866  0.00  0.00    -0.050 Cl
ATOM     29  C   LIG    1       -1.154  -0.653   0.404  0.00  0.00    +0.040 A 
ENDBRANCH  18  19
ENDBRANCH  17  18
ENDBRANCH   2  17
TORSDOF 4
