REMARK  Name = ZINCqH00000369M6.0
REMARK                            x       y       z     vdW  Elec       q    Type
REMARK                         _______ _______ _______ _____ _____    ______ ____
ROOT
ATOM      1  N   LIG    1       -1.272   1.349  -3.436  0.00  0.00    -0.740 N 
ATOM      2  H   LIG    1       -1.814   2.151  -3.383  0.00  0.00    +0.400 HD
ATOM      3  C   LIG    1       -0.620   0.902  -2.344  0.00  0.00    +0.700 C 
ATOM      4  N   LIG    1       -0.721   1.571  -1.179  0.00  0.00    -0.730 N 
ATOM      5  H   LIG    1       -1.263   2.374  -1.126  0.00  0.00    +0.400 HD
ATOM      6  O   LIG    1        0.059  -0.104  -2.411  0.00  0.00    -0.580 OA
ENDROOT
BRANCH   1  15
ATOM      7  C   LIG    1        2.463   1.842  -6.621  0.00  0.00    +0.130 A 
ATOM      8  C   LIG    1        2.425   1.607  -5.255  0.00  0.00    -0.080 A 
ATOM      9  C   LIG    1        1.244   1.215  -4.661  0.00  0.00    +0.070 A 
ATOM     10  C   LIG    1        0.090   1.056  -5.419  0.00  0.00    -0.140 A 
ATOM     11  C   LIG    1        0.124   1.293  -6.775  0.00  0.00    -0.030 A 
ATOM     12  C   LIG    1       -1.090   1.147  -7.655  0.00  0.00    +0.080 C 
ATOM     13  C   LIG    1       -2.165   0.319  -6.954  0.00  0.00    +0.030 C 
ATOM     14  C   LIG    1       -2.396   0.909  -5.557  0.00  0.00    +0.020 C 
ATOM     15  C   LIG    1       -1.163   0.621  -4.703  0.00  0.00    +0.310 C 
ATOM     16  C   LIG    1        1.312   1.685  -7.376  0.00  0.00    -0.030 A 
BRANCH   7  18
ATOM     17  C   LIG    1        4.768   2.369  -6.374  0.00  0.00    +0.240 C 
ATOM     18  O   LIG    1        3.623   2.227  -7.216  0.00  0.00    -0.320 OA
ENDBRANCH   7  18
ENDBRANCH   1  15
BRANCH   4  19
ATOM     19  C   LIG    1       -0.013   1.086   0.008  0.00  0.00    +0.320 C 
BRANCH  19  20
ATOM     20  C   LIG    1       -0.729   1.579   1.267  0.00  0.00    +0.160 C 
ATOM     21  C   LIG    1       -2.166   1.051   1.277  0.00  0.00    -0.010 C 
ATOM     22  C   LIG    1       -2.894   1.598   2.509  0.00  0.00    +0.010 C 
ATOM     23  C   LIG    1       -2.838   3.128   2.483  0.00  0.00    -0.020 C 
ATOM     24  C   LIG    1       -1.375   3.577   2.426  0.00  0.00    +0.200 C 
ATOM     25  O   LIG    1       -0.748   3.008   1.275  0.00  0.00    -0.370 OA
ENDBRANCH  19  20
BRANCH  19  26
ATOM     26  C   LIG    1        1.423   1.615  -0.003  0.00  0.00    -0.050 C 
ATOM     27  C   LIG    1        1.782   2.660  -1.061  0.00  0.00    +0.020 C 
ATOM     28  C   LIG    1        2.309   1.230  -1.189  0.00  0.00    +0.020 C 
ENDBRANCH  19  26
ENDBRANCH   4  19
TORSDOF 5
