REMARK  Name = ZINCtV00000L6k8Y.0
REMARK                            x       y       z     vdW  Elec       q    Type
REMARK                         _______ _______ _______ _____ _____    ______ ____
ROOT
ATOM      1  P   LIG    1        4.021   3.239  -1.946  0.00  0.00    +2.580 P 
ATOM      2  O   LIG    1        4.117   2.265  -3.056  0.00  0.00    -1.040 OA
ENDROOT
BRANCH   1   3
ATOM      3  C   LIG    1        3.144   4.721  -2.516  0.00  0.00    -0.750 A 
ATOM      4  C   LIG    1        2.283   4.643  -3.594  0.00  0.00    +0.100 A 
ATOM      5  C   LIG    1        1.611   5.771  -4.026  0.00  0.00    +0.000 A 
ATOM      6  C   LIG    1        1.808   6.980  -3.385  0.00  0.00    +0.040 A 
ATOM      7  C   LIG    1        2.674   7.060  -2.310  0.00  0.00    -0.010 A 
ATOM      8  C   LIG    1        3.342   5.930  -1.876  0.00  0.00    +0.070 A 
ENDBRANCH   1   3
BRANCH   1   9
ATOM      9  N   LIG    1        5.529   3.653  -1.450  0.00  0.00    -1.110 N 
ATOM     10  H   LIG    1        5.776   3.558  -0.517  0.00  0.00    +0.410 HD
BRANCH   9  11
ATOM     11  C   LIG    1        6.460   4.143  -2.374  0.00  0.00    +0.130 A 
ATOM     12  C   LIG    1        6.078   4.373  -3.689  0.00  0.00    +0.010 A 
ATOM     13  C   LIG    1        6.994   4.862  -4.599  0.00  0.00    -0.020 A 
ATOM     14  C   LIG    1        8.301   5.112  -4.202  0.00  0.00    +0.190 A 
ATOM     15  C   LIG    1        8.685   4.877  -2.888  0.00  0.00    -0.030 A 
ATOM     16  C   LIG    1        7.767   4.393  -1.977  0.00  0.00    +0.020 A 
BRANCH  14  17
ATOM     17  N   LIG    1        9.232   5.602  -5.126  0.00  0.00    -0.640 N 
ATOM     18  C   LIG    1        8.800   5.966  -6.478  0.00  0.00    +0.270 C 
ATOM     19  C   LIG    1       10.637   5.751  -4.741  0.00  0.00    +0.270 C 
ENDBRANCH  14  17
ENDBRANCH   9  11
ENDBRANCH   1   9
BRANCH   1  20
ATOM     20  O   LIG    1        3.216   2.577  -0.719  0.00  0.00    -0.750 OA
BRANCH  20  27
ATOM     21  C   LIG    1        1.000   2.548   0.244  0.00  0.00    +0.000 C 
ATOM     22  C   LIG    1       -0.396   1.941   0.094  0.00  0.00    +0.020 C 
ATOM     23  C   LIG    1       -0.305   0.418   0.205  0.00  0.00    +0.020 C 
ATOM     24  C   LIG    1        0.607  -0.120  -0.899  0.00  0.00    -0.010 C 
ATOM     25  C   LIG    1        2.003   0.487  -0.749  0.00  0.00    +0.020 C 
ATOM     26  C   LIG    1        0.032   0.258  -2.266  0.00  0.00    +0.020 C 
ATOM     27  C   LIG    1        1.912   2.010  -0.860  0.00  0.00    +0.230 C 
BRANCH  21  29
ATOM     28  C   LIG    1        0.184   4.446  -1.161  0.00  0.00    +0.000 C 
ATOM     29  C   LIG    1        0.908   4.071   0.133  0.00  0.00    -0.020 C 
ATOM     30  C   LIG    1        0.132   4.624   1.330  0.00  0.00    +0.020 C 
ENDBRANCH  21  29
ENDBRANCH  20  27
ENDBRANCH   1  20
TORSDOF 7
