REMARK  Name = ZINCpk00000y6wjU.0
REMARK                            x       y       z     vdW  Elec       q    Type
REMARK                         _______ _______ _______ _____ _____    ______ ____
ROOT
ATOM      1  C   LIG    1       -1.054   0.712   2.184  0.00  0.00    +0.580 C 
ATOM      2  N   LIG    1       -0.503   1.579   1.311  0.00  0.00    -0.610 N 
ATOM      3  C   LIG    1        0.393   1.110   0.244  0.00  0.00    +0.280 C 
ATOM      4  C   LIG    1       -0.092   1.681  -1.092  0.00  0.00    +0.190 C 
ATOM      5  N   LIG    1       -0.214   3.141  -0.981  0.00  0.00    -0.530 NA
ATOM      6  C   LIG    1       -1.226   3.517   0.016  0.00  0.00    +0.270 C 
ATOM      7  C   LIG    1       -0.511   3.746  -2.286  0.00  0.00    +0.210 C 
ATOM      8  C   LIG    1       -0.787   3.020   1.397  0.00  0.00    +0.330 C 
ATOM      9  O   LIG    1       -1.732   1.124   3.104  0.00  0.00    -0.520 OA
ENDROOT
BRANCH   1  14
ATOM     10  C   LIG    1       -0.208  -4.854   1.560  0.00  0.00    +0.180 C 
ATOM     11  C   LIG    1       -0.433  -3.373   1.726  0.00  0.00    +0.340 A 
ATOM     12  N   LIG    1        0.612  -2.570   1.773  0.00  0.00    -0.520 NA
ATOM     13  C   LIG    1        0.460  -1.264   1.911  0.00  0.00    +0.370 A 
ATOM     14  C   LIG    1       -0.833  -0.741   2.021  0.00  0.00    -0.250 A 
ATOM     15  C   LIG    1       -1.912  -1.631   1.966  0.00  0.00    +0.270 A 
ATOM     16  N   LIG    1       -1.669  -2.921   1.819  0.00  0.00    -0.520 NA
BRANCH  15  17
ATOM     17  C   LIG    1       -3.328  -1.126   2.072  0.00  0.00    +0.000 C 
ATOM     18  C   LIG    1       -4.429  -2.158   2.321  0.00  0.00    +0.060 C 
ATOM     19  C   LIG    1       -4.296  -1.496   0.947  0.00  0.00    +0.050 C 
ENDBRANCH  15  17
ENDBRANCH   1  14
BRANCH   6  20
ATOM     20  C   LIG    1       -1.372   5.017   0.043  0.00  0.00    +0.190 A 
ATOM     21  N   LIG    1       -2.497   5.691   0.066  0.00  0.00    -0.470 NA
ATOM     22  C   LIG    1       -2.140   6.988   0.085  0.00  0.00    +0.170 A 
ATOM     23  N   LIG    1       -0.842   7.035   0.072  0.00  0.00    -0.380 NA
ATOM     24  C   LIG    1       -3.075   8.170   0.114  0.00  0.00    +0.200 C 
ATOM     25  O   LIG    1       -0.381   5.913   0.054  0.00  0.00    +0.100 OA
ENDBRANCH   6  20
TORSDOF 3
