REMARK  Name = ZINCvU0000000IdQ.0
REMARK                            x       y       z     vdW  Elec       q    Type
REMARK                         _______ _______ _______ _____ _____    ______ ____
ROOT
ATOM      1  N   LIG    1       -4.958  11.178  -0.727  0.00  0.00    -0.450 N 
ATOM      2  C   LIG    1       -4.532   9.908  -0.456  0.00  0.00    +0.160 A 
ATOM      3  N   LIG    1       -4.743   9.691   0.823  0.00  0.00    -0.290 NA
ATOM      4  N   LIG    1       -5.261  10.733   1.368  0.00  0.00    -0.240 NA
ATOM      5  C   LIG    1       -5.420  11.677   0.469  0.00  0.00    +0.220 A 
ENDROOT
BRANCH   5   6
ATOM      6  C   LIG    1       -5.988  13.022   0.699  0.00  0.00    -0.010 A 
ATOM      7  C   LIG    1       -5.321  14.154   0.230  0.00  0.00    +0.040 A 
ATOM      8  C   LIG    1       -5.859  15.407   0.443  0.00  0.00    +0.030 A 
ATOM      9  C   LIG    1       -7.051  15.543   1.130  0.00  0.00    +0.050 A 
ATOM     10  C   LIG    1       -7.716  14.426   1.604  0.00  0.00    +0.030 A 
ATOM     11  C   LIG    1       -7.192  13.166   1.392  0.00  0.00    +0.000 A 
ATOM     12 CL   LIG    1       -8.027  11.765   1.987  0.00  0.00    -0.040 Cl
ENDBRANCH   5   6
BRANCH   1  13
ATOM     13  C   LIG    1       -4.928  11.865  -2.020  0.00  0.00    +0.310 C 
BRANCH  13  14
ATOM     14  C   LIG    1       -6.259  11.648  -2.743  0.00  0.00    +0.030 C 
BRANCH  14  15
ATOM     15  C   LIG    1       -6.228  12.365  -4.094  0.00  0.00    +0.180 C 
BRANCH  15  17
ATOM     16  C   LIG    1       -7.548  12.796  -6.049  0.00  0.00    +0.200 C 
ATOM     17  O   LIG    1       -7.471  12.163  -4.769  0.00  0.00    -0.390 OA
ENDBRANCH  15  17
ENDBRANCH  14  15
ENDBRANCH  13  14
ENDBRANCH   1  13
BRANCH   2  18
ATOM     18  S   LIG    1       -3.836   8.772  -1.609  0.00  0.00    +0.050 S 
BRANCH  18  19
ATOM     19  C   LIG    1       -3.541   7.359  -0.517  0.00  0.00    +0.000 C 
ATOM     20  C   LIG    1       -4.878   6.818  -0.009  0.00  0.00    +0.090 C 
BRANCH  19  21
ATOM     21  C   LIG    1       -2.818   6.277  -1.279  0.00  0.00    +0.420 C 
ATOM     22  O   LIG    1       -2.921   6.214  -2.486  0.00  0.00    -0.430 OA
BRANCH  21  23
ATOM     23  C   LIG    1       -1.989   5.298  -0.559  0.00  0.00    -0.170 A 
ATOM     24  C   LIG    1       -1.867   5.367   0.832  0.00  0.00    +0.070 A 
ATOM     25  C   LIG    1       -1.088   4.445   1.497  0.00  0.00    +0.010 A 
ATOM     26  C   LIG    1       -0.425   3.450   0.795  0.00  0.00    -0.060 A 
ATOM     27  C   LIG    1        0.480   2.339   1.295  0.00  0.00    +0.080 C 
ATOM     28  C   LIG    1        1.243   1.851   0.045  0.00  0.00    +0.030 C 
ATOM     29  C   LIG    1        0.275   2.210  -1.102  0.00  0.00    +0.080 C 
ATOM     30  C   LIG    1       -0.540   3.375  -0.583  0.00  0.00    -0.110 A 
ATOM     31  C   LIG    1       -1.318   4.293  -1.261  0.00  0.00    +0.090 A 
ENDBRANCH  21  23
ENDBRANCH  19  21
ENDBRANCH  18  19
ENDBRANCH   2  18
TORSDOF 9
