REMARK  Name = ZINCpe000000Z4A6.0
REMARK                            x       y       z     vdW  Elec       q    Type
REMARK                         _______ _______ _______ _____ _____    ______ ____
ROOT
ATOM      1  O   LIG    1        0.361   0.726   7.487  0.00  0.00    -0.590 OA
ATOM      2  C   LIG    1       -0.573   1.479   7.292  0.00  0.00    +0.710 C 
ATOM      3  N   LIG    1       -1.213   2.044   8.335  0.00  0.00    -0.630 N 
ATOM      4  C   LIG    1       -0.735   1.845   9.712  0.00  0.00    +0.330 C 
ATOM      5  C   LIG    1       -0.603   3.223  10.380  0.00  0.00    +0.210 C 
ATOM      6  N   LIG    1       -1.878   3.941  10.264  0.00  0.00    -0.460 N 
ATOM      7  C   LIG    1       -2.218   4.202   8.859  0.00  0.00    +0.220 C 
ATOM      8  C   LIG    1       -2.412   2.870   8.128  0.00  0.00    +0.280 C 
ATOM      9  N   LIG    1       -0.969   1.750   6.032  0.00  0.00    -0.750 N 
ATOM     10  H   LIG    1       -1.759   2.291   5.878  0.00  0.00    +0.400 HD
ENDROOT
BRANCH   6  11
ATOM     11  C   LIG    1       -1.854   5.116  10.995  0.00  0.00    +0.490 A 
ATOM     12  N   LIG    1       -2.115   6.263  10.385  0.00  0.00    -0.550 NA
ATOM     13  C   LIG    1       -2.105   7.403  11.056  0.00  0.00    +0.340 A 
ATOM     14  C   LIG    1       -1.806   7.389  12.409  0.00  0.00    -0.110 A 
ATOM     15  C   LIG    1       -1.532   6.173  13.014  0.00  0.00    +0.350 A 
ATOM     16  N   LIG    1       -1.564   5.069  12.287  0.00  0.00    -0.530 NA
ENDBRANCH   6  11
BRANCH   9  17
ATOM     17  C   LIG    1       -0.206   1.226   4.897  0.00  0.00    +0.280 C 
BRANCH  17  18
ATOM     18  C   LIG    1       -0.863   1.676   3.590  0.00  0.00    +0.030 C 
BRANCH  18  19
ATOM     19  C   LIG    1       -0.066   1.129   2.404  0.00  0.00    +0.170 C 
BRANCH  19  20
ATOM     20  O   LIG    1       -0.680   1.549   1.184  0.00  0.00    -0.380 OA
BRANCH  20  21
ATOM     21  C   LIG    1       -0.010   1.089   0.008  0.00  0.00    +0.190 C 
BRANCH  21  22
ATOM     22  C   LIG    1       -0.751   1.596  -1.232  0.00  0.00    +0.160 C 
ATOM     23  C   LIG    1        0.032   1.212  -2.502  0.00  0.00    +0.010 C 
ATOM     24  C   LIG    1       -0.969   0.360  -3.321  0.00  0.00    +0.000 C 
ATOM     25  C   LIG    1       -2.331   0.795  -2.723  0.00  0.00    +0.190 C 
ATOM     26  O   LIG    1       -2.042   0.970  -1.319  0.00  0.00    -0.360 OA
ENDBRANCH  21  22
ENDBRANCH  20  21
ENDBRANCH  19  20
ENDBRANCH  18  19
ENDBRANCH  17  18
ENDBRANCH   9  17
TORSDOF 7
