REMARK  Name = ZINCpk00000KfKud.2
REMARK                            x       y       z     vdW  Elec       q    Type
REMARK                         _______ _______ _______ _____ _____    ______ ____
ROOT
ATOM      1  C   LIG    1       -2.035  -3.942   0.841  0.00  0.00    +0.260 A 
ATOM      2  N   LIG    1       -3.078  -4.379   0.185  0.00  0.00    -0.310 NA
ATOM      3  N   LIG    1       -3.749  -5.207   0.901  0.00  0.00    -0.040 NA
ATOM      4  N   LIG    1       -3.189  -5.356   2.053  0.00  0.00    -0.070 NA
ATOM      5  N   LIG    1       -2.045  -4.538   2.053  0.00  0.00    -0.330 N 
ENDROOT
BRANCH   5   6
ATOM      6  C   LIG    1       -1.115  -4.375   3.090  0.00  0.00    +0.100 A 
ATOM      7  C   LIG    1        0.202  -4.776   2.913  0.00  0.00    -0.060 A 
ATOM      8  C   LIG    1        1.117  -4.608   3.934  0.00  0.00    +0.030 A 
ATOM      9  C   LIG    1        0.719  -4.053   5.136  0.00  0.00    +0.050 A 
ATOM     10  C   LIG    1       -0.594  -3.658   5.318  0.00  0.00    +0.030 A 
ATOM     11  C   LIG    1        0.635  -5.388   1.606  0.00  0.00    +0.090 C 
ATOM     12  C   LIG    1       -1.512  -3.817   4.298  0.00  0.00    -0.050 A 
ATOM     13  C   LIG    1       -2.942  -3.387   4.497  0.00  0.00    +0.100 C 
ENDBRANCH   5   6
BRANCH   1  14
ATOM     14  C   LIG    1       -1.009  -2.961   0.337  0.00  0.00    +0.320 C 
BRANCH  14  18
ATOM     15  N   LIG    1       -1.454   1.003   1.729  0.00  0.00    -0.520 NA
ATOM     16  C   LIG    1       -2.471   0.017   2.121  0.00  0.00    +0.180 C 
ATOM     17  C   LIG    1       -1.901  -1.394   1.953  0.00  0.00    +0.170 C 
ATOM     18  N   LIG    1       -1.492  -1.591   0.556  0.00  0.00    -0.530 NA
ATOM     19  C   LIG    1       -0.475  -0.605   0.164  0.00  0.00    +0.200 C 
ATOM     20  C   LIG    1       -1.045   0.806   0.332  0.00  0.00    +0.130 C 
ATOM     21  C   LIG    1        0.025   1.836  -0.037  0.00  0.00    +0.040 C 
BRANCH  15  22
ATOM     22  C   LIG    1       -1.938   2.373   1.948  0.00  0.00    +0.190 C 
BRANCH  22  23
ATOM     23  C   LIG    1       -2.446   2.511   3.385  0.00  0.00    +0.160 C 
BRANCH  23  25
ATOM     24  C   LIG    1       -1.732   2.417   5.671  0.00  0.00    +0.200 C 
ATOM     25  O   LIG    1       -1.363   2.309   4.295  0.00  0.00    -0.370 OA
ENDBRANCH  23  25
ENDBRANCH  22  23
ENDBRANCH  15  22
ENDBRANCH  14  18
ENDBRANCH   1  14
TORSDOF 6
