REMARK  Name = ZINCrH000004ozlq.0
REMARK                            x       y       z     vdW  Elec       q    Type
REMARK                         _______ _______ _______ _____ _____    ______ ____
ROOT
ATOM      1  C   LIG    1        1.106   2.692  -2.313  0.00  0.00    +0.030 C 
ATOM      2  C   LIG    1        1.618   3.420  -1.069  0.00  0.00    +0.010 C 
ATOM      3  C   LIG    1        3.140   3.277  -0.985  0.00  0.00    +0.030 C 
ATOM      4  C   LIG    1        3.650   3.988   0.271  0.00  0.00    +0.010 C 
ATOM      5  C   LIG    1        3.017   3.353   1.511  0.00  0.00    +0.020 C 
ATOM      6  C   LIG    1        1.495   3.497   1.436  0.00  0.00    +0.000 C 
ATOM      7  C   LIG    1        1.124   4.981   1.398  0.00  0.00    +0.040 C 
ATOM      8  C   LIG    1        0.980   2.812   0.175  0.00  0.00    +0.130 C 
ATOM      9  N   LIG    1        1.240   1.367   0.233  0.00  0.00    -0.720 N 
ATOM     10  H   LIG    1        2.107   0.935   0.288  0.00  0.00    +0.440 HD
ATOM     11  C   LIG    1        0.038   0.762   0.192  0.00  0.00    +0.710 C 
ATOM     12  N   LIG    1       -0.972   1.637   0.110  0.00  0.00    -0.570 N 
ATOM     13  O   LIG    1       -0.113  -0.443   0.221  0.00  0.00    -0.540 OA
ATOM     14  C   LIG    1       -0.526   2.911   0.098  0.00  0.00    +0.540 C 
ATOM     15  O   LIG    1       -1.193   3.921   0.034  0.00  0.00    -0.460 OA
ENDROOT
BRANCH  12  16
ATOM     16  C   LIG    1       -2.386   1.259   0.046  0.00  0.00    +0.470 C 
BRANCH  16  17
ATOM     17  N   LIG    1       -2.933   1.177   1.407  0.00  0.00    -0.540 NA
ATOM     18  C   LIG    1       -3.367   2.498   1.881  0.00  0.00    +0.200 C 
BRANCH  17  19
ATOM     19  C   LIG    1       -4.033   0.205   1.475  0.00  0.00    +0.230 C 
ATOM     20  C   LIG    1       -5.209   0.719   0.647  0.00  0.00    -0.010 C 
ATOM     21  C   LIG    1       -6.415  -0.193   0.904  0.00  0.00    +0.030 C 
ATOM     22  C   LIG    1       -6.901   0.042   2.332  0.00  0.00    +0.080 C 
ATOM     23  C   LIG    1       -5.757  -0.064   3.306  0.00  0.00    -0.070 A 
ATOM     24  C   LIG    1       -6.064  -0.247   4.648  0.00  0.00    -0.010 A 
ATOM     25  C   LIG    1       -5.060  -0.348   5.589  0.00  0.00    +0.010 A 
ATOM     26  C   LIG    1       -3.738  -0.265   5.195  0.00  0.00    -0.010 A 
ATOM     27  C   LIG    1       -3.431  -0.085   3.862  0.00  0.00    +0.040 A 
ATOM     28  C   LIG    1       -4.439   0.015   2.912  0.00  0.00    -0.080 A 
ENDBRANCH  17  19
ENDBRANCH  16  17
ENDBRANCH  12  16
TORSDOF 3
