REMARK  Name = ZINCqH0000033x56.0
REMARK                            x       y       z     vdW  Elec       q    Type
REMARK                         _______ _______ _______ _____ _____    ______ ____
ROOT
ATOM      1  N   LIG    1       -1.504   2.156   2.451  0.00  0.00    -0.630 N 
ATOM      2  H   LIG    1       -0.665   1.686   2.584  0.00  0.00    +0.420 HD
ATOM      3  C   LIG    1       -2.230   2.553   3.515  0.00  0.00    +0.490 C 
ATOM      4  O   LIG    1       -3.278   3.140   3.348  0.00  0.00    -0.470 OA
ENDROOT
BRANCH   1   6
ATOM      5  C   LIG    1       -1.294   2.059   0.019  0.00  0.00    -0.190 A 
ATOM      6  C   LIG    1       -1.954   2.419   1.167  0.00  0.00    +0.040 A 
ATOM      7  S   LIG    1       -3.404   3.236   0.797  0.00  0.00    +0.320 S 
ATOM      8  C   LIG    1       -3.135   3.091  -0.931  0.00  0.00    -0.110 A 
ATOM      9  C   LIG    1       -1.999   2.457  -1.180  0.00  0.00    -0.010 A 
BRANCH   9  10
ATOM     10  C   LIG    1       -1.492   2.179  -2.571  0.00  0.00    +0.000 C 
ATOM     11  C   LIG    1       -2.234   2.833  -3.738  0.00  0.00    +0.030 C 
ATOM     12  C   LIG    1       -2.374   1.330  -3.489  0.00  0.00    +0.040 C 
ENDBRANCH   9  10
BRANCH   5  13
ATOM     13  C   LIG    1       -0.016   1.345   0.009  0.00  0.00    +0.540 C 
ATOM     14  O   LIG    1        1.029   1.967   0.003  0.00  0.00    -0.490 OA
BRANCH  13  15
ATOM     15  O   LIG    1        0.002  -0.004   0.002  0.00  0.00    -0.350 OA
BRANCH  15  17
ATOM     16  C   LIG    1        1.125  -2.165  -0.020  0.00  0.00    +0.070 C 
ATOM     17  C   LIG    1        1.305  -0.646  -0.014  0.00  0.00    +0.200 C 
ENDBRANCH  15  17
ENDBRANCH  13  15
ENDBRANCH   5  13
ENDBRANCH   1   6
BRANCH   3  18
ATOM     18  C   LIG    1       -1.740   2.267   4.911  0.00  0.00    +0.370 C 
BRANCH  18  19
ATOM     19  N   LIG    1       -2.700   2.795   5.883  0.00  0.00    -0.490 N 
ATOM     20  C   LIG    1       -2.637   4.005   6.502  0.00  0.00    +0.480 A 
ATOM     21  N   LIG    1       -3.654   4.152   7.301  0.00  0.00    -0.490 NA
ATOM     22  C   LIG    1       -4.434   3.042   7.256  0.00  0.00    +0.050 A 
ATOM     23  C   LIG    1       -5.616   2.668   7.899  0.00  0.00    +0.070 A 
ATOM     24  C   LIG    1       -6.177   1.449   7.639  0.00  0.00    +0.000 A 
ATOM     25  C   LIG    1       -5.583   0.574   6.741  0.00  0.00    +0.030 A 
ATOM     26  C   LIG    1       -4.416   0.922   6.095  0.00  0.00    +0.010 A 
ATOM     27  C   LIG    1       -3.832   2.155   6.346  0.00  0.00    +0.060 A 
ENDBRANCH  18  19
ENDBRANCH   3  18
TORSDOF 7
