REMARK  Name = ZINCrH000004mQxq.0
REMARK                            x       y       z     vdW  Elec       q    Type
REMARK                         _______ _______ _______ _____ _____    ______ ____
ROOT
ATOM      1  N   LIG    1        2.685  -0.457   3.688  0.00  0.00    -0.660 N 
ATOM      2  H   LIG    1        3.067  -0.802   2.866  0.00  0.00    +0.420 HD
ATOM      3  C   LIG    1        3.269  -0.733   4.871  0.00  0.00    +0.510 C 
ATOM      4  O   LIG    1        2.747  -0.373   5.904  0.00  0.00    -0.510 OA
ENDROOT
BRANCH   1   8
ATOM      5  C   LIG    1       -0.768   1.883   3.569  0.00  0.00    +0.110 A 
ATOM      6  C   LIG    1       -0.557   1.011   4.624  0.00  0.00    -0.020 A 
ATOM      7  C   LIG    1        0.587   0.236   4.664  0.00  0.00    +0.050 A 
ATOM      8  C   LIG    1        1.526   0.330   3.646  0.00  0.00    +0.140 A 
ATOM      9  C   LIG    1        1.315   1.198   2.584  0.00  0.00    -0.030 A 
ATOM     10  C   LIG    1        0.172   1.979   2.547  0.00  0.00    +0.090 A 
BRANCH   5  12
ATOM     11  C   LIG    1       -2.816   2.495   4.613  0.00  0.00    +0.240 C 
ATOM     12  O   LIG    1       -1.895   2.645   3.531  0.00  0.00    -0.310 OA
ENDBRANCH   5  12
BRANCH  10  13
ATOM     13  O   LIG    1       -0.035   2.835   1.510  0.00  0.00    -0.310 OA
BRANCH  13  14
ATOM     14  C   LIG    1        0.972   2.881   0.497  0.00  0.00    +0.590 C 
ATOM     15  F   LIG    1        2.190   3.268   1.067  0.00  0.00    -0.200 F 
ATOM     16  F   LIG    1        1.110   1.615  -0.082  0.00  0.00    -0.200 F 
ENDBRANCH  13  14
ENDBRANCH  10  13
ENDBRANCH   1   8
BRANCH   3  17
ATOM     17  C   LIG    1        4.572  -1.490   4.909  0.00  0.00    +0.250 C 
ATOM     18  C   LIG    1        5.640  -0.706   4.143  0.00  0.00    +0.060 C 
BRANCH  17  19
ATOM     19  N   LIG    1        4.996  -1.662   6.301  0.00  0.00    -0.710 N 
ATOM     20  H   LIG    1        4.695  -1.039   6.980  0.00  0.00    +0.410 HD
ATOM     21  C   LIG    1        5.805  -2.687   6.637  0.00  0.00    +0.570 C 
ATOM     22  O   LIG    1        6.182  -3.468   5.785  0.00  0.00    -0.530 OA
BRANCH  21  23
ATOM     23  C   LIG    1        6.233  -2.860   8.041  0.00  0.00    -0.130 A 
ATOM     24  C   LIG    1        5.806  -1.961   9.020  0.00  0.00    +0.070 A 
ATOM     25  C   LIG    1        6.206  -2.130  10.329  0.00  0.00    +0.020 A 
ATOM     26  C   LIG    1        7.036  -3.184  10.671  0.00  0.00    -0.010 A 
ATOM     27  C   LIG    1        7.467  -4.077   9.704  0.00  0.00    +0.020 A 
ATOM     28 CL   LIG    1        7.540  -3.388  12.320  0.00  0.00    -0.060 Cl
ATOM     29  C   LIG    1        7.071  -3.920   8.392  0.00  0.00    +0.110 A 
ENDBRANCH  21  23
ENDBRANCH  17  19
ENDBRANCH   3  17
TORSDOF 7
