REMARK  Name = ZINCrg000000sUCd.0
REMARK                            x       y       z     vdW  Elec       q    Type
REMARK                         _______ _______ _______ _____ _____    ______ ____
ROOT
ATOM      1  C   LIG    1        0.273  -2.791   2.396  0.00  0.00    -0.090 A 
ATOM      2  C   LIG    1        0.380  -2.089   3.598  0.00  0.00    -0.020 A 
ATOM      3  C   LIG    1        0.361  -0.709   3.595  0.00  0.00    +0.050 A 
ATOM      4  C   LIG    1        0.235  -0.018   2.405  0.00  0.00    -0.050 A 
ATOM      5  C   LIG    1        0.129  -0.708   1.202  0.00  0.00    +0.210 A 
ATOM      6  C   LIG    1        0.142  -2.094   1.195  0.00  0.00    +0.010 A 
ENDROOT
BRANCH   1   9
ATOM      7  N   LIG    1        0.417  -4.942   3.559  0.00  0.00    -0.730 N 
ATOM      8  H   LIG    1        0.491  -4.455   4.395  0.00  0.00    +0.400 HD
ATOM      9  C   LIG    1        0.294  -4.270   2.397  0.00  0.00    +0.560 C 
ATOM     10  O   LIG    1        0.201  -4.879   1.349  0.00  0.00    -0.530 OA
BRANCH   7  11
ATOM     11  C   LIG    1        0.438  -6.407   3.559  0.00  0.00    +0.290 C 
BRANCH  11  12
ATOM     12  C   LIG    1        0.584  -6.914   4.995  0.00  0.00    +0.040 C 
BRANCH  12  16
ATOM     13  N   LIG    1        0.728  -9.092   6.158  0.00  0.00    -0.860 N 
ATOM     14  H   LIG    1        0.742 -10.062   6.158  0.00  0.00    +0.400 HD
ATOM     15  H   LIG    1        0.802  -8.606   6.994  0.00  0.00    +0.400 HD
ATOM     16  C   LIG    1        0.606  -8.421   4.996  0.00  0.00    +0.520 C 
ATOM     17  O   LIG    1        0.513  -9.029   3.951  0.00  0.00    -0.540 OA
ENDBRANCH  12  16
ENDBRANCH  11  12
ENDBRANCH   7  11
ENDBRANCH   1   9
BRANCH   5  18
ATOM     18  N   LIG    1        0.002  -0.004   0.002  0.00  0.00    -0.730 N 
ATOM     19  H   LIG    1       -0.072  -0.485  -0.837  0.00  0.00    +0.410 HD
BRANCH  18  20
ATOM     20  C   LIG    1       -0.018   1.461   0.010  0.00  0.00    +0.410 C 
BRANCH  20  21
ATOM     21  C   LIG    1        1.396   1.982  -0.001  0.00  0.00    +0.210 A 
ATOM     22  N   LIG    1        1.855   2.947   0.752  0.00  0.00    -0.310 NA
ATOM     23  N   LIG    1        3.211   3.110   0.422  0.00  0.00    -0.480 N 
ATOM     24  H   LIG    1        3.830   3.748   0.807  0.00  0.00    +0.440 HD
ATOM     25  C   LIG    1        3.478   2.204  -0.535  0.00  0.00    +0.480 A 
ATOM     26  N   LIG    1        2.382   1.531  -0.775  0.00  0.00    -0.530 NA
ENDBRANCH  20  21
BRANCH  20  27
ATOM     27  C   LIG    1       -0.747   1.960  -1.211  0.00  0.00    -0.150 A 
ATOM     28  C   LIG    1       -1.609   3.042  -1.120  0.00  0.00    +0.090 A 
ATOM     29  C   LIG    1       -2.254   3.470  -2.271  0.00  0.00    -0.030 A 
ATOM     30  C   LIG    1       -2.026   2.802  -3.459  0.00  0.00    +0.270 A 
ATOM     31  N   LIG    1       -1.203   1.772  -3.506  0.00  0.00    -0.480 NA
ATOM     32  C   LIG    1       -0.568   1.341  -2.434  0.00  0.00    +0.290 A 
ENDBRANCH  20  27
ENDBRANCH  18  20
ENDBRANCH   5  18
TORSDOF 8
