REMARK  Name = ZINCrg000000sUCd.1
REMARK                            x       y       z     vdW  Elec       q    Type
REMARK                         _______ _______ _______ _____ _____    ______ ____
ROOT
ATOM      1  C   LIG    1       -0.017   1.391   0.010  0.00  0.00    -0.080 A 
ATOM      2  C   LIG    1        0.002  -0.004   0.002  0.00  0.00    -0.020 A 
ATOM      3  C   LIG    1        1.207  -0.678  -0.013  0.00  0.00    +0.050 A 
ATOM      4  C   LIG    1        2.397   0.024  -0.020  0.00  0.00    -0.070 A 
ATOM      5  C   LIG    1        2.389   1.415  -0.013  0.00  0.00    +0.210 A 
ATOM      6  C   LIG    1        1.184   2.101   0.002  0.00  0.00    +0.020 A 
ENDROOT
BRANCH   1   9
ATOM      7  N   LIG    1       -2.465   1.428   0.021  0.00  0.00    -0.730 N 
ATOM      8  H   LIG    1       -2.454   0.458   0.016  0.00  0.00    +0.400 HD
ATOM      9  C   LIG    1       -1.306   2.116   0.020  0.00  0.00    +0.560 C 
ATOM     10  O   LIG    1       -1.320   3.331   0.026  0.00  0.00    -0.530 OA
BRANCH   7  11
ATOM     11  C   LIG    1       -3.742   2.146   0.031  0.00  0.00    +0.290 C 
BRANCH  11  12
ATOM     12  C   LIG    1       -4.894   1.138   0.031  0.00  0.00    +0.040 C 
BRANCH  12  16
ATOM     13  N   LIG    1       -7.367   1.189   0.043  0.00  0.00    -0.860 N 
ATOM     14  H   LIG    1       -8.212   1.664   0.050  0.00  0.00    +0.400 HD
ATOM     15  H   LIG    1       -7.355   0.219   0.038  0.00  0.00    +0.400 HD
ATOM     16  C   LIG    1       -6.207   1.876   0.042  0.00  0.00    +0.520 C 
ATOM     17  O   LIG    1       -6.221   3.089   0.048  0.00  0.00    -0.540 OA
ENDBRANCH  12  16
ENDBRANCH  11  12
ENDBRANCH   7  11
ENDBRANCH   1   9
BRANCH   5  18
ATOM     18  N   LIG    1        3.595   2.120  -0.020  0.00  0.00    -0.730 N 
ATOM     19  H   LIG    1        3.589   3.090  -0.015  0.00  0.00    +0.410 HD
BRANCH  18  20
ATOM     20  C   LIG    1        4.868   1.395  -0.035  0.00  0.00    +0.410 C 
BRANCH  20  21
ATOM     21  C   LIG    1        5.230   1.046  -1.456  0.00  0.00    +0.150 A 
ATOM     22  N   LIG    1        5.514   1.889  -2.411  0.00  0.00    -0.270 NA
ATOM     23  N   LIG    1        5.777   1.245  -3.493  0.00  0.00    -0.290 NA
ATOM     24  C   LIG    1        5.672  -0.038  -3.277  0.00  0.00    +0.380 A 
ATOM     25  N   LIG    1        5.327  -0.201  -1.977  0.00  0.00    -0.580 N 
ATOM     26  H   LIG    1        5.178  -1.040  -1.513  0.00  0.00    +0.430 HD
ENDBRANCH  20  21
BRANCH  20  27
ATOM     27  C   LIG    1        5.947   2.262   0.560  0.00  0.00    -0.150 A 
ATOM     28  C   LIG    1        6.907   1.713   1.395  0.00  0.00    +0.080 A 
ATOM     29  C   LIG    1        7.881   2.549   1.920  0.00  0.00    -0.030 A 
ATOM     30  C   LIG    1        7.863   3.892   1.594  0.00  0.00    +0.270 A 
ATOM     31  N   LIG    1        6.933   4.380   0.796  0.00  0.00    -0.480 NA
ATOM     32  C   LIG    1        5.995   3.614   0.275  0.00  0.00    +0.300 A 
ENDBRANCH  20  27
ENDBRANCH  18  20
ENDBRANCH   5  18
TORSDOF 8
