REMARK  Name = ZINCqH0000000tSa.0
REMARK                            x       y       z     vdW  Elec       q    Type
REMARK                         _______ _______ _______ _____ _____    ______ ____
ROOT
ATOM      1  C   LIG    1       -6.048  -1.414   0.209  0.00  0.00    +0.550 C 
ATOM      2  N   LIG    1       -7.158  -0.818   0.963  0.00  0.00    -0.740 N 
ATOM      3  H   LIG    1       -7.920  -0.434   0.502  0.00  0.00    +0.420 HD
ATOM      4  C   LIG    1       -7.092  -0.815   2.352  0.00  0.00    +0.240 A 
ATOM      5  C   LIG    1       -7.691   0.173   3.112  0.00  0.00    -0.050 A 
ATOM      6  C   LIG    1       -7.590   0.131   4.490  0.00  0.00    +0.080 A 
ATOM      7  C   LIG    1       -6.894  -0.892   5.115  0.00  0.00    -0.040 A 
ATOM      8  C   LIG    1       -6.292  -1.886   4.371  0.00  0.00    +0.120 A 
ATOM      9  C   LIG    1       -6.388  -1.857   2.982  0.00  0.00    -0.200 A 
ATOM     10  C   LIG    1       -5.771  -2.898   2.140  0.00  0.00    +0.570 C 
ATOM     11  O   LIG    1       -5.374  -3.935   2.635  0.00  0.00    -0.510 OA
ATOM     12  N   LIG    1       -5.651  -2.686   0.813  0.00  0.00    -0.620 N 
ENDROOT
BRANCH   1  16
ATOM     13  C   LIG    1       -2.718   1.264   0.235  0.00  0.00    +0.160 A 
ATOM     14  C   LIG    1       -3.378   0.985  -0.955  0.00  0.00    -0.010 A 
ATOM     15  C   LIG    1       -4.449   0.114  -0.961  0.00  0.00    +0.060 A 
ATOM     16  C   LIG    1       -4.874  -0.470   0.218  0.00  0.00    -0.140 A 
ATOM     17  C   LIG    1       -4.223  -0.190   1.406  0.00  0.00    +0.050 A 
ATOM     18  C   LIG    1       -3.147   0.676   1.417  0.00  0.00    +0.020 A 
BRANCH  13  21
ATOM     19  C   LIG    1        0.630   2.800   1.010  0.00  0.00    +0.110 C 
ATOM     20  C   LIG    1       -0.595   1.925   1.081  0.00  0.00    +0.510 C 
ATOM     21  N   LIG    1       -1.628   2.142   0.243  0.00  0.00    -0.680 N 
ATOM     22  H   LIG    1       -1.615   2.905  -0.355  0.00  0.00    +0.410 HD
ATOM     23  O   LIG    1       -0.649   1.022   1.890  0.00  0.00    -0.520 OA
ENDBRANCH  13  21
ENDBRANCH   1  16
BRANCH  12  24
ATOM     24  C   LIG    1       -5.114  -3.750  -0.039  0.00  0.00    +0.340 C 
BRANCH  24  25
ATOM     25  C   LIG    1       -3.586  -3.670  -0.052  0.00  0.00    +0.430 C 
ATOM     26  F   LIG    1       -3.186  -2.479  -0.668  0.00  0.00    -0.180 F 
ATOM     27  F   LIG    1       -3.068  -4.759  -0.761  0.00  0.00    -0.180 F 
ATOM     28  F   LIG    1       -3.107  -3.699   1.262  0.00  0.00    -0.170 F 
ENDBRANCH  24  25
ENDBRANCH  12  24
TORSDOF 4
