REMARK  Name = ZINCpk00000jNRyy.0
REMARK                            x       y       z     vdW  Elec       q    Type
REMARK                         _______ _______ _______ _____ _____    ______ ____
ROOT
ATOM      1  C   LIG    1        0.515  -2.661   1.904  0.00  0.00    +0.510 C 
ATOM      2  N   LIG    1        0.139  -2.249   3.131  0.00  0.00    -0.620 N 
ATOM      3  C   LIG    1       -1.076  -1.482   3.478  0.00  0.00    +0.260 C 
ATOM      4  C   LIG    1       -0.981  -1.240   5.016  0.00  0.00    +0.260 C 
ATOM      5  C   LIG    1        0.579  -1.120   5.162  0.00  0.00    +0.050 C 
ATOM      6  N   LIG    1       -1.221  -2.586   5.616  0.00  0.00    -0.620 N 
ATOM      7  C   LIG    1       -2.277  -2.963   6.364  0.00  0.00    +0.590 C 
ATOM      8  O   LIG    1       -3.114  -2.143   6.690  0.00  0.00    -0.540 OA
ATOM      9  C   LIG    1       -0.055  -3.440   5.215  0.00  0.00    +0.260 C 
ATOM     10  C   LIG    1        0.869  -2.471   4.415  0.00  0.00    +0.250 C 
ATOM     11  O   LIG    1       -0.129  -2.332   0.930  0.00  0.00    -0.530 OA
ENDROOT
BRANCH   7  12
ATOM     12  C   LIG    1       -2.417  -4.368   6.787  0.00  0.00    -0.220 A 
ATOM     13  C   LIG    1       -2.188  -5.402   5.876  0.00  0.00    +0.080 A 
ATOM     14  C   LIG    1       -2.320  -6.714   6.277  0.00  0.00    -0.150 A 
ATOM     15  C   LIG    1       -2.680  -7.014   7.581  0.00  0.00    +0.090 A 
ATOM     16  C   LIG    1       -2.910  -6.004   8.493  0.00  0.00    -0.070 A 
ATOM     17  C   LIG    1       -2.072  -7.828   5.293  0.00  0.00    +0.080 C 
ATOM     18  C   LIG    1       -2.776  -4.676   8.109  0.00  0.00    +0.270 A 
BRANCH  18  19
ATOM     19  N   LIG    1       -3.000  -3.658   9.026  0.00  0.00    -0.860 N 
ATOM     20  H   LIG    1       -3.179  -3.872   9.955  0.00  0.00    +0.400 HD
ATOM     21  H   LIG    1       -2.978  -2.732   8.738  0.00  0.00    +0.410 HD
ENDBRANCH  18  19
ENDBRANCH   7  12
BRANCH   1  22
ATOM     22  C   LIG    1        1.734  -3.531   1.742  0.00  0.00    +0.220 C 
BRANCH  22  23
ATOM     23  C   LIG    1        1.477  -4.896   2.385  0.00  0.00    -0.040 C 
ATOM     24  C   LIG    1        0.306  -5.581   1.677  0.00  0.00    +0.020 C 
BRANCH  23  26
ATOM     25  C   LIG    1        2.516  -7.080   3.008  0.00  0.00    +0.010 C 
ATOM     26  C   LIG    1        2.730  -5.764   2.257  0.00  0.00    +0.020 C 
ENDBRANCH  23  26
ENDBRANCH  22  23
BRANCH  22  27
ATOM     27  O   LIG    1        2.014  -3.705   0.351  0.00  0.00    -0.530 OA
ATOM     28  H   LIG    1        1.297  -4.124  -0.144  0.00  0.00    +0.380 HD
ENDBRANCH  22  27
ENDBRANCH   1  22
TORSDOF 6
