REMARK  Name = ZINCvU0000000DTZ.0
REMARK                            x       y       z     vdW  Elec       q    Type
REMARK                         _______ _______ _______ _____ _____    ______ ____
ROOT
ATOM      1  C   LIG    1        6.159  -0.483  -0.168  0.00  0.00    -0.070 A 
ATOM      2  C   LIG    1        4.923   0.148  -0.173  0.00  0.00    +0.080 A 
ATOM      3  C   LIG    1        3.755  -0.623  -0.052  0.00  0.00    +0.190 A 
ATOM      4  N   LIG    1        3.786  -1.935   0.055  0.00  0.00    -0.430 NA
ATOM      5  C   LIG    1        4.929  -2.623   0.062  0.00  0.00    +0.120 A 
ATOM      6  C   LIG    1        4.931  -4.026   0.178  0.00  0.00    +0.050 A 
ATOM      7  C   LIG    1        6.114  -4.701   0.181  0.00  0.00    +0.030 A 
ATOM      8  C   LIG    1        7.327  -4.026   0.072  0.00  0.00    +0.030 A 
ATOM      9  C   LIG    1        7.364  -2.667  -0.041  0.00  0.00    +0.050 A 
ATOM     10  C   LIG    1        6.168  -1.942  -0.048  0.00  0.00    -0.060 A 
ENDROOT
BRANCH   3  11
ATOM     11  C   LIG    1        2.443   0.063  -0.053  0.00  0.00    -0.040 A 
ATOM     12  C   LIG    1        2.222   1.149   0.776  0.00  0.00    +0.040 A 
ATOM     13  C   LIG    1        0.993   1.799   0.781  0.00  0.00    +0.010 A 
ATOM     14  C   LIG    1       -0.025   1.387  -0.026  0.00  0.00    +0.040 A 
ATOM     15  C   LIG    1        0.156   0.288  -0.884  0.00  0.00    -0.050 A 
ATOM     16  C   LIG    1       -0.878  -0.155  -1.726  0.00  0.00    +0.020 A 
ATOM     17  C   LIG    1       -0.668  -1.222  -2.545  0.00  0.00    +0.010 A 
ATOM     18  C   LIG    1        0.558  -1.883  -2.562  0.00  0.00    +0.000 A 
ATOM     19  C   LIG    1        1.582  -1.480  -1.758  0.00  0.00    +0.030 A 
ATOM     20  C   LIG    1        1.402  -0.385  -0.901  0.00  0.00    -0.020 A 
ENDBRANCH   3  11
BRANCH   1  21
ATOM     21  C   LIG    1        7.415   0.286  -0.287  0.00  0.00    +0.520 C 
ATOM     22  O   LIG    1        8.476  -0.296  -0.386  0.00  0.00    -0.490 OA
BRANCH  21  23
ATOM     23  O   LIG    1        7.383   1.633  -0.286  0.00  0.00    -0.320 OA
BRANCH  23  24
ATOM     24  C   LIG    1        8.655   2.322  -0.406  0.00  0.00    +0.270 C 
BRANCH  24  27
ATOM     25  N   LIG    1        9.467   4.657  -0.486  0.00  0.00    -0.720 N 
ATOM     26  H   LIG    1       10.368   4.308  -0.570  0.00  0.00    +0.400 HD
ATOM     27  C   LIG    1        8.423   3.811  -0.387  0.00  0.00    +0.520 C 
ATOM     28  O   LIG    1        7.296   4.248  -0.281  0.00  0.00    -0.510 OA
BRANCH  25  30
ATOM     29  C   LIG    1        8.570   6.499   0.851  0.00  0.00    +0.040 C 
ATOM     30  C   LIG    1        9.241   6.105  -0.467  0.00  0.00    +0.170 C 
ATOM     31  C   LIG    1        8.336   6.496  -1.637  0.00  0.00    +0.040 C 
ATOM     32  C   LIG    1       10.582   6.832  -0.594  0.00  0.00    +0.040 C 
ENDBRANCH  25  30
ENDBRANCH  24  27
ENDBRANCH  23  24
ENDBRANCH  21  23
ENDBRANCH   1  21
TORSDOF 6
