REMARK  Name = ZINCpe00000MJISL.0
REMARK                            x       y       z     vdW  Elec       q    Type
REMARK                         _______ _______ _______ _____ _____    ______ ____
ROOT
ATOM      1  O   LIG    1       -0.023   3.743   0.516  0.00  0.00    -0.490 OA
ATOM      2  C   LIG    1       -0.339   3.107   1.499  0.00  0.00    +0.510 C 
ATOM      3  N   LIG    1       -0.701   3.748   2.628  0.00  0.00    -0.660 N 
ATOM      4  H   LIG    1       -0.899   3.241   3.431  0.00  0.00    +0.420 HD
ENDROOT
BRANCH   2   5
ATOM      5  C   LIG    1       -0.326   1.601   1.459  0.00  0.00    +0.040 C 
ATOM      6  C   LIG    1        0.875   1.115   0.623  0.00  0.00    -0.260 C 
ATOM      7  S   LIG    1        0.229   0.939  -1.080  0.00  0.00    +2.410 S 
ATOM      8  C   LIG    1       -1.506   1.400  -0.710  0.00  0.00    -0.290 C 
ATOM      9  O   LIG    1        0.814   1.933  -1.910  0.00  0.00    -0.900 OA
ATOM     10  O   LIG    1        0.282  -0.428  -1.464  0.00  0.00    -0.920 OA
ATOM     11  C   LIG    1       -1.622   1.090   0.805  0.00  0.00    +0.030 C 
BRANCH  11  12
ATOM     12  C   LIG    1       -2.831   1.817   1.397  0.00  0.00    +0.460 C 
ATOM     13  F   LIG    1       -2.755   3.179   1.085  0.00  0.00    -0.170 F 
ATOM     14  F   LIG    1       -2.837   1.657   2.787  0.00  0.00    -0.180 F 
ATOM     15  F   LIG    1       -4.006   1.281   0.861  0.00  0.00    -0.170 F 
ENDBRANCH  11  12
ENDBRANCH   2   5
BRANCH   3  16
ATOM     16  C   LIG    1       -0.791   5.145   2.643  0.00  0.00    +0.110 A 
ATOM     17  C   LIG    1       -1.758   5.780   3.410  0.00  0.00    +0.300 A 
ATOM     18  N   LIG    1       -1.849   7.095   3.428  0.00  0.00    -0.430 NA
ATOM     19  C   LIG    1       -1.034   7.858   2.727  0.00  0.00    +0.310 A 
ATOM     20  C   LIG    1       -0.042   7.299   1.934  0.00  0.00    +0.020 A 
ATOM     21  C   LIG    1        0.091   5.916   1.892  0.00  0.00    +0.090 A 
BRANCH  20  22
ATOM     22  O   LIG    1        0.794   8.093   1.214  0.00  0.00    -0.650 OA
BRANCH  22  23
ATOM     23  S   LIG    1        2.057   8.501   1.959  0.00  0.00    +2.740 S 
ATOM     24  F   LIG    1        3.095   7.276   1.841  0.00  0.00    -0.480 F 
ATOM     25  O   LIG    1        1.700   8.594   3.332  0.00  0.00    -0.940 OA
ATOM     26  O   LIG    1        2.623   9.579   1.229  0.00  0.00    -0.910 OA
ENDBRANCH  22  23
ENDBRANCH  20  22
ENDBRANCH   3  16
TORSDOF 5
