REMARK  Name = ZINCpk000000nnQw.0
REMARK                            x       y       z     vdW  Elec       q    Type
REMARK                         _______ _______ _______ _____ _____    ______ ____
ROOT
ATOM      1  S   LIG    1        2.654  -1.782  -2.720  0.00  0.00    +2.600 S 
ATOM      2  O   LIG    1        3.984  -1.445  -2.352  0.00  0.00    -0.960 OA
ATOM      3  O   LIG    1        1.964  -1.050  -3.724  0.00  0.00    -0.920 OA
ENDROOT
BRANCH   1   4
ATOM      4  N   LIG    1        2.777  -3.312  -3.341  0.00  0.00    -1.110 NA
ATOM      5  H   LIG    1        3.638  -3.758  -3.364  0.00  0.00    +0.420 HD
BRANCH   4   6
ATOM      6  C   LIG    1        1.585  -3.991  -3.855  0.00  0.00    +0.280 C 
BRANCH   6   8
ATOM      7  C   LIG    1        2.698  -6.228  -3.805  0.00  0.00    +0.060 C 
ATOM      8  C   LIG    1        2.009  -5.195  -4.699  0.00  0.00    +0.100 C 
ATOM      9  C   LIG    1        0.774  -5.824  -5.347  0.00  0.00    +0.020 C 
BRANCH   8  10
ATOM     10  N   LIG    1        2.941  -4.755  -5.746  0.00  0.00    -0.520 NA
ATOM     11  C   LIG    1        2.329  -3.723  -6.596  0.00  0.00    +0.160 C 
ATOM     12  C   LIG    1        3.352  -3.252  -7.633  0.00  0.00    +0.220 C 
ATOM     13  O   LIG    1        3.808  -4.376  -8.390  0.00  0.00    -0.390 OA
ATOM     14  C   LIG    1        4.410  -5.400  -7.594  0.00  0.00    +0.220 C 
ATOM     15  C   LIG    1        3.398  -5.893  -6.557  0.00  0.00    +0.150 C 
ENDBRANCH   8  10
ENDBRANCH   6   8
ENDBRANCH   4   6
ENDBRANCH   1   4
BRANCH   1  16
ATOM     16  C   LIG    1        1.615  -1.974  -1.245  0.00  0.00    -0.330 C 
BRANCH  16  17
ATOM     17  C   LIG    1        1.425  -0.613  -0.574  0.00  0.00    -0.110 C 
ATOM     18  C   LIG    1        2.723   0.075  -0.051  0.00  0.00    +0.040 C 
ATOM     19  C   LIG    1        2.227   1.104   0.990  0.00  0.00    +0.040 C 
ATOM     20  C   LIG    1        0.675   0.944   0.988  0.00  0.00    +0.030 C 
ATOM     21  C   LIG    1        0.232   1.498  -0.401  0.00  0.00    +0.030 C 
ATOM     22  C   LIG    1        0.545  -0.599   0.726  0.00  0.00    -0.050 C 
ATOM     23  C   LIG    1       -0.901  -1.016   0.448  0.00  0.00    +0.040 C 
ATOM     24  C   LIG    1        1.168  -1.428   1.851  0.00  0.00    +0.050 C 
ATOM     25  C   LIG    1        0.724   0.469  -1.408  0.00  0.00    +0.340 C 
ATOM     26  O   LIG    1        0.592   0.497  -2.608  0.00  0.00    -0.390 OA
ENDBRANCH  16  17
ENDBRANCH   1  16
TORSDOF 6
