REMARK  Name = ZINCnE000001C6Tc.1
REMARK                            x       y       z     vdW  Elec       q    Type
REMARK                         _______ _______ _______ _____ _____    ______ ____
ROOT
ATOM      1  N   LIG    1        2.867   3.969  -0.912  0.00  0.00    -0.610 N 
ATOM      2  C   LIG    1        2.655   5.270  -1.192  0.00  0.00    +0.520 C 
ATOM      3  O   LIG    1        2.347   6.039  -0.306  0.00  0.00    -0.520 OA
ENDROOT
BRANCH   2   4
ATOM      4  C   LIG    1        2.802   5.770  -2.606  0.00  0.00    -0.020 C 
ATOM      5  C   LIG    1        4.265   5.654  -3.039  0.00  0.00    +0.030 C 
ATOM      6  C   LIG    1        4.415   6.161  -4.474  0.00  0.00    +0.000 C 
ATOM      7  C   LIG    1        3.977   7.626  -4.546  0.00  0.00    +0.010 C 
ATOM      8  C   LIG    1        2.514   7.742  -4.113  0.00  0.00    -0.090 C 
ATOM      9  C   LIG    1        2.365   7.235  -2.677  0.00  0.00    +0.070 C 
BRANCH   8  10
ATOM     10  C   LIG    1        2.083   9.184  -4.183  0.00  0.00    +0.500 C 
ATOM     11  O   LIG    1        1.692   9.754  -3.178  0.00  0.00    -0.690 OA
ATOM     12  O   LIG    1        2.124   9.782  -5.245  0.00  0.00    -0.700 OA
ENDBRANCH   8  10
ENDBRANCH   2   4
BRANCH   1  13
ATOM     13  C   LIG    1        3.369   3.068  -1.952  0.00  0.00    +0.300 C 
BRANCH  13  15
ATOM     14  C   LIG    1        4.608   1.244  -0.904  0.00  0.00    +0.020 C 
ATOM     15  C   LIG    1        4.645   2.419  -1.482  0.00  0.00    -0.140 C 
ATOM     16  C   LIG    1        5.964   3.122  -1.677  0.00  0.00    +0.070 C 
ENDBRANCH  13  15
ENDBRANCH   1  13
BRANCH   1  17
ATOM     17  C   LIG    1        2.595   3.455   0.433  0.00  0.00    +0.320 C 
BRANCH  17  18
ATOM     18  C   LIG    1        1.182   2.935   0.495  0.00  0.00    -0.100 A 
ATOM     19  C   LIG    1        0.904   1.639   0.103  0.00  0.00    +0.010 A 
ATOM     20  C   LIG    1       -0.392   1.162   0.161  0.00  0.00    -0.010 A 
ATOM     21  C   LIG    1       -1.411   1.982   0.607  0.00  0.00    +0.000 A 
ATOM     22  C   LIG    1       -1.133   3.277   1.004  0.00  0.00    +0.000 A 
ATOM     23  C   LIG    1        0.163   3.754   0.946  0.00  0.00    +0.030 A 
ENDBRANCH  17  18
ENDBRANCH   1  17
TORSDOF 6
