REMARK  Name = ZINCvU0000000713.0
REMARK                            x       y       z     vdW  Elec       q    Type
REMARK                         _______ _______ _______ _____ _____    ______ ____
ROOT
ATOM      1  C   LIG    1        8.334   3.093   0.126  0.00  0.00    +0.240 A 
ATOM      2  C   LIG    1        8.289   1.706   0.127  0.00  0.00    -0.010 A 
ATOM      3  C   LIG    1        9.466   0.974   0.112  0.00  0.00    +0.190 A 
ATOM      4  C   LIG    1       10.689   1.627   0.107  0.00  0.00    -0.170 A 
ATOM      5  C   LIG    1       10.736   3.013   0.112  0.00  0.00    +0.190 A 
ATOM      6  C   LIG    1        9.559   3.747   0.121  0.00  0.00    -0.060 A 
ENDROOT
BRANCH   1  10
ATOM      7  N   LIG    1        4.951   4.136  -0.599  0.00  0.00    -0.680 N 
ATOM      8  H   LIG    1        4.949   5.031  -0.227  0.00  0.00    +0.410 HD
ATOM      9  C   LIG    1        6.066   3.380  -0.530  0.00  0.00    +0.710 C 
ATOM     10  N   LIG    1        7.146   3.832   0.136  0.00  0.00    -0.680 N 
ATOM     11  H   LIG    1        7.101   4.670   0.622  0.00  0.00    +0.410 HD
ATOM     12  O   LIG    1        6.096   2.291  -1.069  0.00  0.00    -0.550 OA
BRANCH   7  16
ATOM     13  C   LIG    1        1.514   2.622  -2.410  0.00  0.00    +0.120 A 
ATOM     14  C   LIG    1        1.406   3.468  -1.316  0.00  0.00    -0.060 A 
ATOM     15  C   LIG    1        2.544   3.965  -0.712  0.00  0.00    +0.030 A 
ATOM     16  C   LIG    1        3.796   3.627  -1.207  0.00  0.00    +0.120 A 
ATOM     17  C   LIG    1        3.903   2.785  -2.306  0.00  0.00    +0.070 A 
ATOM     18  C   LIG    1        2.764   2.284  -2.905  0.00  0.00    +0.010 A 
BRANCH  13  19
ATOM     19  O   LIG    1        0.393   2.130  -3.001  0.00  0.00    -0.320 OA
BRANCH  19  21
ATOM     20  C   LIG    1       -1.999   1.871  -3.232  0.00  0.00    +0.070 C 
ATOM     21  C   LIG    1       -0.862   2.519  -2.439  0.00  0.00    +0.170 C 
ENDBRANCH  19  21
ENDBRANCH  13  19
ENDBRANCH   7  16
ENDBRANCH   1  10
BRANCH   5  22
ATOM     22  O   LIG    1       11.935   3.653   0.107  0.00  0.00    -0.290 OA
BRANCH  22  23
ATOM     23  C   LIG    1       13.106   2.835   0.098  0.00  0.00    +0.230 C 
BRANCH  23  24
ATOM     24  C   LIG    1       14.350   3.726   0.094  0.00  0.00    +0.470 C 
ATOM     25  F   LIG    1       14.339   4.538  -1.045  0.00  0.00    -0.170 F 
ATOM     26  F   LIG    1       15.497   2.925   0.085  0.00  0.00    -0.170 F 
ATOM     27  F   LIG    1       14.352   4.529   1.240  0.00  0.00    -0.170 F 
ENDBRANCH  23  24
ENDBRANCH  22  23
ENDBRANCH   5  22
BRANCH   3  28
ATOM     28  O   LIG    1        9.421  -0.385   0.107  0.00  0.00    -0.290 OA
BRANCH  28  29
ATOM     29  C   LIG    1       10.673  -1.075   0.097  0.00  0.00    +0.230 C 
BRANCH  29  30
ATOM     30  C   LIG    1       10.423  -2.584   0.093  0.00  0.00    +0.470 C 
ATOM     31  F   LIG    1        9.703  -2.941   1.238  0.00  0.00    -0.170 F 
ATOM     32  F   LIG    1       11.648  -3.260   0.084  0.00  0.00    -0.170 F 
ATOM     33  F   LIG    1        9.689  -2.932  -1.046  0.00  0.00    -0.170 F 
ENDBRANCH  29  30
ENDBRANCH  28  29
ENDBRANCH   3  28
TORSDOF 10
