REMARK  Name = ZINCpe000000XpBS.0
REMARK                            x       y       z     vdW  Elec       q    Type
REMARK                         _______ _______ _______ _____ _____    ______ ____
ROOT
ATOM      1  C   LIG    1       -2.992   3.164  -1.584  0.00  0.00    -0.020 C 
ATOM      2  C   LIG    1       -2.954   2.175  -2.752  0.00  0.00    +0.060 C 
ATOM      3  C   LIG    1       -4.327   1.516  -2.902  0.00  0.00    +0.160 C 
ATOM      4  N   LIG    1       -5.344   2.547  -3.142  0.00  0.00    -0.530 NA
ATOM      5  C   LIG    1       -5.431   3.480  -2.011  0.00  0.00    +0.190 C 
ATOM      6  C   LIG    1       -4.092   4.199  -1.836  0.00  0.00    +0.060 C 
ENDROOT
BRANCH   1  14
ATOM      7  C   LIG    1       -2.762   6.380   0.979  0.00  0.00    +0.010 C 
ATOM      8  C   LIG    1       -1.985   5.313   1.753  0.00  0.00    +0.190 C 
ATOM      9  C   LIG    1       -1.982   4.002   0.959  0.00  0.00    +0.260 C 
ATOM     10  N   LIG    1       -1.178   4.199  -0.258  0.00  0.00    -0.620 N 
ATOM     11  C   LIG    1        0.168   4.774  -0.113  0.00  0.00    +0.260 C 
ATOM     12  C   LIG    1        0.060   6.048   0.734  0.00  0.00    +0.140 C 
ATOM     13  C   LIG    1        1.463   6.563   1.065  0.00  0.00    +0.070 C 
ATOM     14  C   LIG    1       -1.661   3.861  -1.471  0.00  0.00    +0.520 C 
ATOM     15  O   LIG    1       -1.024   4.119  -2.470  0.00  0.00    -0.530 OA
ATOM     16  O   LIG    1       -0.637   5.750   1.946  0.00  0.00    -0.370 OA
ENDBRANCH   1  14
BRANCH   4  17
ATOM     17  C   LIG    1       -6.651   1.941  -3.427  0.00  0.00    +0.330 C 
BRANCH  17  18
ATOM     18  C   LIG    1       -6.479   0.819  -4.418  0.00  0.00    +0.190 A 
ATOM     19  N   LIG    1       -6.538   0.913  -5.724  0.00  0.00    -0.280 NA
ATOM     20  N   LIG    1       -6.338  -0.261  -6.217  0.00  0.00    -0.070 NA
ATOM     21  N   LIG    1       -6.163  -1.102  -5.259  0.00  0.00    -0.090 NA
ATOM     22  N   LIG    1       -6.242  -0.475  -4.134  0.00  0.00    -0.280 N 
BRANCH  22  23
ATOM     23  C   LIG    1       -6.101  -1.061  -2.799  0.00  0.00    +0.200 C 
ATOM     24  C   LIG    1       -5.634  -2.515  -2.712  0.00  0.00    +0.090 C 
ATOM     25  C   LIG    1       -7.089  -2.159  -2.401  0.00  0.00    +0.070 C 
ENDBRANCH  22  23
ENDBRANCH  17  18
ENDBRANCH   4  17
TORSDOF 4
