REMARK  Name = ZINCvU0000000I4A.0
REMARK                            x       y       z     vdW  Elec       q    Type
REMARK                         _______ _______ _______ _____ _____    ______ ____
ROOT
ATOM      1  N   LIG    1       -4.955  -7.119   1.070  0.00  0.00    -0.610 N 
ATOM      2  C   LIG    1       -4.344  -6.512   0.033  0.00  0.00    +0.560 C 
ATOM      3  O   LIG    1       -4.741  -6.699  -1.101  0.00  0.00    -0.510 OA
ENDROOT
BRANCH   2   4
ATOM      4  C   LIG    1       -3.191  -5.620   0.274  0.00  0.00    -0.120 A 
ATOM      5  C   LIG    1       -3.241  -4.670   1.296  0.00  0.00    +0.050 A 
ATOM      6  C   LIG    1       -2.161  -3.840   1.516  0.00  0.00    +0.040 A 
ATOM      7  C   LIG    1       -1.030  -3.948   0.726  0.00  0.00    -0.060 A 
ATOM      8  C   LIG    1       -0.976  -4.883  -0.292  0.00  0.00    +0.040 A 
ATOM      9  C   LIG    1       -2.047  -5.723  -0.519  0.00  0.00    +0.070 A 
BRANCH   7  10
ATOM     10  C   LIG    1        0.146  -3.038   0.972  0.00  0.00    +0.120 C 
BRANCH  10  11
ATOM     11  S   LIG    1        1.270  -3.812   2.161  0.00  0.00    +0.030 S 
BRANCH  11  12
ATOM     12  C   LIG    1        2.515  -2.569   2.259  0.00  0.00    +0.010 A 
ATOM     13  N   LIG    1        3.578  -2.639   3.000  0.00  0.00    -0.450 NA
ATOM     14  C   LIG    1        4.408  -1.613   2.950  0.00  0.00    +0.080 A 
ATOM     15  C   LIG    1        4.029  -0.631   2.131  0.00  0.00    -0.080 A 
ATOM     16  C   LIG    1        5.681  -1.555   3.756  0.00  0.00    +0.160 C 
ATOM     17  S   LIG    1        2.498  -1.095   1.393  0.00  0.00    +0.130 S 
ENDBRANCH  11  12
ENDBRANCH  10  11
ENDBRANCH   7  10
ENDBRANCH   2   4
BRANCH   1  18
ATOM     18  C   LIG    1       -4.562  -6.795   2.443  0.00  0.00    +0.280 C 
BRANCH  18  20
ATOM     19  C   LIG    1       -5.052  -5.332   4.408  0.00  0.00    +0.030 C 
ATOM     20  C   LIG    1       -5.539  -5.771   3.026  0.00  0.00    -0.010 C 
ENDBRANCH  18  20
ENDBRANCH   1  18
BRANCH   1  21
ATOM     21  C   LIG    1       -6.014  -8.101   0.823  0.00  0.00    +0.470 C 
BRANCH  21  22
ATOM     22  C   LIG    1       -5.405  -9.475   0.705  0.00  0.00    +0.150 A 
ATOM     23  N   LIG    1       -5.202 -10.313   1.683  0.00  0.00    -0.260 NA
ATOM     24  N   LIG    1       -4.670 -11.391   1.223  0.00  0.00    -0.260 NA
ATOM     25  C   LIG    1       -4.505 -11.273  -0.076  0.00  0.00    +0.250 A 
ATOM     26  O   LIG    1       -4.969 -10.055  -0.428  0.00  0.00    -0.200 OA
BRANCH  25  27
ATOM     27  C   LIG    1       -3.924 -12.278  -0.977  0.00  0.00    +0.030 A 
ATOM     28  C   LIG    1       -3.458 -13.506  -0.612  0.00  0.00    +0.060 A 
ATOM     29  C   LIG    1       -2.997 -14.130  -1.787  0.00  0.00    -0.050 A 
ATOM     30  C   LIG    1       -3.200 -13.264  -2.801  0.00  0.00    +0.230 A 
ATOM     31  O   LIG    1       -3.765 -12.150  -2.310  0.00  0.00    -0.160 OA
ENDBRANCH  25  27
ENDBRANCH  21  22
ENDBRANCH   1  21
TORSDOF 9
