REMARK  Name = ZINCkj000018RzYk.0
REMARK                            x       y       z     vdW  Elec       q    Type
REMARK                         _______ _______ _______ _____ _____    ______ ____
ROOT
ATOM      1  N   LIG    1        2.905  -2.260  -0.037  0.00  0.00    -0.710 N 
ATOM      2  H   LIG    1        3.636  -1.623  -0.041  0.00  0.00    +0.410 HD
ENDROOT
BRANCH   1  10
ATOM      3  C   LIG    1        1.684   3.256   0.004  0.00  0.00    +0.120 C 
ATOM      4  C   LIG    1        1.261   1.810  -0.000  0.00  0.00    -0.130 A 
ATOM      5  C   LIG    1       -0.016   1.351   0.009  0.00  0.00    +0.150 A 
ATOM      6  N   LIG    1        0.002  -0.004   0.002  0.00  0.00    -0.320 N 
ATOM      7  C   LIG    1       -0.996  -0.956   0.006  0.00  0.00    +0.110 A 
ATOM      8  C   LIG    1       -0.677  -2.262  -0.004  0.00  0.00    +0.260 A 
ATOM      9  N   LIG    1        0.598  -2.673  -0.018  0.00  0.00    -0.570 NA
ATOM     10  C   LIG    1        1.595  -1.811  -0.023  0.00  0.00    +0.470 A 
ATOM     11  C   LIG    1        1.317  -0.423  -0.013  0.00  0.00    -0.050 A 
ATOM     12  C   LIG    1        2.115   0.704  -0.014  0.00  0.00    -0.020 A 
ENDBRANCH   1  10
BRANCH   1  13
ATOM     13  C   LIG    1        3.187  -3.698  -0.048  0.00  0.00    +0.290 C 
BRANCH  13  14
ATOM     14  C   LIG    1        4.700  -3.921  -0.063  0.00  0.00    +0.190 C 
BRANCH  14  15
ATOM     15  N   LIG    1        4.983  -5.362  -0.073  0.00  0.00    -0.530 NA
ATOM     16  C   LIG    1        4.554  -5.992   1.184  0.00  0.00    +0.210 C 
ATOM     17  C   LIG    1        4.811  -7.499   1.109  0.00  0.00    +0.280 C 
ATOM     18  N   LIG    1        6.241  -7.742   0.882  0.00  0.00    -0.390 N 
ATOM     19  C   LIG    1        6.649  -7.128  -0.388  0.00  0.00    +0.280 C 
ATOM     20  C   LIG    1        6.490  -9.188   0.829  0.00  0.00    +0.310 C 
ATOM     21  H   LIG    1        6.775  -7.337   1.637  0.00  0.00    +0.420 HD
ATOM     22  C   LIG    1        6.408  -5.618  -0.326  0.00  0.00    +0.220 C 
ENDBRANCH  14  15
ENDBRANCH  13  14
ENDBRANCH   1  13
TORSDOF 4
