REMARK  Name = ZINCpk00000ebwZo.0
REMARK                            x       y       z     vdW  Elec       q    Type
REMARK                         _______ _______ _______ _____ _____    ______ ____
ROOT
ATOM      1  O   LIG    1        1.232   9.591   0.042  0.00  0.00    -0.510 OA
ATOM      2  C   LIG    1        1.595   8.434   0.032  0.00  0.00    +0.540 C 
ATOM      3  N   LIG    1        0.684   7.441   0.036  0.00  0.00    -0.470 N 
ATOM      4  C   LIG    1       -0.776   7.619   0.050  0.00  0.00    +0.260 C 
ATOM      5  C   LIG    1       -1.317   6.175   0.041  0.00  0.00    +0.090 C 
ATOM      6  C   LIG    1       -0.070   5.320   0.031  0.00  0.00    +0.150 C 
ATOM      7  N   LIG    1        0.972   6.077   0.026  0.00  0.00    -0.250 NA
ENDROOT
BRANCH   6   8
ATOM      8  C   LIG    1       -0.050   3.845   0.023  0.00  0.00    -0.040 A 
ATOM      9  C   LIG    1        1.167   3.160   0.008  0.00  0.00    +0.050 A 
ATOM     10  C   LIG    1        1.178   1.781   0.000  0.00  0.00    +0.010 A 
ATOM     11  C   LIG    1       -0.013   1.076   0.008  0.00  0.00    +0.030 A 
ATOM     12  C   LIG    1       -1.222   1.748   0.017  0.00  0.00    +0.010 A 
ATOM     13  C   LIG    1       -1.248   3.127   0.030  0.00  0.00    +0.040 A 
ENDBRANCH   6   8
BRANCH   2  14
ATOM     14  C   LIG    1        3.067   8.107   0.017  0.00  0.00    +0.400 C 
BRANCH  14  15
ATOM     15  N   LIG    1        3.843   9.349   0.016  0.00  0.00    -0.450 N 
ATOM     16  N   LIG    1        4.207   9.944  -1.195  0.00  0.00    +0.090 NA
ATOM     17  N   LIG    1        4.881  11.034  -1.263  0.00  0.00    -0.190 NA
ATOM     18  C   LIG    1        5.303  11.688  -0.152  0.00  0.00    +0.060 A 
ATOM     19  C   LIG    1        6.040  12.870  -0.241  0.00  0.00    +0.080 A 
ATOM     20  C   LIG    1        6.453  13.507   0.908  0.00  0.00    +0.070 A 
ATOM     21  C   LIG    1        6.144  12.987   2.158  0.00  0.00    +0.040 A 
ATOM     22  C   LIG    1        5.417  11.822   2.272  0.00  0.00    +0.100 A 
ATOM     23  C   LIG    1        4.990  11.163   1.121  0.00  0.00    -0.150 A 
ATOM     24  C   LIG    1        4.212   9.916   1.189  0.00  0.00    +0.540 A 
ATOM     25  O   LIG    1        3.912   9.415   2.257  0.00  0.00    -0.500 OA
ENDBRANCH  14  15
ENDBRANCH   2  14
TORSDOF 3
