REMARK  Name = ZINCah0000002C5X.0
REMARK                            x       y       z     vdW  Elec       q    Type
REMARK                         _______ _______ _______ _____ _____    ______ ____
ROOT
ATOM      1  C   LIG    1       -0.009   0.056  -0.238  0.00  0.00    +0.470 A 
ATOM      2  N   LIG    1        1.085  -0.651   0.001  0.00  0.00    -0.550 NA
ATOM      3  C   LIG    1        2.250  -0.075   0.227  0.00  0.00    +0.260 A 
ATOM      4  C   LIG    1        2.384   1.305   0.222  0.00  0.00    -0.080 A 
ATOM      5  C   LIG    1        1.277   2.095  -0.021  0.00  0.00    +0.190 A 
ATOM      6 CL   LIG    1        3.644  -1.064   0.533  0.00  0.00    -0.020 Cl
ATOM      7  C   LIG    1        0.046   1.464  -0.259  0.00  0.00    -0.320 A 
ENDROOT
BRANCH   1   8
ATOM      8  N   LIG    1       -1.208  -0.588  -0.469  0.00  0.00    -0.830 N 
ATOM      9  H   LIG    1       -1.341  -1.494  -0.147  0.00  0.00    +0.410 HD
ATOM     10  H   LIG    1       -1.916  -0.136  -0.953  0.00  0.00    +0.420 HD
ENDBRANCH   1   8
BRANCH   7  11
ATOM     11  C   LIG    1       -1.158   2.254  -0.529  0.00  0.00    +0.510 C 
ATOM     12  O   LIG    1       -2.234   1.703  -0.636  0.00  0.00    -0.470 OA
ENDBRANCH   7  11
TORSDOF 2
