REMARK  Name = ZINCvU000000066I.0
REMARK                            x       y       z     vdW  Elec       q    Type
REMARK                         _______ _______ _______ _____ _____    ______ ____
ROOT
ATOM      1  C   LIG    1        1.753   7.931  -1.057  0.00  0.00    +0.000 A 
ATOM      2  C   LIG    1        1.343   7.226   0.028  0.00  0.00    -0.080 A 
ATOM      3  C   LIG    1        1.803   7.976   1.196  0.00  0.00    -0.130 A 
ATOM      4  C   LIG    1        1.711   7.781   2.576  0.00  0.00    +0.070 A 
ATOM      5  C   LIG    1        2.270   8.692   3.428  0.00  0.00    +0.000 A 
ATOM      6  C   LIG    1        2.932   9.806   2.930  0.00  0.00    +0.060 A 
ATOM      7  C   LIG    1        3.039  10.013   1.571  0.00  0.00    +0.030 A 
ATOM      8  C   LIG    1        2.478   9.100   0.686  0.00  0.00    +0.070 A 
ATOM      9  O   LIG    1        2.421   9.034  -0.658  0.00  0.00    -0.170 OA
ENDROOT
BRANCH   1  11
ATOM     10  O   LIG    1        0.893   6.533  -2.710  0.00  0.00    -0.490 OA
ATOM     11  C   LIG    1        1.507   7.551  -2.456  0.00  0.00    +0.610 C 
ATOM     12  N   LIG    1        1.963   8.331  -3.456  0.00  0.00    -0.600 N 
ATOM     13  C   LIG    1        2.719   9.586  -3.291  0.00  0.00    +0.260 C 
ATOM     14  C   LIG    1        3.513   9.747  -4.611  0.00  0.00    +0.040 C 
ATOM     15  C   LIG    1        2.497   9.211  -5.654  0.00  0.00    +0.050 C 
ATOM     16  C   LIG    1        1.793   8.068  -4.893  0.00  0.00    +0.280 C 
BRANCH  16  17
ATOM     17  C   LIG    1        0.327   8.050  -5.241  0.00  0.00    -0.170 A 
ATOM     18  C   LIG    1       -0.515   9.028  -4.742  0.00  0.00    +0.140 A 
ATOM     19  C   LIG    1       -1.861   9.013  -5.068  0.00  0.00    -0.030 A 
ATOM     20  C   LIG    1       -2.365   8.016  -5.880  0.00  0.00    +0.080 A 
ATOM     21  C   LIG    1       -1.526   7.035  -6.374  0.00  0.00    -0.020 A 
ATOM     22  F   LIG    1       -0.024  10.000  -3.943  0.00  0.00    -0.130 F 
ATOM     23  C   LIG    1       -0.179   7.051  -6.055  0.00  0.00    +0.150 A 
ATOM     24  F   LIG    1        0.642   6.093  -6.538  0.00  0.00    -0.130 F 
ENDBRANCH  16  17
ENDBRANCH   1  11
BRANCH   2  25
ATOM     25  C   LIG    1        0.567   5.934   0.029  0.00  0.00    +0.170 C 
BRANCH  25  26
ATOM     26  S   LIG    1        1.721   4.535   0.010  0.00  0.00    +0.050 S 
BRANCH  26  27
ATOM     27  C   LIG    1        0.649   3.136   0.013  0.00  0.00    +0.210 A 
ATOM     28  N   LIG    1       -0.663   3.179   0.025  0.00  0.00    -0.320 NA
ATOM     29  N   LIG    1       -1.112   1.849   0.017  0.00  0.00    -0.480 N 
ATOM     30  H   LIG    1       -2.033   1.547   0.018  0.00  0.00    +0.440 HD
ATOM     31  C   LIG    1       -0.013   1.076   0.008  0.00  0.00    +0.500 A 
ATOM     32  N   LIG    1        1.037   1.857   0.002  0.00  0.00    -0.520 NA
ENDBRANCH  26  27
ENDBRANCH  25  26
ENDBRANCH   2  25
TORSDOF 5
