REMARK  Name = ZINCpe00000gM3u4.0
REMARK                            x       y       z     vdW  Elec       q    Type
REMARK                         _______ _______ _______ _____ _____    ______ ____
ROOT
ATOM      1  C   LIG    1        3.369   1.591  -1.572  0.00  0.00    +0.190 A 
ATOM      2  N   LIG    1        3.687   0.625  -2.394  0.00  0.00    -0.290 NA
ATOM      3  N   LIG    1        2.776  -0.288  -2.367  0.00  0.00    -0.270 NA
ATOM      4  C   LIG    1        1.845   0.056  -1.533  0.00  0.00    +0.150 A 
ATOM      5  C   LIG    1        0.580  -0.685  -1.172  0.00  0.00    +0.430 C 
ATOM      6  N   LIG    1        0.002  -0.004   0.002  0.00  0.00    -0.620 N 
ATOM      7  C   LIG    1       -0.018   1.467   0.010  0.00  0.00    +0.310 C 
ATOM      8  C   LIG    1        1.423   1.992  -0.001  0.00  0.00    +0.300 C 
ATOM      9  C   LIG    1       -0.493  -0.710   1.038  0.00  0.00    +0.540 C 
ATOM     10  O   LIG    1       -0.964  -0.132   1.995  0.00  0.00    -0.520 OA
ATOM     11  N   LIG    1        2.195   1.254  -1.000  0.00  0.00    -0.470 N 
ENDROOT
BRANCH   9  12
ATOM     12  C   LIG    1       -0.462  -2.216   1.008  0.00  0.00    -0.010 C 
ATOM     13  C   LIG    1       -1.290  -2.763  -0.178  0.00  0.00    +0.080 C 
ATOM     14  C   LIG    1       -1.942  -4.013   0.370  0.00  0.00    +0.520 C 
ATOM     15  N   LIG    1       -1.881  -4.016   1.713  0.00  0.00    -0.620 N 
ATOM     16  O   LIG    1       -2.445  -4.887  -0.304  0.00  0.00    -0.510 OA
ATOM     17  C   LIG    1       -1.215  -2.809   2.219  0.00  0.00    +0.310 C 
BRANCH  15  18
ATOM     18  C   LIG    1       -2.410  -5.085   2.562  0.00  0.00    +0.430 C 
BRANCH  18  19
ATOM     19  C   LIG    1       -1.338  -6.119   2.796  0.00  0.00    -0.040 A 
ATOM     20  C   LIG    1       -0.449  -6.115   3.806  0.00  0.00    -0.040 A 
ATOM     21  C   LIG    1        0.364  -7.260   3.639  0.00  0.00    -0.070 A 
ATOM     22  C   LIG    1       -0.077  -7.894   2.538  0.00  0.00    +0.170 A 
ATOM     23  O   LIG    1       -1.111  -7.201   2.034  0.00  0.00    -0.170 OA
ENDBRANCH  18  19
ENDBRANCH  15  18
ENDBRANCH   9  12
BRANCH   1  25
ATOM     24  C   LIG    1        3.724   3.938  -2.287  0.00  0.00    +0.040 C 
ATOM     25  C   LIG    1        4.164   2.844  -1.312  0.00  0.00    +0.140 C 
ENDBRANCH   1  25
TORSDOF 4
