REMARK  Name = ZINCkj000005kOSl.1
REMARK                            x       y       z     vdW  Elec       q    Type
REMARK                         _______ _______ _______ _____ _____    ______ ____
ROOT
ATOM      1  C   LIG    1       -2.936  -1.824   3.311  0.00  0.00    +0.540 C 
ATOM      2  N   LIG    1       -3.017  -0.701   2.569  0.00  0.00    -0.620 N 
ATOM      3  C   LIG    1       -3.866   0.484   2.834  0.00  0.00    +0.270 C 
ATOM      4  C   LIG    1       -2.951   1.673   2.444  0.00  0.00    +0.080 C 
ATOM      5  C   LIG    1       -2.190   1.129   1.218  0.00  0.00    -0.100 C 
ATOM      6  C   LIG    1       -0.732   1.581   1.267  0.00  0.00    +0.070 C 
ATOM      7  C   LIG    1       -0.013   1.086   0.008  0.00  0.00    +0.060 C 
ATOM      8  C   LIG    1       -0.755   1.594  -1.230  0.00  0.00    +0.250 C 
ATOM      9  N   LIG    1       -2.130   1.080  -1.228  0.00  0.00    -0.390 N 
ATOM     10  C   LIG    1       -2.809   1.499  -2.461  0.00  0.00    +0.320 C 
ATOM     11  H   LIG    1       -2.111   0.072  -1.182  0.00  0.00    +0.420 HD
ATOM     12  C   LIG    1       -2.857   1.608  -0.067  0.00  0.00    +0.280 C 
ATOM     13  C   LIG    1       -2.277  -0.400   1.328  0.00  0.00    +0.260 C 
ATOM     14  O   LIG    1       -2.192  -2.721   2.974  0.00  0.00    -0.510 OA
ENDROOT
BRANCH   1  15
ATOM     15  C   LIG    1       -3.769  -1.964   4.558  0.00  0.00    +0.200 C 
BRANCH  15  20
ATOM     16  C   LIG    1       -3.438  -7.040   6.351  0.00  0.00    +0.210 C 
ATOM     17  C   LIG    1       -3.346  -5.577   6.001  0.00  0.00    -0.000 A 
ATOM     18  N   LIG    1       -2.505  -4.731   6.504  0.00  0.00    -0.260 NA
ATOM     19  N   LIG    1       -2.579  -3.543   6.079  0.00  0.00    -0.240 NA
ATOM     20  C   LIG    1       -3.495  -3.301   5.197  0.00  0.00    -0.020 A 
ATOM     21  S   LIG    1       -4.338  -4.756   4.873  0.00  0.00    +0.190 S 
ENDBRANCH  15  20
ENDBRANCH   1  15
TORSDOF 2
