REMARK  Name = ZINCkj000005kOSl.0
REMARK                            x       y       z     vdW  Elec       q    Type
REMARK                         _______ _______ _______ _____ _____    ______ ____
ROOT
ATOM      1  C   LIG    1       -0.379   2.212  -4.772  0.00  0.00    +0.550 C 
ATOM      2  N   LIG    1       -0.149   2.256  -3.444  0.00  0.00    -0.630 N 
ATOM      3  C   LIG    1        0.043   3.454  -2.594  0.00  0.00    +0.270 C 
ATOM      4  C   LIG    1       -0.705   3.127  -1.283  0.00  0.00    +0.040 C 
ATOM      5  C   LIG    1       -0.748   1.590  -1.228  0.00  0.00    -0.100 C 
ATOM      6  C   LIG    1       -2.195   1.104  -1.226  0.00  0.00    +0.070 C 
ATOM      7  C   LIG    1       -2.869   1.542   0.079  0.00  0.00    +0.060 C 
ATOM      8  C   LIG    1       -2.059   1.012   1.264  0.00  0.00    +0.250 C 
ATOM      9  N   LIG    1       -0.699   1.559   1.218  0.00  0.00    -0.380 N 
ATOM     10  C   LIG    1        0.045   1.116   2.405  0.00  0.00    +0.320 C 
ATOM     11  H   LIG    1       -0.742   2.567   1.206  0.00  0.00    +0.420 HD
ATOM     12  C   LIG    1       -0.013   1.086   0.008  0.00  0.00    +0.270 C 
ATOM     13  C   LIG    1       -0.031   1.115  -2.505  0.00  0.00    +0.300 C 
ATOM     14  O   LIG    1       -0.515   1.144  -5.329  0.00  0.00    -0.510 OA
ENDROOT
BRANCH   1  15
ATOM     15  C   LIG    1       -0.466   3.492  -5.563  0.00  0.00    +0.200 C 
BRANCH  15  20
ATOM     16  C   LIG    1       -0.536   2.320 -10.827  0.00  0.00    +0.210 C 
ATOM     17  C   LIG    1       -0.758   2.644  -9.372  0.00  0.00    -0.000 A 
ATOM     18  N   LIG    1       -1.909   2.773  -8.794  0.00  0.00    -0.260 NA
ATOM     19  N   LIG    1       -1.892   3.042  -7.559  0.00  0.00    -0.240 NA
ATOM     20  C   LIG    1       -0.726   3.169  -7.012  0.00  0.00    -0.020 A 
ATOM     21  S   LIG    1        0.470   2.903  -8.207  0.00  0.00    +0.190 S 
ENDBRANCH  15  20
ENDBRANCH   1  15
TORSDOF 2
