REMARK  Name = ZINCpe000000SyLl.0
REMARK                            x       y       z     vdW  Elec       q    Type
REMARK                         _______ _______ _______ _____ _____    ______ ____
ROOT
ATOM      1  N   LIG    1        7.638   0.587   4.574  0.00  0.00    -0.740 N 
ATOM      2  H   LIG    1        7.887  -0.152   3.998  0.00  0.00    +0.390 HD
ATOM      3  C   LIG    1        6.417   1.147   4.463  0.00  0.00    +0.710 C 
ATOM      4  N   LIG    1        5.506   0.616   3.622  0.00  0.00    -0.630 N 
ATOM      5  C   LIG    1        5.861  -0.501   2.734  0.00  0.00    +0.280 C 
ATOM      6  C   LIG    1        5.442  -0.138   1.305  0.00  0.00    +0.170 C 
ATOM      7  N   LIG    1        4.021   0.237   1.295  0.00  0.00    -0.530 NA
ATOM      8  C   LIG    1        3.782   1.437   2.108  0.00  0.00    +0.170 C 
ATOM      9  C   LIG    1        4.133   1.139   3.569  0.00  0.00    +0.310 C 
ATOM     10  O   LIG    1        6.136   2.130   5.121  0.00  0.00    -0.590 OA
ENDROOT
BRANCH   1  16
ATOM     11  C   LIG    1       13.393   0.700   6.848  0.00  0.00    +0.080 C 
ATOM     12  C   LIG    1       12.521   1.869   6.467  0.00  0.00    +0.510 C 
ATOM     13  N   LIG    1       11.179   1.746   6.497  0.00  0.00    -0.620 N 
ATOM     14  C   LIG    1       10.551   0.516   6.998  0.00  0.00    +0.290 C 
ATOM     15  C   LIG    1        9.580  -0.009   5.936  0.00  0.00    +0.020 C 
ATOM     16  C   LIG    1        8.589   1.096   5.565  0.00  0.00    +0.250 C 
ATOM     17  C   LIG    1        9.349   2.288   4.978  0.00  0.00    +0.010 C 
ATOM     18  C   LIG    1       10.317   2.839   6.029  0.00  0.00    +0.280 C 
ATOM     19  O   LIG    1       13.027   2.919   6.134  0.00  0.00    -0.540 OA
ENDBRANCH   1  16
BRANCH   7  20
ATOM     20  C   LIG    1        3.536   0.426  -0.079  0.00  0.00    +0.290 C 
BRANCH  20  21
ATOM     21  C   LIG    1        2.036   0.566  -0.067  0.00  0.00    +0.020 A 
ATOM     22  N   LIG    1        1.163  -0.399  -0.077  0.00  0.00    -0.350 NA
ATOM     23  O   LIG    1        0.030   0.025  -0.062  0.00  0.00    +0.100 OA
ATOM     24  C   LIG    1        0.006   1.365  -0.040  0.00  0.00    -0.030 A 
ATOM     25  C   LIG    1       -1.217   2.245  -0.023  0.00  0.00    +0.180 C 
ATOM     26  C   LIG    1        1.298   1.772  -0.042  0.00  0.00    -0.070 A 
ENDBRANCH  20  21
ENDBRANCH   7  20
TORSDOF 3
