REMARK  Name = ZINCvU00000004L8.0
REMARK                            x       y       z     vdW  Elec       q    Type
REMARK                         _______ _______ _______ _____ _____    ______ ____
ROOT
ATOM      1  C   LIG    1       -0.196   8.649   4.931  0.00  0.00    +0.130 C 
ATOM      2  C   LIG    1       -0.888   7.372   4.526  0.00  0.00    -0.270 A 
ATOM      3  C   LIG    1       -1.204   7.149   3.222  0.00  0.00    +0.200 A 
ATOM      4  O   LIG    1       -1.819   6.029   2.811  0.00  0.00    -0.200 OA
ATOM      5  C   LIG    1       -2.162   5.042   3.660  0.00  0.00    +0.190 A 
ATOM      6  C   LIG    1       -2.809   3.886   3.197  0.00  0.00    -0.150 A 
ATOM      7  C   LIG    1       -3.158   2.883   4.101  0.00  0.00    +0.110 A 
ATOM      8  C   LIG    1       -2.876   3.022   5.447  0.00  0.00    +0.000 A 
ATOM      9  C   LIG    1       -2.244   4.157   5.917  0.00  0.00    +0.140 A 
ATOM     10  C   LIG    1       -1.888   5.171   5.030  0.00  0.00    -0.230 A 
ATOM     11  C   LIG    1       -1.212   6.397   5.499  0.00  0.00    +0.430 A 
ATOM     12  O   LIG    1       -0.943   6.563   6.677  0.00  0.00    -0.460 OA
ENDROOT
BRANCH   3  13
ATOM     13  C   LIG    1       -0.859   8.178   2.221  0.00  0.00    -0.070 A 
ATOM     14  C   LIG    1       -1.406   9.460   2.315  0.00  0.00    +0.050 A 
ATOM     15  C   LIG    1       -1.074  10.418   1.380  0.00  0.00    +0.010 A 
ATOM     16  C   LIG    1       -0.211  10.108   0.344  0.00  0.00    +0.030 A 
ATOM     17  C   LIG    1        0.330   8.838   0.241  0.00  0.00    +0.010 A 
ATOM     18  C   LIG    1        0.012   7.872   1.173  0.00  0.00    +0.050 A 
ENDBRANCH   3  13
BRANCH   6  19
ATOM     19  C   LIG    1       -3.113   3.731   1.762  0.00  0.00    +0.570 C 
ATOM     20  N   LIG    1       -2.670   2.648   1.092  0.00  0.00    -0.570 N 
ATOM     21  O   LIG    1       -3.764   4.579   1.183  0.00  0.00    -0.500 OA
BRANCH  20  22
ATOM     22  C   LIG    1       -2.797   2.586  -0.366  0.00  0.00    +0.200 C 
ATOM     23  C   LIG    1       -3.069   3.896  -1.108  0.00  0.00    +0.030 C 
ATOM     24  C   LIG    1       -4.178   2.852  -0.967  0.00  0.00    +0.020 C 
ENDBRANCH  20  22
BRANCH  20  25
ATOM     25  C   LIG    1       -2.061   1.534   1.823  0.00  0.00    +0.340 C 
BRANCH  25  26
ATOM     26  C   LIG    1       -3.102   0.476   2.084  0.00  0.00    -0.110 A 
ATOM     27  C   LIG    1       -3.348   0.053   3.377  0.00  0.00    +0.010 A 
ATOM     28  C   LIG    1       -4.299  -0.922   3.616  0.00  0.00    +0.010 A 
ATOM     29  C   LIG    1       -5.003  -1.473   2.562  0.00  0.00    +0.010 A 
ATOM     30  C   LIG    1       -4.758  -1.050   1.269  0.00  0.00    +0.000 A 
ATOM     31  C   LIG    1       -3.807  -0.075   1.030  0.00  0.00    +0.020 A 
ENDBRANCH  25  26
ENDBRANCH  20  25
ENDBRANCH   6  19
TORSDOF 5
