REMARK  Name = ZINCpe00000gMZHd.1
REMARK                            x       y       z     vdW  Elec       q    Type
REMARK                         _______ _______ _______ _____ _____    ______ ____
ROOT
ATOM      1  N   LIG    1       -3.921   5.280   4.106  0.00  0.00    -0.700 N 
ATOM      2  H   LIG    1       -4.425   5.802   3.463  0.00  0.00    +0.410 HD
ENDROOT
BRANCH   1   6
ATOM      3  C   LIG    1        0.011   2.334   4.067  0.00  0.00    +0.370 C 
ATOM      4  N   LIG    1       -1.064   3.235   3.645  0.00  0.00    -0.360 N 
ATOM      5  N   LIG    1       -2.056   3.800   4.462  0.00  0.00    -0.360 NA
ATOM      6  C   LIG    1       -2.813   4.540   3.689  0.00  0.00    +0.480 A 
ATOM      7  N   LIG    1       -2.349   4.475   2.436  0.00  0.00    -0.580 NA
ATOM      8  C   LIG    1       -1.296   3.686   2.395  0.00  0.00    +0.460 A 
BRANCH   8   9
ATOM      9  N   LIG    1       -0.554   3.379   1.269  0.00  0.00    -0.470 N 
ATOM     10  C   LIG    1       -1.384   2.707   0.259  0.00  0.00    +0.190 C 
ATOM     11  C   LIG    1       -0.513   2.333  -0.943  0.00  0.00    +0.240 C 
ATOM     12  O   LIG    1        0.117   3.510  -1.455  0.00  0.00    -0.380 OA
ATOM     13  C   LIG    1        0.934   4.189  -0.497  0.00  0.00    +0.240 C 
ATOM     14  C   LIG    1        0.077   4.583   0.709  0.00  0.00    +0.190 C 
ENDBRANCH   8   9
ENDBRANCH   1   6
BRANCH   1  15
ATOM     15  C   LIG    1       -4.320   5.269   5.515  0.00  0.00    +0.350 C 
BRANCH  15  16
ATOM     16  C   LIG    1       -5.535   6.141   5.700  0.00  0.00    -0.170 A 
ATOM     17  C   LIG    1       -5.392   7.489   6.000  0.00  0.00    +0.130 A 
ATOM     18  C   LIG    1       -6.534   8.256   6.155  0.00  0.00    -0.030 A 
ATOM     19  C   LIG    1       -7.777   7.652   6.019  0.00  0.00    +0.360 A 
ATOM     20  N   LIG    1       -7.873   6.362   5.738  0.00  0.00    -0.500 NA
ATOM     21  C   LIG    1       -6.803   5.607   5.578  0.00  0.00    +0.330 A 
BRANCH  19  22
ATOM     22  N   LIG    1       -8.939   8.413   6.180  0.00  0.00    -0.410 N 
ATOM     23  C   LIG    1      -10.229   7.947   6.167  0.00  0.00    +0.150 A 
ATOM     24  C   LIG    1      -11.030   9.011   6.361  0.00  0.00    +0.150 A 
ATOM     25  N   LIG    1      -10.258  10.101   6.481  0.00  0.00    -0.470 NA
ATOM     26  C   LIG    1       -9.004   9.757   6.375  0.00  0.00    +0.400 A 
ENDBRANCH  19  22
ENDBRANCH  15  16
ENDBRANCH   1  15
TORSDOF 5
