REMARK  Name = ZINCtV00000L6k8M.0
REMARK                            x       y       z     vdW  Elec       q    Type
REMARK                         _______ _______ _______ _____ _____    ______ ____
ROOT
ATOM      1  C   LIG    1        1.263   2.097  -0.163  0.00  0.00    -0.090 A 
ATOM      2  C   LIG    1        2.480   1.424  -0.066  0.00  0.00    +0.090 A 
ATOM      3  C   LIG    1        3.653   2.137   0.085  0.00  0.00    +0.030 A 
ATOM      4  C   LIG    1        3.629   3.520   0.149  0.00  0.00    +0.060 A 
ATOM      5  C   LIG    1        2.433   4.204   0.060  0.00  0.00    +0.040 A 
ATOM      6  C   LIG    1        1.239   3.503  -0.097  0.00  0.00    +0.030 A 
ENDROOT
BRANCH   6   7
ATOM      7  C   LIG    1       -0.043   4.231  -0.194  0.00  0.00    +0.160 A 
ATOM      8  N   LIG    1       -1.050   4.060   0.596  0.00  0.00    -0.420 NA
ATOM      9  C   LIG    1       -2.146   4.797   0.387  0.00  0.00    +0.090 A 
ATOM     10  C   LIG    1       -3.362   4.798   1.107  0.00  0.00    +0.070 A 
ATOM     11  C   LIG    1       -4.382   5.621   0.741  0.00  0.00    +0.030 A 
ATOM     12  C   LIG    1       -4.251   6.476  -0.345  0.00  0.00    +0.040 A 
ATOM     13  C   LIG    1       -3.079   6.498  -1.066  0.00  0.00    +0.050 A 
ATOM     14  C   LIG    1       -2.022   5.662  -0.708  0.00  0.00    -0.170 A 
ATOM     15  S   LIG    1       -0.419   5.448  -1.406  0.00  0.00    +0.070 S 
ENDBRANCH   6   7
BRANCH   1  16
ATOM     16  C   LIG    1        0.007   1.339  -0.329  0.00  0.00    +0.510 C 
ATOM     17  O   LIG    1       -1.036   1.929  -0.526  0.00  0.00    -0.480 OA
BRANCH  16  18
ATOM     18  O   LIG    1        0.019  -0.006  -0.266  0.00  0.00    -0.330 OA
BRANCH  18  19
ATOM     19  C   LIG    1       -1.253  -0.685  -0.438  0.00  0.00    +0.250 C 
BRANCH  19  21
ATOM     20  O   LIG    1        0.065  -2.620  -0.141  0.00  0.00    -0.400 OA
ATOM     21  C   LIG    1       -1.046  -2.174  -0.338  0.00  0.00    +0.390 C 
BRANCH  21  22
ATOM     22  C   LIG    1       -2.189  -3.087  -0.478  0.00  0.00    -0.160 A 
ATOM     23  C   LIG    1       -3.473  -2.577  -0.700  0.00  0.00    +0.100 A 
ATOM     24  C   LIG    1       -4.539  -3.439  -0.837  0.00  0.00    +0.030 A 
ATOM     25  C   LIG    1       -4.345  -4.808  -0.744  0.00  0.00    +0.010 A 
ATOM     26  C   LIG    1       -3.079  -5.322  -0.519  0.00  0.00    +0.030 A 
ATOM     27 CL   LIG    1       -5.697  -5.885  -0.912  0.00  0.00    -0.040 Cl
ATOM     28  C   LIG    1       -2.000  -4.472  -0.386  0.00  0.00    +0.030 A 
ATOM     29 CL   LIG    1       -0.413  -5.117  -0.104  0.00  0.00    -0.020 Cl
ENDBRANCH  21  22
ENDBRANCH  19  21
ENDBRANCH  18  19
ENDBRANCH  16  18
ENDBRANCH   1  16
TORSDOF 6
