REMARK  Name = ZINCpk00000xIaFN.0
REMARK                            x       y       z     vdW  Elec       q    Type
REMARK                         _______ _______ _______ _____ _____    ______ ____
ROOT
ATOM      1  N   LIG    1       -2.869   0.256   1.275  0.00  0.00    -0.480 N 
ATOM      2  H   LIG    1       -2.217  -0.456   0.980  0.00  0.00    +0.430 HD
ATOM      3  H   LIG    1       -3.787   0.041   0.913  0.00  0.00    +0.420 HD
ENDROOT
BRANCH   1   4
ATOM      4  C   LIG    1       -2.919   0.296   2.742  0.00  0.00    +0.140 C 
ATOM      5  C   LIG    1       -3.517  -1.010   3.273  0.00  0.00    +0.060 C 
ATOM      6  C   LIG    1       -4.134  -0.800   4.644  0.00  0.00    +0.040 C 
ATOM      7  C   LIG    1       -3.123  -0.477   5.729  0.00  0.00    +0.020 C 
ATOM      8  C   LIG    1       -2.481   0.891   5.486  0.00  0.00    +0.270 C 
ATOM      9  N   LIG    1       -1.329   0.718   4.586  0.00  0.00    -0.530 N 
ATOM     10  C   LIG    1       -1.516   0.441   3.295  0.00  0.00    +0.510 C 
ATOM     11  O   LIG    1       -0.560   0.306   2.561  0.00  0.00    -0.540 OA
BRANCH   9  12
ATOM     12  C   LIG    1        0.032   0.851   5.112  0.00  0.00    +0.210 C 
BRANCH  12  13
ATOM     13  C   LIG    1        0.476   2.286   4.998  0.00  0.00    +0.480 C 
ATOM     14  O   LIG    1        1.587   2.612   5.382  0.00  0.00    -0.690 OA
ATOM     15  O   LIG    1       -0.274   3.121   4.521  0.00  0.00    -0.670 OA
ENDBRANCH  12  13
ENDBRANCH   9  12
ENDBRANCH   1   4
BRANCH   1  20
ATOM     16  C   LIG    1       -5.355   3.533  -0.240  0.00  0.00    +0.200 C 
ATOM     17  N   LIG    1       -3.930   3.180  -0.257  0.00  0.00    -0.500 NA
ATOM     18  C   LIG    1       -3.657   2.112  -1.252  0.00  0.00    +0.180 C 
ATOM     19  C   LIG    1       -2.306   1.519  -0.781  0.00  0.00    +0.090 C 
ATOM     20  C   LIG    1       -2.434   1.562   0.763  0.00  0.00    +0.180 C 
ATOM     21  C   LIG    1       -3.504   2.632   1.050  0.00  0.00    +0.180 C 
BRANCH  21  22
ATOM     22  C   LIG    1       -2.924   3.729   1.903  0.00  0.00    -0.110 A 
ATOM     23  C   LIG    1       -2.131   4.706   1.328  0.00  0.00    +0.040 A 
ATOM     24  C   LIG    1       -1.602   5.715   2.110  0.00  0.00    +0.000 A 
ATOM     25  C   LIG    1       -1.857   5.743   3.469  0.00  0.00    +0.040 A 
ATOM     26  C   LIG    1       -2.646   4.764   4.044  0.00  0.00    +0.050 A 
ATOM     27  C   LIG    1       -3.179   3.757   3.261  0.00  0.00    +0.000 A 
ENDBRANCH  21  22
ENDBRANCH   1  20
TORSDOF 5
