REMARK  Name = ZINCqH0000003Q1g.0
REMARK                            x       y       z     vdW  Elec       q    Type
REMARK                         _______ _______ _______ _____ _____    ______ ____
ROOT
ATOM      1  C   LIG    1        1.248   1.716  -0.001  0.00  0.00    +0.270 C 
ENDROOT
BRANCH   1   3
ATOM      2  C   LIG    1       -1.187   1.624   0.017  0.00  0.00    +0.560 C 
ATOM      3  N   LIG    1       -0.011   0.966   0.007  0.00  0.00    -0.730 N 
ATOM      4  H   LIG    1        0.002  -0.004   0.002  0.00  0.00    +0.400 HD
ATOM      5  O   LIG    1       -1.204   2.840   0.023  0.00  0.00    -0.510 OA
BRANCH   2  11
ATOM      6  C   LIG    1       -3.680   1.549   0.034  0.00  0.00    +0.190 A 
ATOM      7  C   LIG    1       -4.866   0.829   0.030  0.00  0.00    -0.080 A 
ATOM      8  C   LIG    1       -4.837  -0.551   0.022  0.00  0.00    +0.080 A 
ATOM      9  C   LIG    1       -3.628  -1.227   0.013  0.00  0.00    -0.040 A 
ATOM     10  C   LIG    1       -2.441  -0.528   0.011  0.00  0.00    +0.080 A 
ATOM     11  C   LIG    1       -2.455   0.869   0.018  0.00  0.00    -0.180 A 
BRANCH   6  12
ATOM     12  O   LIG    1       -3.707   2.905   0.046  0.00  0.00    -0.280 OA
BRANCH  12  14
ATOM     13  C   LIG    1       -4.822   5.049   0.074  0.00  0.00    +0.070 C 
ATOM     14  C   LIG    1       -4.992   3.529   0.062  0.00  0.00    +0.170 C 
ENDBRANCH  12  14
ENDBRANCH   6  12
ENDBRANCH   2  11
ENDBRANCH   1   3
BRANCH   1  15
ATOM     15  C   LIG    1        2.424   0.737  -0.017  0.00  0.00    +0.020 C 
BRANCH  15  16
ATOM     16  C   LIG    1        3.738   1.520  -0.025  0.00  0.00    +0.270 C 
BRANCH  16  17
ATOM     17  N   LIG    1        4.864   0.583  -0.041  0.00  0.00    -0.720 N 
ATOM     18  H   LIG    1        4.700  -0.372  -0.045  0.00  0.00    +0.410 HD
BRANCH  17  19
ATOM     19  C   LIG    1        6.169   1.065  -0.051  0.00  0.00    +0.430 A 
ATOM     20  C   LIG    1        6.397   2.437  -0.046  0.00  0.00    -0.100 A 
ATOM     21  C   LIG    1        7.700   2.902  -0.055  0.00  0.00    +0.170 A 
ATOM     22  C   LIG    1        8.734   1.975  -0.070  0.00  0.00    -0.300 A 
ATOM     23  C   LIG    1        8.435   0.628  -0.074  0.00  0.00    +0.380 A 
ATOM     24  N   LIG    1        7.182   0.213  -0.060  0.00  0.00    -0.540 NA
BRANCH  22  25
ATOM     25  C   LIG    1       10.169   2.436  -0.080  0.00  0.00    +0.520 C 
ATOM     26  F   LIG    1       10.258   3.670  -0.733  0.00  0.00    -0.180 F 
ATOM     27  F   LIG    1       10.956   1.495  -0.752  0.00  0.00    -0.180 F 
ATOM     28  F   LIG    1       10.625   2.572   1.236  0.00  0.00    -0.180 F 
ENDBRANCH  22  25
ENDBRANCH  17  19
ENDBRANCH  16  17
ENDBRANCH  15  16
ENDBRANCH   1  15
TORSDOF 9
