REMARK  Name = ZINCrH00000tj10x.0
REMARK                            x       y       z     vdW  Elec       q    Type
REMARK                         _______ _______ _______ _____ _____    ______ ____
ROOT
ATOM      1  C   LIG    1        1.486  -0.425  -0.014  0.00  0.00    +0.000 C 
ATOM      2  C   LIG    1        2.232   0.792   0.586  0.00  0.00    +0.030 C 
ATOM      3  C   LIG    1        1.453   1.995  -0.001  0.00  0.00    +0.020 C 
ATOM      4  C   LIG    1       -0.019   1.534   0.011  0.00  0.00    +0.020 C 
ATOM      5  C   LIG    1        0.002  -0.004   0.002  0.00  0.00    +0.240 C 
ENDROOT
BRANCH   5   6
ATOM      6  N   LIG    1       -0.653  -0.521   1.206  0.00  0.00    -0.700 N 
ATOM      7  H   LIG    1       -0.125  -0.734   1.992  0.00  0.00    +0.410 HD
BRANCH   6   8
ATOM      8  C   LIG    1       -2.025  -0.708   1.222  0.00  0.00    +0.250 A 
ATOM      9  C   LIG    1       -2.650  -1.196   2.356  0.00  0.00    -0.230 A 
ATOM     10  C   LIG    1       -4.041  -1.373   2.342  0.00  0.00    +0.530 A 
ATOM     11  N   LIG    1       -4.740  -1.067   1.232  0.00  0.00    -0.410 N 
ATOM     12  N   LIG    1       -4.090  -0.575   0.095  0.00  0.00    -0.180 NA
ATOM     13  O   LIG    1       -4.615  -1.803   3.332  0.00  0.00    -0.520 OA
ATOM     14 CL   LIG    1       -1.725  -1.583   3.773  0.00  0.00    -0.020 Cl
ATOM     15  C   LIG    1       -2.799  -0.396   0.084  0.00  0.00    +0.250 A 
BRANCH  11  16
ATOM     16  C   LIG    1       -6.194  -1.252   1.215  0.00  0.00    +0.180 C 
ATOM     17  C   LIG    1       -6.524  -2.724   1.470  0.00  0.00    +0.050 C 
ATOM     18  C   LIG    1       -6.745  -0.835  -0.150  0.00  0.00    +0.070 C 
ATOM     19  C   LIG    1       -6.830  -0.389   2.307  0.00  0.00    +0.050 C 
ENDBRANCH  11  16
ENDBRANCH   6   8
ENDBRANCH   5   6
BRANCH   1  20
ATOM     20  C   LIG    1        1.701  -1.666   0.854  0.00  0.00    +0.290 C 
BRANCH  20  22
ATOM     21  C   LIG    1        3.510  -3.201   1.408  0.00  0.00    +0.650 C 
ATOM     22  N   LIG    1        3.089  -2.116   0.728  0.00  0.00    -0.710 N 
ATOM     23  H   LIG    1        3.705  -1.633   0.155  0.00  0.00    +0.410 HD
ATOM     24  O   LIG    1        2.738  -3.806   2.125  0.00  0.00    -0.560 OA
BRANCH  21  25
ATOM     25  O   LIG    1        4.786  -3.614   1.292  0.00  0.00    -0.360 OA
BRANCH  25  27
ATOM     26  C   LIG    1        4.311  -5.980   1.621  0.00  0.00    +0.040 C 
ATOM     27  C   LIG    1        5.170  -4.790   2.054  0.00  0.00    +0.140 C 
ATOM     28  C   LIG    1        4.958  -4.523   3.545  0.00  0.00    +0.040 C 
ATOM     29  C   LIG    1        6.645  -5.105   1.797  0.00  0.00    +0.080 C 
ENDBRANCH  25  27
ENDBRANCH  21  25
ENDBRANCH  20  22
ENDBRANCH   1  20
TORSDOF 7
