REMARK  Name = ZINCrg00000fR7Yi.0
REMARK                            x       y       z     vdW  Elec       q    Type
REMARK                         _______ _______ _______ _____ _____    ______ ____
ROOT
ATOM      1  N   LIG    1       -0.007   0.189   0.109  0.00  0.00    -0.990 NA
ATOM      2  C   LIG    1        0.033   1.638   0.320  0.00  0.00    +0.320 C 
ENDROOT
BRANCH   1   3
ATOM      3  S   LIG    1        0.020  -0.838   1.408  0.00  0.00    +2.690 S 
ATOM      4  O   LIG    1        0.622  -0.119   2.475  0.00  0.00    -0.940 OA
ATOM      5  O   LIG    1        0.519  -2.079   0.928  0.00  0.00    -0.950 OA
BRANCH   3   9
ATOM      6  C   LIG    1       -4.279  -1.575   2.625  0.00  0.00    +0.210 A 
ATOM      7  C   LIG    1       -3.668  -2.404   1.694  0.00  0.00    +0.010 A 
ATOM      8  C   LIG    1       -2.357  -2.177   1.325  0.00  0.00    +0.140 A 
ATOM      9  C   LIG    1       -1.653  -1.125   1.881  0.00  0.00    -0.700 A 
ATOM     10  C   LIG    1       -2.257  -0.300   2.812  0.00  0.00    +0.150 A 
ATOM     11  C   LIG    1       -3.570  -0.519   3.182  0.00  0.00    -0.030 A 
BRANCH   6  14
ATOM     12  C   LIG    1       -7.547  -3.301   3.341  0.00  0.00    +0.120 C 
ATOM     13  C   LIG    1       -6.087  -3.062   3.051  0.00  0.00    +0.510 C 
ATOM     14  N   LIG    1       -5.608  -1.803   3.002  0.00  0.00    -0.680 N 
ATOM     15  H   LIG    1       -6.183  -1.055   3.227  0.00  0.00    +0.420 HD
ATOM     16  O   LIG    1       -5.344  -4.002   2.864  0.00  0.00    -0.520 OA
ENDBRANCH   6  14
ENDBRANCH   3   9
ENDBRANCH   1   3
BRANCH   1  17
ATOM     17  C   LIG    1       -0.071  -0.352  -1.251  0.00  0.00    +0.400 C 
BRANCH  17  18
ATOM     18  C   LIG    1        1.322  -0.454  -1.817  0.00  0.00    +0.450 C 
ATOM     19  O   LIG    1        2.271  -0.110  -1.153  0.00  0.00    -0.490 OA
BRANCH  18  20
ATOM     20  O   LIG    1        1.509  -0.926  -3.060  0.00  0.00    -0.340 OA
BRANCH  20  21
ATOM     21  C   LIG    1        2.878  -0.996  -3.539  0.00  0.00    +0.250 C 
BRANCH  21  22
ATOM     22  C   LIG    1        2.891  -1.547  -4.942  0.00  0.00    +0.420 C 
ATOM     23  O   LIG    1        1.848  -1.851  -5.485  0.00  0.00    -0.450 OA
BRANCH  22  24
ATOM     24  C   LIG    1        4.117  -1.710  -5.626  0.00  0.00    -0.100 A 
ATOM     25  C   LIG    1        5.375  -1.401  -5.138  0.00  0.00    +0.040 A 
ATOM     26  C   LIG    1        6.291  -1.723  -6.141  0.00  0.00    -0.060 A 
ATOM     27  C   LIG    1        5.595  -2.201  -7.203  0.00  0.00    +0.220 A 
ATOM     28  N   LIG    1        4.280  -2.199  -6.905  0.00  0.00    -0.520 N 
ATOM     29  H   LIG    1        3.566  -2.492  -7.493  0.00  0.00    +0.430 HD
ENDBRANCH  22  24
ENDBRANCH  21  22
ENDBRANCH  20  21
ENDBRANCH  18  20
ENDBRANCH  17  18
ENDBRANCH   1  17
TORSDOF 9
