REMARK  Name = ZINCqH0000033rJN.0
REMARK                            x       y       z     vdW  Elec       q    Type
REMARK                         _______ _______ _______ _____ _____    ______ ____
ROOT
ATOM      1  N   LIG    1       -0.242   1.246   2.466  0.00  0.00    -0.620 N 
ATOM      2  H   LIG    1        0.555   0.699   2.544  0.00  0.00    +0.420 HD
ATOM      3  C   LIG    1       -0.718   1.572   1.248  0.00  0.00    +0.510 C 
ATOM      4  O   LIG    1       -1.715   2.256   1.150  0.00  0.00    -0.490 OA
ENDROOT
BRANCH   1   8
ATOM      5  C   LIG    1       -1.256   1.946   5.795  0.00  0.00    +0.100 A 
ATOM      6  C   LIG    1       -2.301   2.664   5.380  0.00  0.00    -0.130 A 
ATOM      7  S   LIG    1       -2.297   2.668   3.619  0.00  0.00    +0.250 S 
ATOM      8  C   LIG    1       -0.892   1.694   3.609  0.00  0.00    +0.240 A 
ATOM      9  N   LIG    1       -0.519   1.439   4.824  0.00  0.00    -0.490 NA
BRANCH   5  10
ATOM     10  C   LIG    1       -0.941   1.732   7.253  0.00  0.00    +0.200 C 
BRANCH  10  11
ATOM     11  C   LIG    1       -0.846   0.255   7.535  0.00  0.00    +0.460 C 
ATOM     12  O   LIG    1       -1.016  -0.542   6.643  0.00  0.00    -0.490 OA
BRANCH  11  13
ATOM     13  O   LIG    1       -0.573  -0.175   8.776  0.00  0.00    -0.360 OA
BRANCH  13  15
ATOM     14  C   LIG    1       -0.178  -1.908  10.441  0.00  0.00    +0.070 C 
ATOM     15  C   LIG    1       -0.496  -1.612   8.974  0.00  0.00    +0.200 C 
ENDBRANCH  13  15
ENDBRANCH  11  13
ENDBRANCH  10  11
ENDBRANCH   5  10
ENDBRANCH   1   8
BRANCH   3  16
ATOM     16  C   LIG    1       -0.013   1.086   0.008  0.00  0.00    +0.180 C 
BRANCH  16  17
ATOM     17  C   LIG    1       -0.742   1.585  -1.213  0.00  0.00    -0.170 A 
ATOM     18  C   LIG    1       -1.673   0.929  -1.918  0.00  0.00    +0.240 A 
ATOM     19  O   LIG    1       -2.100   1.689  -2.942  0.00  0.00    -0.190 OA
ATOM     20  C   LIG    1       -1.466   2.879  -2.954  0.00  0.00    +0.060 A 
ATOM     21  C   LIG    1       -1.541   3.992  -3.781  0.00  0.00    -0.070 A 
ATOM     22  C   LIG    1       -0.745   5.090  -3.533  0.00  0.00    -0.060 A 
ATOM     23  C   LIG    1        0.136   5.098  -2.461  0.00  0.00    +0.000 A 
ATOM     24  C   LIG    1        0.225   4.004  -1.628  0.00  0.00    +0.050 A 
ATOM     25  C   LIG    1       -0.832   6.294  -4.435  0.00  0.00    +0.100 C 
ATOM     26  C   LIG    1       -2.492   4.000  -4.950  0.00  0.00    +0.100 C 
ATOM     27  C   LIG    1       -0.578   2.890  -1.865  0.00  0.00    -0.110 A 
ENDBRANCH  16  17
ENDBRANCH   3  16
TORSDOF 7
