REMARK  Name = ZINCrg00000J3cLF.0
REMARK                            x       y       z     vdW  Elec       q    Type
REMARK                         _______ _______ _______ _____ _____    ______ ____
ROOT
ATOM      1  C   LIG    1       -1.412  -4.226  -0.627  0.00  0.00    +0.240 C 
ATOM      2  N   LIG    1       -2.368  -3.635  -1.579  0.00  0.00    -0.720 N 
ATOM      3  H   LIG    1       -2.292  -2.773  -2.017  0.00  0.00    +0.440 HD
ATOM      4  C   LIG    1       -3.368  -4.524  -1.723  0.00  0.00    +0.710 C 
ATOM      5  N   LIG    1       -3.184  -5.623  -0.982  0.00  0.00    -0.560 N 
ATOM      6  O   LIG    1       -4.330  -4.348  -2.444  0.00  0.00    -0.540 OA
ATOM      7  C   LIG    1       -2.038  -5.561  -0.276  0.00  0.00    +0.530 C 
ATOM      8  O   LIG    1       -1.599  -6.399   0.482  0.00  0.00    -0.460 OA
ENDROOT
BRANCH   1   9
ATOM      9  C   LIG    1       -1.282  -3.348   0.620  0.00  0.00    +0.180 C 
BRANCH   9  12
ATOM     10  N   LIG    1        0.002  -0.004   0.002  0.00  0.00    -0.280 N 
ATOM     11  C   LIG    1       -0.976  -0.813   0.470  0.00  0.00    +0.150 A 
ATOM     12  C   LIG    1       -0.548  -2.080   0.267  0.00  0.00    -0.030 A 
ATOM     13  N   LIG    1        0.656  -1.986  -0.309  0.00  0.00    -0.260 NA
ATOM     14  N   LIG    1        0.951  -0.743  -0.457  0.00  0.00    -0.080 NA
BRANCH  10  16
ATOM     15  C   LIG    1       -0.758   1.968  -1.230  0.00  0.00    +0.060 C 
ATOM     16  C   LIG    1       -0.018   1.461   0.010  0.00  0.00    +0.260 C 
ATOM     17  C   LIG    1       -0.734   1.954   1.269  0.00  0.00    +0.060 C 
ENDBRANCH  10  16
ENDBRANCH   9  12
ENDBRANCH   1   9
BRANCH   5  18
ATOM     18  C   LIG    1       -4.114  -6.754  -0.944  0.00  0.00    +0.360 C 
BRANCH  18  19
ATOM     19  C   LIG    1       -5.130  -6.533   0.147  0.00  0.00    +0.500 C 
ATOM     20  N   LIG    1       -6.092  -7.451   0.368  0.00  0.00    -0.610 N 
ATOM     21  C   LIG    1       -6.150  -8.664  -0.452  0.00  0.00    +0.290 C 
ATOM     22  O   LIG    1       -5.082  -5.530   0.826  0.00  0.00    -0.520 OA
BRANCH  20  23
ATOM     23  C   LIG    1       -7.079  -7.237   1.429  0.00  0.00    +0.390 C 
BRANCH  23  24
ATOM     24  C   LIG    1       -8.266  -6.497   0.868  0.00  0.00    -0.210 A 
ATOM     25  C   LIG    1       -9.346  -7.068   0.332  0.00  0.00    +0.020 A 
ATOM     26  C   LIG    1      -10.311  -6.184  -0.118  0.00  0.00    +0.000 A 
ATOM     27  C   LIG    1      -10.016  -4.895   0.052  0.00  0.00    -0.060 A 
ATOM     28  S   LIG    1       -8.443  -4.747   0.826  0.00  0.00    +0.130 S 
ENDBRANCH  23  24
ENDBRANCH  20  23
ENDBRANCH  18  19
ENDBRANCH   5  18
TORSDOF 7
