REMARK  Name = ZINCpk00000y6xWk.0
REMARK                            x       y       z     vdW  Elec       q    Type
REMARK                         _______ _______ _______ _____ _____    ______ ____
ROOT
ATOM      1  C   LIG    1       -0.016   1.344   0.009  0.00  0.00    +0.520 C 
ATOM      2  N   LIG    1        0.002  -0.004   0.002  0.00  0.00    -0.710 N 
ATOM      3  H   LIG    1       -0.831  -0.500   0.007  0.00  0.00    +0.410 HD
ATOM      4  O   LIG    1        1.026   1.964   0.003  0.00  0.00    -0.520 OA
ENDROOT
BRANCH   2   5
ATOM      5  C   LIG    1        1.281  -0.719  -0.014  0.00  0.00    +0.250 C 
ATOM      6  C   LIG    1        1.805  -0.868   1.419  0.00  0.00    +0.030 C 
ATOM      7  C   LIG    1        3.219  -1.452   1.359  0.00  0.00    +0.090 C 
ATOM      8  C   LIG    1        3.238  -2.653   0.458  0.00  0.00    +0.520 C 
ATOM      9  N   LIG    1        2.282  -2.921  -0.432  0.00  0.00    -0.710 N 
ATOM     10  H   LIG    1        2.392  -3.702  -0.996  0.00  0.00    +0.400 HD
ATOM     11  O   LIG    1        4.173  -3.420   0.544  0.00  0.00    -0.550 OA
ATOM     12  C   LIG    1        1.081  -2.113  -0.610  0.00  0.00    +0.230 C 
BRANCH  12  13
ATOM     13  C   LIG    1        0.774  -1.986  -2.103  0.00  0.00    +0.150 C 
ATOM     14  C   LIG    1        0.571  -3.384  -2.718  0.00  0.00    +0.000 C 
ATOM     15  C   LIG    1       -0.861  -3.336  -3.306  0.00  0.00    +0.010 C 
ATOM     16  C   LIG    1       -1.100  -1.811  -3.453  0.00  0.00    +0.210 C 
ATOM     17  O   LIG    1       -0.450  -1.255  -2.290  0.00  0.00    -0.360 OA
ENDBRANCH  12  13
ENDBRANCH   2   5
BRANCH   1  18
ATOM     18  C   LIG    1       -1.331   2.079   0.020  0.00  0.00    +0.210 C 
BRANCH  18  19
ATOM     19  O   LIG    1       -1.089   3.488   0.026  0.00  0.00    -0.360 OA
BRANCH  19  20
ATOM     20  C   LIG    1       -2.277   4.282   0.036  0.00  0.00    +0.250 C 
BRANCH  20  27
ATOM     21  C   LIG    1       -4.346   6.299   0.057  0.00  0.00    +0.090 C 
ATOM     22  C   LIG    1       -2.896   6.707   0.052  0.00  0.00    -0.080 A 
ATOM     23  C   LIG    1       -2.555   8.046   0.058  0.00  0.00    +0.000 A 
ATOM     24  C   LIG    1       -1.224   8.421   0.054  0.00  0.00    +0.000 A 
ATOM     25  C   LIG    1       -0.234   7.456   0.045  0.00  0.00    -0.010 A 
ATOM     26  C   LIG    1       -0.575   6.116   0.044  0.00  0.00    +0.050 A 
ATOM     27  C   LIG    1       -1.906   5.742   0.042  0.00  0.00    -0.090 A 
ENDBRANCH  20  27
ENDBRANCH  19  20
ENDBRANCH  18  19
ENDBRANCH   1  18
TORSDOF 6
