REMARK  Name = ZINCrD00000F5LsC.0
REMARK                            x       y       z     vdW  Elec       q    Type
REMARK                         _______ _______ _______ _____ _____    ______ ____
ROOT
ATOM      1  N   LIG    1       -2.716   1.488   0.865  0.00  0.00    -0.980 NA
ENDROOT
BRANCH   1   2
ATOM      2  C   LIG    1       -1.783   2.120  -0.071  0.00  0.00    +0.300 C 
ATOM      3  C   LIG    1       -1.998   3.648  -0.095  0.00  0.00    +0.060 C 
ATOM      4  C   LIG    1       -0.992   4.137   0.974  0.00  0.00    +0.090 C 
ATOM      5  C   LIG    1        0.099   3.088   0.997  0.00  0.00    -0.080 A 
ATOM      6  C   LIG    1        1.385   3.148   1.499  0.00  0.00    +0.070 A 
ATOM      7  C   LIG    1        2.225   2.038   1.406  0.00  0.00    -0.020 A 
ATOM      8  C   LIG    1        1.758   0.868   0.804  0.00  0.00    +0.070 A 
ATOM      9  C   LIG    1        0.473   0.820   0.307  0.00  0.00    +0.040 A 
ATOM     10  C   LIG    1       -0.356   1.927   0.397  0.00  0.00    -0.090 A 
BRANCH   7  11
ATOM     11  C   LIG    1        3.558   2.098   1.925  0.00  0.00    +0.250 C 
ATOM     12  N   LIG    1        4.616   2.146   2.337  0.00  0.00    -0.410 NA
ENDBRANCH   7  11
ENDBRANCH   1   2
BRANCH   1  13
ATOM     13  S   LIG    1       -3.710   0.269   0.349  0.00  0.00    +2.670 S 
ATOM     14  O   LIG    1       -3.714   0.329  -1.071  0.00  0.00    -0.950 OA
ATOM     15  O   LIG    1       -4.892   0.355   1.133  0.00  0.00    -0.940 OA
BRANCH  13  17
ATOM     16  C   LIG    1       -3.557  -2.107   1.556  0.00  0.00    +0.220 C 
ATOM     17  C   LIG    1       -2.936  -1.254   0.780  0.00  0.00    -0.590 C 
ENDBRANCH  13  17
ENDBRANCH   1  13
BRANCH   1  18
ATOM     18  C   LIG    1       -2.768   1.935   2.260  0.00  0.00    +0.380 C 
BRANCH  18  19
ATOM     19  C   LIG    1       -4.105   2.576   2.531  0.00  0.00    +0.060 A 
ATOM     20  C   LIG    1       -4.494   3.810   2.133  0.00  0.00    -0.110 A 
ATOM     21  C   LIG    1       -5.800   4.017   2.589  0.00  0.00    +0.220 A 
ATOM     22  N   LIG    1       -6.181   2.947   3.238  0.00  0.00    -0.280 NA
ATOM     23  N   LIG    1       -5.130   2.021   3.211  0.00  0.00    -0.330 N 
BRANCH  23  24
ATOM     24  C   LIG    1       -5.141   0.687   3.816  0.00  0.00    +0.340 C 
BRANCH  24  25
ATOM     25  C   LIG    1       -4.779   0.796   5.298  0.00  0.00    -0.040 C 
ATOM     26  C   LIG    1       -3.331   1.270   5.436  0.00  0.00    +0.020 C 
ATOM     27  C   LIG    1       -4.933  -0.573   5.963  0.00  0.00    +0.030 C 
ENDBRANCH  24  25
ENDBRANCH  23  24
ENDBRANCH  18  19
ENDBRANCH   1  18
TORSDOF 8
