REMARK  Name = ZINCpe000000UN5u.0
REMARK                            x       y       z     vdW  Elec       q    Type
REMARK                         _______ _______ _______ _____ _____    ______ ____
ROOT
ATOM      1  C   LIG    1        0.398  -6.461  -1.080  0.00  0.00    +0.300 C 
ENDROOT
BRANCH   1   2
ATOM      2  C   LIG    1        1.204  -7.092  -2.217  0.00  0.00    +0.160 C 
ATOM      3  C   LIG    1        0.904  -8.592  -2.285  0.00  0.00    +0.170 C 
ATOM      4  N   LIG    1        1.621  -9.178  -3.427  0.00  0.00    -0.530 NA
ATOM      5  C   LIG    1        1.222  -8.527  -4.683  0.00  0.00    +0.140 C 
ATOM      6  C   LIG    1        1.518  -7.028  -4.591  0.00  0.00    +0.220 C 
ATOM      7  O   LIG    1        0.838  -6.481  -3.458  0.00  0.00    -0.380 OA
BRANCH   4   8
ATOM      8  C   LIG    1        1.405 -10.630  -3.494  0.00  0.00    +0.230 C 
BRANCH   8   9
ATOM      9  C   LIG    1        1.944 -11.157  -4.800  0.00  0.00    -0.090 A 
ATOM     10  C   LIG    1        1.123 -11.222  -5.910  0.00  0.00    +0.010 A 
ATOM     11  C   LIG    1        1.618 -11.702  -7.108  0.00  0.00    +0.000 A 
ATOM     12  C   LIG    1        2.931 -12.126  -7.194  0.00  0.00    +0.000 A 
ATOM     13  C   LIG    1        3.750 -12.066  -6.082  0.00  0.00    +0.000 A 
ATOM     14  C   LIG    1        3.256 -11.582  -4.885  0.00  0.00    +0.020 A 
ENDBRANCH   8   9
ENDBRANCH   4   8
ENDBRANCH   1   2
BRANCH   1  16
ATOM     15  C   LIG    1        0.084  -4.260  -0.084  0.00  0.00    +0.520 C 
ATOM     16  N   LIG    1        0.685  -5.026  -1.016  0.00  0.00    -0.720 N 
ATOM     17  H   LIG    1        1.308  -4.628  -1.643  0.00  0.00    +0.410 HD
ATOM     18  O   LIG    1       -0.695  -4.758   0.701  0.00  0.00    -0.530 OA
BRANCH  15  23
ATOM     19  C   LIG    1       -0.018   1.461   0.010  0.00  0.00    +0.290 C 
ATOM     20  N   LIG    1        0.002  -0.004   0.002  0.00  0.00    -0.610 N 
ATOM     21  C   LIG    1        0.024  -0.694   1.286  0.00  0.00    +0.260 C 
ATOM     22  C   LIG    1       -0.426  -2.146   1.121  0.00  0.00    +0.060 C 
ATOM     23  C   LIG    1        0.380  -2.783  -0.018  0.00  0.00    +0.000 C 
ATOM     24  C   LIG    1       -0.030  -2.116  -1.333  0.00  0.00    +0.100 C 
ATOM     25  C   LIG    1       -0.006  -0.623  -1.179  0.00  0.00    +0.520 C 
ATOM     26  O   LIG    1        0.012   0.057  -2.183  0.00  0.00    -0.550 OA
ENDBRANCH  15  23
ENDBRANCH   1  16
TORSDOF 5
