REMARK  Name = ZINCrg00001JduZl.0
REMARK                            x       y       z     vdW  Elec       q    Type
REMARK                         _______ _______ _______ _____ _____    ______ ____
ROOT
ATOM      1  C   LIG    1        5.167   1.583  -1.341  0.00  0.00    +0.530 C 
ATOM      2  N   LIG    1        5.798   0.425  -1.064  0.00  0.00    -0.730 N 
ATOM      3  H   LIG    1        5.348  -0.421  -1.216  0.00  0.00    +0.400 HD
ATOM      4  O   LIG    1        5.693   2.641  -1.068  0.00  0.00    -0.500 OA
ENDROOT
BRANCH   1   8
ATOM      5  C   LIG    1        2.365   3.178  -3.022  0.00  0.00    +0.220 C 
ATOM      6  C   LIG    1        2.607   2.030  -4.025  0.00  0.00    +0.050 C 
ATOM      7  C   LIG    1        3.942   1.410  -3.526  0.00  0.00    +0.070 C 
ATOM      8  C   LIG    1        3.807   1.564  -1.991  0.00  0.00    +0.140 C 
ATOM      9  N   LIG    1        3.127   2.863  -1.800  0.00  0.00    -0.640 NA
ATOM     10  H   LIG    1        2.522   2.839  -0.993  0.00  0.00    +0.360 HD
BRANCH   5  11
ATOM     11  C   LIG    1        0.896   3.275  -2.700  0.00  0.00    +0.450 C 
ATOM     12  O   LIG    1        0.468   2.791  -1.678  0.00  0.00    -0.510 OA
BRANCH  11  13
ATOM     13  O   LIG    1        0.062   3.894  -3.549  0.00  0.00    -0.350 OA
BRANCH  13  15
ATOM     14  C   LIG    1       -2.130   4.684  -4.260  0.00  0.00    +0.070 C 
ATOM     15  C   LIG    1       -1.341   3.945  -3.177  0.00  0.00    +0.200 C 
ENDBRANCH  13  15
ENDBRANCH  11  13
ENDBRANCH   5  11
ENDBRANCH   1   8
BRANCH   2  16
ATOM     16  C   LIG    1        7.162   0.444  -0.532  0.00  0.00    +0.320 C 
BRANCH  16  17
ATOM     17  C   LIG    1        8.140   0.629  -1.664  0.00  0.00    -0.140 A 
ATOM     18  C   LIG    1        7.938  -0.026  -2.865  0.00  0.00    +0.060 A 
ATOM     19  C   LIG    1        8.830   0.147  -3.906  0.00  0.00    -0.080 A 
ATOM     20  C   LIG    1        9.934   0.970  -3.742  0.00  0.00    +0.130 A 
ATOM     21  C   LIG    1       10.137   1.623  -2.534  0.00  0.00    -0.020 A 
ATOM     22  C   LIG    1        9.240   1.450  -1.498  0.00  0.00    +0.070 A 
BRANCH  20  23
ATOM     23  O   LIG    1       10.816   1.138  -4.763  0.00  0.00    -0.320 OA
ATOM     24  C   LIG    1       10.543   0.436  -5.977  0.00  0.00    +0.250 C 
ENDBRANCH  20  23
ENDBRANCH  16  17
BRANCH  16  25
ATOM     25  C   LIG    1        7.451  -0.880   0.178  0.00  0.00    +0.120 C 
BRANCH  25  26
ATOM     26  C   LIG    1        6.566  -1.002   1.392  0.00  0.00    +0.450 C 
ATOM     27  O   LIG    1        5.857  -0.080   1.718  0.00  0.00    -0.490 OA
BRANCH  26  28
ATOM     28  O   LIG    1        6.565  -2.136   2.111  0.00  0.00    -0.360 OA
ATOM     29  C   LIG    1        5.687  -2.183   3.267  0.00  0.00    +0.260 C 
ENDBRANCH  26  28
ENDBRANCH  25  26
ENDBRANCH  16  25
ENDBRANCH   2  16
TORSDOF 10
