REMARK  Name = ZINCah0000002HPq.0
REMARK                            x       y       z     vdW  Elec       q    Type
REMARK                         _______ _______ _______ _____ _____    ______ ____
ROOT
ATOM      1  O   LIG    1       -2.549   3.333  -1.198  0.00  0.00    -0.420 OA
ATOM      2  C   LIG    1       -1.724   2.695  -0.587  0.00  0.00    +0.490 C 
ATOM      3  O   LIG    1       -1.465   2.824   0.722  0.00  0.00    -0.330 OA
ATOM      4  C   LIG    1       -0.806   1.619   1.223  0.00  0.00    +0.280 C 
ATOM      5  C   LIG    1       -0.013   1.086   0.008  0.00  0.00    +0.070 C 
ATOM      6  C   LIG    1       -0.829   1.632  -1.185  0.00  0.00    -0.050 C 
ENDROOT
BRANCH   6   7
ATOM      7  C   LIG    1        0.103   2.244  -2.232  0.00  0.00    +0.470 C 
ATOM      8  F   LIG    1        0.827   3.294  -1.656  0.00  0.00    -0.170 F 
ATOM      9  F   LIG    1       -0.654   2.732  -3.303  0.00  0.00    -0.170 F 
ATOM     10  F   LIG    1        0.990   1.266  -2.696  0.00  0.00    -0.170 F 
ENDBRANCH   6   7
TORSDOF 1
