REMARK  Name = ZINCvU00000008q2.0
REMARK                            x       y       z     vdW  Elec       q    Type
REMARK                         _______ _______ _______ _____ _____    ______ ____
ROOT
ATOM      1  S   LIG    1        1.229   7.964  -0.577  0.00  0.00    +0.060 S 
ENDROOT
BRANCH   1   2
ATOM      2  C   LIG    1        1.300   6.208  -0.460  0.00  0.00    +0.070 A 
ATOM      3  C   LIG    1        2.396   5.574   0.172  0.00  0.00    -0.060 A 
ATOM      4  C   LIG    1        3.464   6.287   0.727  0.00  0.00    +0.050 A 
ATOM      5  C   LIG    1        4.487   5.606   1.320  0.00  0.00    +0.050 A 
ATOM      6  C   LIG    1        4.484   4.215   1.380  0.00  0.00    +0.050 A 
ATOM      7  C   LIG    1        3.457   3.491   0.847  0.00  0.00    +0.050 A 
ATOM      8  C   LIG    1        2.393   4.157   0.233  0.00  0.00    -0.050 A 
ATOM      9  C   LIG    1        1.292   3.475  -0.343  0.00  0.00    +0.150 A 
ATOM     10  N   LIG    1        0.329   4.181  -0.911  0.00  0.00    -0.240 NA
ATOM     11  N   LIG    1        0.330   5.461  -0.961  0.00  0.00    -0.270 NA
BRANCH   9  12
ATOM     12  C   LIG    1        1.225   1.997  -0.315  0.00  0.00    -0.050 A 
ATOM     13  C   LIG    1        1.544   1.303   0.853  0.00  0.00    +0.030 A 
ATOM     14  C   LIG    1        1.480  -0.075   0.873  0.00  0.00    +0.010 A 
ATOM     15  C   LIG    1        1.101  -0.769  -0.262  0.00  0.00    +0.030 A 
ATOM     16  C   LIG    1        0.783  -0.087  -1.423  0.00  0.00    +0.010 A 
ATOM     17  C   LIG    1        0.844   1.291  -1.456  0.00  0.00    +0.050 A 
ENDBRANCH   9  12
ENDBRANCH   1   2
BRANCH   1  18
ATOM     18  C   LIG    1       -0.344   8.157  -1.451  0.00  0.00    +0.010 C 
ATOM     19  C   LIG    1       -1.486   7.657  -0.564  0.00  0.00    +0.080 C 
BRANCH  18  22
ATOM     20  N   LIG    1       -1.427   9.962  -2.750  0.00  0.00    -0.670 N 
ATOM     21  H   LIG    1       -1.959   9.283  -3.194  0.00  0.00    +0.420 HD
ATOM     22  C   LIG    1       -0.563   9.612  -1.778  0.00  0.00    +0.540 C 
ATOM     23  O   LIG    1        0.040  10.468  -1.165  0.00  0.00    -0.500 OA
BRANCH  20  27
ATOM     24  C   LIG    1       -1.817  13.956  -3.849  0.00  0.00    -0.190 A 
ATOM     25  C   LIG    1       -1.589  13.615  -2.510  0.00  0.00    +0.100 A 
ATOM     26  C   LIG    1       -1.462  12.297  -2.152  0.00  0.00    +0.020 A 
ATOM     27  C   LIG    1       -1.558  11.300  -3.118  0.00  0.00    +0.180 A 
ATOM     28  C   LIG    1       -1.778  11.634  -4.451  0.00  0.00    -0.030 A 
ATOM     29  C   LIG    1       -1.913  12.948  -4.817  0.00  0.00    +0.090 A 
BRANCH  24  31
ATOM     30  C   LIG    1       -2.198  15.730  -5.679  0.00  0.00    +0.080 C 
ATOM     31  C   LIG    1       -1.953  15.366  -4.237  0.00  0.00    +0.390 C 
ATOM     32  O   LIG    1       -1.869  16.237  -3.397  0.00  0.00    -0.460 OA
ENDBRANCH  24  31
ENDBRANCH  20  27
ENDBRANCH  18  22
ENDBRANCH   1  18
TORSDOF 6
