REMARK  Name = ZINCrg000000tgDs.0
REMARK                            x       y       z     vdW  Elec       q    Type
REMARK                         _______ _______ _______ _____ _____    ______ ____
ROOT
ATOM      1  O   LIG    1       -3.161   5.699  -4.333  0.00  0.00    -0.500 OA
ATOM      2  C   LIG    1       -3.392   4.973  -5.277  0.00  0.00    +0.530 C 
ATOM      3  N   LIG    1       -3.288   5.448  -6.534  0.00  0.00    -0.510 N 
ATOM      4  H   LIG    1       -3.473   4.867  -7.288  0.00  0.00    +0.430 HD
ENDROOT
BRANCH   3   5
ATOM      5  N   LIG    1       -2.914   6.780  -6.750  0.00  0.00    -0.380 N 
ATOM      6  C   LIG    1       -3.724   7.829  -6.563  0.00  0.00    +0.710 C 
ATOM      7  N   LIG    1       -3.120   9.001  -6.838  0.00  0.00    -0.710 N 
ATOM      8  H   LIG    1       -3.511   9.886  -6.771  0.00  0.00    +0.440 HD
ATOM      9  C   LIG    1       -1.754   8.673  -7.265  0.00  0.00    +0.140 C 
ATOM     10  C   LIG    1       -1.517   9.133  -8.699  0.00  0.00    +0.050 C 
ATOM     11  C   LIG    1       -1.609  10.659  -8.771  0.00  0.00    +0.030 C 
ATOM     12  C   LIG    1       -0.563  11.276  -7.840  0.00  0.00    +0.010 C 
ATOM     13  C   LIG    1       -0.829  10.826  -6.402  0.00  0.00    +0.030 C 
ATOM     14  C   LIG    1       -0.734   9.300  -6.321  0.00  0.00    +0.050 C 
ATOM     15  O   LIG    1       -4.875   7.735  -6.184  0.00  0.00    -0.530 OA
ATOM     16  C   LIG    1       -1.694   7.165  -7.179  0.00  0.00    +0.530 C 
ATOM     17  O   LIG    1       -0.749   6.452  -7.440  0.00  0.00    -0.440 OA
ENDBRANCH   3   5
BRANCH   2  18
ATOM     18  C   LIG    1       -3.794   3.539  -5.044  0.00  0.00    +0.210 C 
BRANCH  18  19
ATOM     19  C   LIG    1       -3.835   3.263  -3.563  0.00  0.00    +0.110 A 
ATOM     20  C   LIG    1       -4.904   3.530  -2.809  0.00  0.00    -0.070 A 
ATOM     21  S   LIG    1       -4.537   3.053  -1.153  0.00  0.00    +0.140 S 
ATOM     22  C   LIG    1       -2.975   2.549  -1.634  0.00  0.00    +0.280 A 
ATOM     23  N   LIG    1       -2.818   2.738  -2.906  0.00  0.00    -0.480 NA
BRANCH  22  24
ATOM     24  N   LIG    1       -2.016   2.009  -0.784  0.00  0.00    -0.540 N 
ATOM     25  C   LIG    1       -2.209   1.800   0.655  0.00  0.00    +0.270 C 
ATOM     26  C   LIG    1       -0.787   1.610   1.239  0.00  0.00    +0.060 C 
ATOM     27  C   LIG    1       -0.013   1.086   0.008  0.00  0.00    +0.070 C 
ATOM     28  C   LIG    1       -0.793   1.611  -1.176  0.00  0.00    +0.520 C 
ATOM     29  O   LIG    1       -0.377   1.665  -2.314  0.00  0.00    -0.470 OA
ENDBRANCH  22  24
ENDBRANCH  18  19
ENDBRANCH   2  18
TORSDOF 4
