REMARK  Name = ZINCpk00000y6xNE.0
REMARK                            x       y       z     vdW  Elec       q    Type
REMARK                         _______ _______ _______ _____ _____    ______ ____
ROOT
ATOM      1  C   LIG    1        0.826   4.626  -3.419  0.00  0.00    +0.270 C 
ATOM      2  C   LIG    1        1.076   3.270  -4.082  0.00  0.00    +0.050 C 
ATOM      3  C   LIG    1        2.525   2.848  -3.913  0.00  0.00    +0.020 C 
ATOM      4  C   LIG    1        2.913   2.549  -2.477  0.00  0.00    +0.020 C 
ATOM      5  C   LIG    1        2.881   3.826  -1.626  0.00  0.00    +0.280 C 
ATOM      6  N   LIG    1        1.510   4.016  -1.124  0.00  0.00    -0.590 N 
ATOM      7  C   LIG    1        0.535   4.397  -1.951  0.00  0.00    +0.510 C 
ATOM      8  O   LIG    1       -0.589   4.559  -1.525  0.00  0.00    -0.520 OA
ENDROOT
BRANCH   1   9
ATOM      9  N   LIG    1        2.016   5.470  -3.558  0.00  0.00    -0.700 N 
ATOM     10  H   LIG    1        2.867   5.072  -3.801  0.00  0.00    +0.420 HD
BRANCH   9  15
ATOM     11  C   LIG    1        2.916   8.914  -3.266  0.00  0.00    +0.540 A 
ATOM     12  N   LIG    1        1.774   9.495  -2.935  0.00  0.00    -0.600 NA
ATOM     13  C   LIG    1        0.664   8.784  -2.794  0.00  0.00    +0.240 A 
ATOM     14  C   LIG    1        0.705   7.420  -3.002  0.00  0.00    -0.170 A 
ATOM     15  C   LIG    1        1.926   6.835  -3.345  0.00  0.00    +0.470 A 
ATOM     16  C   LIG    1       -0.629   9.459  -2.416  0.00  0.00    +0.140 C 
ATOM     17  N   LIG    1        2.999   7.610  -3.469  0.00  0.00    -0.580 NA
BRANCH  11  19
ATOM     18  C   LIG    1        3.886  11.079  -3.171  0.00  0.00    +0.270 C 
ATOM     19  O   LIG    1        4.028   9.675  -3.401  0.00  0.00    -0.290 OA
ENDBRANCH  11  19
ENDBRANCH   9  15
ENDBRANCH   1   9
BRANCH   6  20
ATOM     20  C   LIG    1        1.216   3.790   0.293  0.00  0.00    +0.450 C 
BRANCH  20  21
ATOM     21  C   LIG    1        0.819   2.351   0.500  0.00  0.00    +0.160 A 
ATOM     22  N   LIG    1        1.622   1.351   0.776  0.00  0.00    -0.470 NA
ATOM     23  C   LIG    1        0.832   0.267   0.871  0.00  0.00    +0.170 A 
ATOM     24  N   LIG    1       -0.389   0.656   0.653  0.00  0.00    -0.380 NA
ATOM     25  C   LIG    1        1.279  -1.139   1.176  0.00  0.00    +0.210 C 
ATOM     26  O   LIG    1       -0.418   1.849   0.438  0.00  0.00    +0.090 OA
ENDBRANCH  20  21
ENDBRANCH   6  20
TORSDOF 5
