REMARK  Name = ZINCrD000000DhPU.0
REMARK                            x       y       z     vdW  Elec       q    Type
REMARK                         _______ _______ _______ _____ _____    ______ ____
ROOT
ATOM      1  C   LIG    1       -0.718   1.572   1.248  0.00  0.00    +0.190 A 
ATOM      2  N   LIG    1       -1.684   0.958   1.888  0.00  0.00    -0.480 NA
ATOM      3  C   LIG    1       -1.997   1.757   2.924  0.00  0.00    +0.210 A 
ATOM      4  N   LIG    1       -1.225   2.800   2.857  0.00  0.00    -0.380 NA
ATOM      5  O   LIG    1       -0.483   2.714   1.901  0.00  0.00    +0.080 OA
ENDROOT
BRANCH   3   6
ATOM      6  C   LIG    1       -3.052   1.494   3.967  0.00  0.00    -0.010 C 
ATOM      7  C   LIG    1       -4.295   2.386   3.955  0.00  0.00    +0.070 C 
ATOM      8  C   LIG    1       -3.246   2.548   5.058  0.00  0.00    +0.070 C 
BRANCH   6   9
ATOM      9  C   LIG    1       -3.236   0.049   4.355  0.00  0.00    -0.100 A 
ATOM     10  C   LIG    1       -3.082  -0.956   3.413  0.00  0.00    +0.100 A 
ATOM     11  C   LIG    1       -3.255  -2.271   3.816  0.00  0.00    -0.030 A 
ATOM     12  C   LIG    1       -3.585  -2.534   5.132  0.00  0.00    +0.260 A 
ATOM     13  N   LIG    1       -3.728  -1.552   6.001  0.00  0.00    -0.480 NA
ATOM     14  C   LIG    1       -3.566  -0.290   5.654  0.00  0.00    +0.260 A 
ENDBRANCH   6   9
ENDBRANCH   3   6
BRANCH   1  15
ATOM     15  C   LIG    1       -0.013   1.086   0.008  0.00  0.00    +0.290 C 
BRANCH  15  18
ATOM     16  N   LIG    1       -1.367   2.826  -2.897  0.00  0.00    -0.360 N 
ATOM     17  C   LIG    1       -0.507   2.751  -1.859  0.00  0.00    +0.260 A 
ATOM     18  C   LIG    1       -0.742   1.585  -1.213  0.00  0.00    -0.250 A 
ATOM     19  C   LIG    1       -1.776   0.923  -1.882  0.00  0.00    +0.250 A 
ATOM     20  N   LIG    1       -2.155   1.668  -2.888  0.00  0.00    -0.280 NA
BRANCH  16  21
ATOM     21  C   LIG    1       -1.458   3.924  -3.862  0.00  0.00    +0.380 C 
BRANCH  21  25
ATOM     22  C   LIG    1       -1.060   2.376  -7.823  0.00  0.00    +0.010 A 
ATOM     23  C   LIG    1       -2.311   2.474  -7.242  0.00  0.00    +0.010 A 
ATOM     24  C   LIG    1       -2.439   2.975  -5.960  0.00  0.00    +0.040 A 
ATOM     25  C   LIG    1       -1.318   3.378  -5.259  0.00  0.00    -0.110 A 
ATOM     26  C   LIG    1       -0.068   3.284  -5.842  0.00  0.00    +0.020 A 
ATOM     27  C   LIG    1        0.061   2.778  -7.122  0.00  0.00    +0.000 A 
ENDBRANCH  21  25
ENDBRANCH  16  21
ENDBRANCH  15  18
ENDBRANCH   1  15
TORSDOF 6
