REMARK  Name = ZINCrg000000sbIo.0
REMARK                            x       y       z     vdW  Elec       q    Type
REMARK                         _______ _______ _______ _____ _____    ______ ____
ROOT
ATOM      1  N   LIG    1       -0.664   2.813  -1.310  0.00  0.00    -1.000 NA
ATOM      2  C   LIG    1       -0.935   1.373  -1.207  0.00  0.00    +0.290 C 
ATOM      3  C   LIG    1       -0.227   0.826   0.036  0.00  0.00    +0.050 C 
ATOM      4  C   LIG    1       -0.657   1.635   1.262  0.00  0.00    -0.010 C 
ATOM      5  C   LIG    1       -0.249   3.099   1.077  0.00  0.00    +0.030 C 
ATOM      6  C   LIG    1       -0.957   3.672  -0.155  0.00  0.00    +0.300 C 
ENDROOT
BRANCH   4   7
ATOM      7  C   LIG    1        0.012   1.078   2.492  0.00  0.00    +0.520 C 
ATOM      8  N   LIG    1       -0.417   1.443   3.716  0.00  0.00    -0.610 N 
ATOM      9  C   LIG    1        0.298   0.985   4.910  0.00  0.00    +0.290 C 
ATOM     10  O   LIG    1        0.937   0.302   2.380  0.00  0.00    -0.520 OA
BRANCH   8  11
ATOM     11  C   LIG    1       -1.600   2.297   3.853  0.00  0.00    +0.260 C 
ATOM     12  C   LIG    1       -2.691   1.546   4.636  0.00  0.00    +0.070 C 
ATOM     13  C   LIG    1       -3.761   2.598   5.027  0.00  0.00    -0.310 C 
ATOM     14  S   LIG    1       -2.739   4.023   5.560  0.00  0.00    +2.390 S 
ATOM     15  O   LIG    1       -3.283   5.222   5.027  0.00  0.00    -0.930 OA
ATOM     16  O   LIG    1       -2.481   3.921   6.954  0.00  0.00    -0.930 OA
ATOM     17  C   LIG    1       -1.228   3.575   4.630  0.00  0.00    -0.320 C 
ENDBRANCH   8  11
ENDBRANCH   4   7
BRANCH   1  18
ATOM     18  S   LIG    1       -0.040   3.457  -2.703  0.00  0.00    +2.690 S 
ATOM     19  O   LIG    1        0.626   2.395  -3.372  0.00  0.00    -0.950 OA
ATOM     20  O   LIG    1        0.604   4.668  -2.332  0.00  0.00    -0.950 OA
BRANCH  18  25
ATOM     21  C   LIG    1       -4.705   5.012  -6.200  0.00  0.00    +0.090 C 
ATOM     22  C   LIG    1       -3.540   4.623  -5.327  0.00  0.00    -0.030 A 
ATOM     23  C   LIG    1       -3.017   5.533  -4.428  0.00  0.00    -0.010 A 
ATOM     24  C   LIG    1       -1.948   5.177  -3.626  0.00  0.00    +0.120 A 
ATOM     25  C   LIG    1       -1.403   3.911  -3.724  0.00  0.00    -0.690 A 
ATOM     26  C   LIG    1       -1.923   3.002  -4.627  0.00  0.00    +0.120 A 
ATOM     27  C   LIG    1       -2.995   3.357  -5.424  0.00  0.00    -0.010 A 
ENDBRANCH  18  25
ENDBRANCH   1  18
TORSDOF 4
