REMARK  Name = ZINCtV00001bB3tQ.0
REMARK                            x       y       z     vdW  Elec       q    Type
REMARK                         _______ _______ _______ _____ _____    ______ ____
ROOT
ATOM      1  C   LIG    1        2.991  -2.966  -0.045  0.00  0.00    -0.140 C 
ATOM      2  C   LIG    1        1.618  -3.172  -0.032  0.00  0.00    +0.310 C 
ENDROOT
BRANCH   2   3
ATOM      3  C   LIG    1        0.743  -2.074  -0.018  0.00  0.00    -0.060 A 
ATOM      4  C   LIG    1       -0.643  -2.138  -0.004  0.00  0.00    +0.070 A 
ATOM      5  C   LIG    1       -1.107  -0.824   0.008  0.00  0.00    -0.030 A 
ATOM      6  C   LIG    1        0.002  -0.004   0.002  0.00  0.00    +0.090 A 
ATOM      7  O   LIG    1        1.104  -0.773  -0.018  0.00  0.00    -0.150 OA
BRANCH   6   8
ATOM      8  C   LIG    1       -0.018   1.471   0.010  0.00  0.00    -0.030 A 
ATOM      9  C   LIG    1        1.181   2.189   0.003  0.00  0.00    +0.050 A 
ATOM     10  C   LIG    1        1.155   3.569   0.010  0.00  0.00    +0.040 A 
ATOM     11  C   LIG    1       -0.054   4.242   0.025  0.00  0.00    +0.050 A 
ATOM     12  C   LIG    1       -1.246   3.537   0.033  0.00  0.00    -0.040 A 
ATOM     13 CL   LIG    1       -2.757   4.391   0.051  0.00  0.00    -0.060 Cl
ATOM     14  C   LIG    1       -1.236   2.157   0.020  0.00  0.00    +0.060 A 
ENDBRANCH   6   8
ENDBRANCH   2   3
BRANCH   1  15
ATOM     15  C   LIG    1        3.905  -4.113  -0.060  0.00  0.00    +0.580 C 
ATOM     16  N   LIG    1        5.238  -3.912  -0.072  0.00  0.00    -0.620 N 
ATOM     17  H   LIG    1        5.593  -3.010  -0.071  0.00  0.00    +0.430 HD
ATOM     18  O   LIG    1        3.461  -5.246  -0.062  0.00  0.00    -0.490 OA
BRANCH  16  19
ATOM     19  C   LIG    1        6.103  -4.998  -0.087  0.00  0.00    +0.280 A 
ATOM     20  N   LIG    1        7.398  -4.923  -0.099  0.00  0.00    -0.490 NA
ATOM     21  C   LIG    1        8.068  -6.074  -0.112  0.00  0.00    +0.160 A 
ATOM     22  C   LIG    1        7.303  -7.183  -0.111  0.00  0.00    -0.110 A 
ATOM     23  S   LIG    1        5.612  -6.689  -0.084  0.00  0.00    +0.220 S 
BRANCH  21  24
ATOM     24  C   LIG    1        9.545  -6.130  -0.127  0.00  0.00    -0.130 A 
ATOM     25  C   LIG    1       10.365  -5.061  -0.134  0.00  0.00    +0.050 A 
ATOM     26  C   LIG    1       11.711  -5.366  -0.145  0.00  0.00    +0.000 A 
ATOM     27  C   LIG    1       11.995  -6.671  -0.154  0.00  0.00    -0.040 A 
ATOM     28  S   LIG    1       10.505  -7.604  -0.144  0.00  0.00    +0.130 S 
ENDBRANCH  21  24
ENDBRANCH  16  19
ENDBRANCH   1  15
BRANCH   1  30
ATOM     29  N   LIG    1        3.929  -0.575  -0.041  0.00  0.00    -0.390 NA
ATOM     30  C   LIG    1        3.514  -1.633  -0.043  0.00  0.00    +0.240 C 
ENDBRANCH   1  30
TORSDOF 6
