REMARK  Name = ZINCtj0000003n9b.0
REMARK                            x       y       z     vdW  Elec       q    Type
REMARK                         _______ _______ _______ _____ _____    ______ ____
ROOT
ATOM      1  C   LIG    1        2.882   1.037   1.740  0.00  0.00    +0.290 C 
ENDROOT
BRANCH   1   2
ATOM      2  N   LIG    1        3.891   1.976   1.231  0.00  0.00    -0.380 N 
ATOM      3  C   LIG    1        5.190   1.298   1.149  0.00  0.00    +0.260 C 
ATOM      4  C   LIG    1        6.262   2.293   0.699  0.00  0.00    +0.060 C 
ATOM      5  C   LIG    1        5.887   2.847  -0.679  0.00  0.00    +0.130 C 
ATOM      6  C   LIG    1        4.497   3.486  -0.601  0.00  0.00    +0.090 C 
ATOM      7  C   LIG    1        3.492   2.447  -0.100  0.00  0.00    +0.260 C 
ATOM      8  H   LIG    1        3.963   2.763   1.858  0.00  0.00    +0.420 HD
BRANCH   5   9
ATOM      9  O   LIG    1        5.871   1.784  -1.633  0.00  0.00    -0.560 OA
ATOM     10  H   LIG    1        6.647   1.208  -1.594  0.00  0.00    +0.390 HD
ENDBRANCH   5   9
BRANCH   5  11
ATOM     11  C   LIG    1        6.911   3.901  -1.104  0.00  0.00    +0.180 C 
BRANCH  11  12
ATOM     12  N   LIG    1        8.233   3.273  -1.238  0.00  0.00    -0.540 NA
ATOM     13  C   LIG    1        9.306   4.258  -1.042  0.00  0.00    +0.160 C 
ATOM     14  C   LIG    1       10.662   3.553  -1.131  0.00  0.00    +0.220 C 
ATOM     15  O   LIG    1       10.764   2.884  -2.391  0.00  0.00    -0.380 OA
ATOM     16  C   LIG    1        9.734   1.917  -2.615  0.00  0.00    +0.220 C 
ATOM     17  C   LIG    1        8.369   2.606  -2.541  0.00  0.00    +0.150 C 
ENDBRANCH  11  12
ENDBRANCH   5  11
ENDBRANCH   1   2
BRANCH   1  18
ATOM     18  C   LIG    1        1.558   1.775   1.948  0.00  0.00    +0.070 C 
BRANCH  18  21
ATOM     19  N   LIG    1       -0.730   1.241   2.723  0.00  0.00    -0.660 N 
ATOM     20  H   LIG    1       -0.944   2.184   2.648  0.00  0.00    +0.420 HD
ATOM     21  C   LIG    1        0.522   0.812   2.469  0.00  0.00    +0.520 C 
ATOM     22  O   LIG    1        0.815  -0.350   2.657  0.00  0.00    -0.500 OA
BRANCH  19  29
ATOM     23  C   LIG    1       -2.955   2.201   4.215  0.00  0.00    +0.120 C 
ATOM     24  C   LIG    1       -2.824   0.752   3.822  0.00  0.00    -0.110 A 
ATOM     25  C   LIG    1       -3.801  -0.153   4.187  0.00  0.00    +0.130 A 
ATOM     26  C   LIG    1       -3.682  -1.483   3.826  0.00  0.00    -0.050 A 
ATOM     27  C   LIG    1       -2.586  -1.910   3.100  0.00  0.00    +0.120 A 
ATOM     28  C   LIG    1       -1.608  -1.008   2.728  0.00  0.00    +0.040 A 
ATOM     29  C   LIG    1       -1.721   0.326   3.093  0.00  0.00    +0.190 A 
BRANCH  26  30
ATOM     30  N   LIG    1       -4.731  -2.451   4.219  0.00  0.00    +0.020 N 
ATOM     31  O   LIG    1       -4.627  -3.623   3.902  0.00  0.00    -0.150 OA
ATOM     32  O   LIG    1       -5.697  -2.076   4.858  0.00  0.00    -0.150 OA
ENDBRANCH  26  30
ENDBRANCH  19  29
ENDBRANCH  18  21
ENDBRANCH   1  18
TORSDOF 8
