REMARK  Name = ZINCkj000005miAr.1
REMARK                            x       y       z     vdW  Elec       q    Type
REMARK                         _______ _______ _______ _____ _____    ______ ____
ROOT
ATOM      1  C   LIG    1       -5.088   0.387  -0.887  0.00  0.00    +0.120 C 
ATOM      2  C   LIG    1       -3.883  -0.526  -1.130  0.00  0.00    +0.100 C 
ATOM      3  C   LIG    1       -2.615   0.325  -1.226  0.00  0.00    +0.230 C 
ATOM      4  N   LIG    1       -2.436   1.081   0.019  0.00  0.00    -0.470 NA
ATOM      5  C   LIG    1       -3.559   2.000   0.249  0.00  0.00    +0.210 C 
ATOM      6  C   LIG    1       -4.855   1.198   0.390  0.00  0.00    +0.050 C 
ENDROOT
BRANCH   4   7
ATOM      7  C   LIG    1       -1.224   1.766   0.017  0.00  0.00    +0.250 C 
ATOM      8  C   LIG    1       -1.189   3.159  -0.013  0.00  0.00    +0.010 C 
ATOM      9  C   LIG    1        0.033   3.800  -0.008  0.00  0.00    +0.380 C 
ATOM     10  N   LIG    1        1.158   3.111   0.020  0.00  0.00    -0.460 NA
ATOM     11  C   LIG    1        1.168   1.791   0.045  0.00  0.00    +0.380 C 
ATOM     12  H   LIG    1        2.002   3.589   0.023  0.00  0.00    +0.460 HD
ATOM     13  C   LIG    1       -0.011   1.075   0.042  0.00  0.00    -0.090 C 
ATOM     14 CL   LIG    1        0.013  -0.660   0.074  0.00  0.00    +0.030 Cl
ENDBRANCH   4   7
BRANCH   1  15
ATOM     15  O   LIG    1       -5.246   1.274  -1.996  0.00  0.00    -0.550 OA
ATOM     16  H   LIG    1       -5.992   1.882  -1.910  0.00  0.00    +0.380 HD
ENDBRANCH   1  15
BRANCH   1  17
ATOM     17  C   LIG    1       -6.350  -0.464  -0.729  0.00  0.00    +0.320 C 
BRANCH  17  18
ATOM     18  N   LIG    1       -7.503   0.411  -0.497  0.00  0.00    -0.300 N 
ATOM     19  C   LIG    1       -8.642   0.432  -1.227  0.00  0.00    +0.150 A 
ATOM     20  C   LIG    1       -9.430   1.379  -0.668  0.00  0.00    +0.150 A 
ATOM     21  N   LIG    1       -8.741   1.891   0.357  0.00  0.00    -0.260 NA
ATOM     22  N   LIG    1       -7.603   1.296   0.432  0.00  0.00    -0.100 NA
ENDBRANCH  17  18
ENDBRANCH   1  17
TORSDOF 4
