REMARK  Name = ZINCvU0000000HnN.0
REMARK                            x       y       z     vdW  Elec       q    Type
REMARK                         _______ _______ _______ _____ _____    ______ ____
ROOT
ATOM      1  C   LIG    1       -1.773   0.835   1.744  0.00  0.00    +0.220 A 
ATOM      2  C   LIG    1       -2.312  -0.219   1.019  0.00  0.00    -0.030 A 
ATOM      3  C   LIG    1       -3.380  -0.933   1.527  0.00  0.00    +0.040 A 
ATOM      4  C   LIG    1       -3.921  -0.589   2.758  0.00  0.00    +0.100 A 
ATOM      5  C   LIG    1       -3.387   0.468   3.482  0.00  0.00    +0.080 A 
ATOM      6  C   LIG    1       -2.315   1.179   2.977  0.00  0.00    -0.090 A 
ATOM      7 CL   LIG    1       -1.646   2.500   3.882  0.00  0.00    -0.070 Cl
ENDROOT
BRANCH   4   8
ATOM      8  N   LIG    1       -5.009  -1.310   3.270  0.00  0.00    -0.670 N 
ATOM      9  H   LIG    1       -5.092  -2.259   3.086  0.00  0.00    +0.410 HD
ATOM     10  C   LIG    1       -5.939  -0.685   4.019  0.00  0.00    +0.520 C 
ATOM     11  O   LIG    1       -5.888   0.518   4.170  0.00  0.00    -0.510 OA
BRANCH  10  12
ATOM     12  C   LIG    1       -7.043  -1.479   4.668  0.00  0.00    +0.000 C 
ATOM     13  C   LIG    1       -7.960  -0.536   5.450  0.00  0.00    +0.040 C 
ATOM     14  C   LIG    1       -9.112  -1.343   6.056  0.00  0.00    +0.040 C 
ATOM     15  C   LIG    1       -9.867  -2.064   4.938  0.00  0.00    +0.190 C 
ATOM     16  N   LIG    1       -8.947  -2.955   4.220  0.00  0.00    -0.470 N 
ATOM     17  C   LIG    1       -7.858  -2.197   3.589  0.00  0.00    +0.230 C 
BRANCH  16  18
ATOM     18  C   LIG    1       -9.627  -3.723   3.282  0.00  0.00    +0.260 A 
ATOM     19  C   LIG    1      -10.699  -4.519   3.677  0.00  0.00    +0.210 A 
ATOM     20  N   LIG    1      -11.342  -5.247   2.784  0.00  0.00    -0.420 NA
ATOM     21  C   LIG    1      -10.970  -5.220   1.515  0.00  0.00    +0.190 A 
ATOM     22  C   LIG    1       -9.907  -4.431   1.119  0.00  0.00    +0.250 A 
ATOM     23  N   LIG    1       -9.260  -3.695   2.007  0.00  0.00    -0.480 NA
ENDBRANCH  16  18
ENDBRANCH  10  12
ENDBRANCH   4   8
BRANCH   1  24
ATOM     24  N   LIG    1       -0.687   1.554   1.232  0.00  0.00    -0.740 N 
ATOM     25  H   LIG    1       -0.313   2.293   1.737  0.00  0.00    +0.400 HD
BRANCH  24  27
ATOM     26  C   LIG    1       -0.907   1.877  -1.182  0.00  0.00    +0.030 C 
ATOM     27  C   LIG    1       -0.115   1.191  -0.067  0.00  0.00    +0.280 C 
BRANCH  27  28
ATOM     28  C   LIG    1        1.323   1.637  -0.125  0.00  0.00    -0.090 A 
ATOM     29  C   LIG    1        1.690   2.860   0.406  0.00  0.00    +0.010 A 
ATOM     30  C   LIG    1        3.010   3.267   0.357  0.00  0.00    +0.000 A 
ATOM     31  C   LIG    1        3.962   2.455  -0.232  0.00  0.00    +0.000 A 
ATOM     32  C   LIG    1        3.594   1.235  -0.768  0.00  0.00    +0.000 A 
ATOM     33  C   LIG    1        2.275   0.826  -0.715  0.00  0.00    +0.010 A 
ENDBRANCH  27  28
ENDBRANCH  24  27
ENDBRANCH   1  24
TORSDOF 6
