REMARK  Name = ZINCpk00001AZiTs.1
REMARK                            x       y       z     vdW  Elec       q    Type
REMARK                         _______ _______ _______ _____ _____    ______ ____
ROOT
ATOM      1  N   LIG    1        1.030   4.618  -1.923  0.00  0.00    -0.660 NA
ATOM      2  H   LIG    1        1.140   5.547  -1.545  0.00  0.00    +0.350 HD
ENDROOT
BRANCH   1   4
ATOM      3  C   LIG    1        1.739   3.160   0.002  0.00  0.00    +0.290 C 
ATOM      4  C   LIG    1        2.058   3.710  -1.398  0.00  0.00    +0.180 C 
ATOM      5  C   LIG    1        3.252   4.437  -0.752  0.00  0.00    +0.000 C 
ATOM      6  C   LIG    1        3.229   3.347   0.333  0.00  0.00    +0.170 C 
BRANCH   3  10
ATOM      7  C   LIG    1        1.817  -1.851  -0.026  0.00  0.00    +0.110 C 
ATOM      8  C   LIG    1        1.337  -0.423  -0.013  0.00  0.00    -0.240 A 
ATOM      9  C   LIG    1        2.119   0.681  -0.015  0.00  0.00    +0.210 A 
ATOM     10  N   LIG    1        1.309   1.760  -0.001  0.00  0.00    -0.360 N 
ATOM     11  N   LIG    1       -0.016   1.304   0.009  0.00  0.00    -0.280 NA
ATOM     12  C   LIG    1        0.002  -0.004   0.002  0.00  0.00    +0.220 A 
ENDBRANCH   3  10
BRANCH   6  13
ATOM     13  O   LIG    1        3.465   3.846   1.651  0.00  0.00    -0.550 OA
ATOM     14  H   LIG    1        4.401   3.965   1.865  0.00  0.00    +0.390 HD
ENDBRANCH   6  13
ENDBRANCH   1   4
BRANCH   1  15
ATOM     15  C   LIG    1        1.049   4.642  -3.392  0.00  0.00    +0.230 C 
BRANCH  15  16
ATOM     16  C   LIG    1       -0.018   5.581  -3.893  0.00  0.00    -0.060 A 
ATOM     17  C   LIG    1       -1.224   5.081  -4.342  0.00  0.00    +0.040 A 
ATOM     18  C   LIG    1       -2.203   5.943  -4.802  0.00  0.00    +0.000 A 
ATOM     19  C   LIG    1       -1.978   7.307  -4.813  0.00  0.00    +0.010 A 
ATOM     20  C   LIG    1       -0.775   7.814  -4.364  0.00  0.00    -0.030 A 
ATOM     21  C   LIG    1        0.209   6.952  -3.897  0.00  0.00    +0.090 A 
BRANCH  21  22
ATOM     22  N   LIG    1        1.426   7.461  -3.437  0.00  0.00    -0.500 N 
ATOM     23  C   LIG    1        1.229   8.300  -2.246  0.00  0.00    +0.160 C 
ATOM     24  C   LIG    1        2.590   8.787  -1.742  0.00  0.00    +0.220 C 
ATOM     25  O   LIG    1        3.259   9.489  -2.793  0.00  0.00    -0.380 OA
ATOM     26  C   LIG    1        3.467   8.702  -3.969  0.00  0.00    +0.220 C 
ATOM     27  C   LIG    1        2.115   8.214  -4.496  0.00  0.00    +0.160 C 
ENDBRANCH  21  22
ENDBRANCH  15  16
ENDBRANCH   1  15
TORSDOF 6
