REMARK  Name = ZINCtV00001bB3wf.0
REMARK                            x       y       z     vdW  Elec       q    Type
REMARK                         _______ _______ _______ _____ _____    ______ ____
ROOT
ATOM      1  C   LIG    1        0.040  -2.776  -0.014  0.00  0.00    -0.100 A 
ATOM      2  C   LIG    1       -1.179  -2.092   0.002  0.00  0.00    +0.080 A 
ATOM      3  C   LIG    1       -1.194  -0.715   0.010  0.00  0.00    -0.030 A 
ATOM      4  C   LIG    1        0.002  -0.004   0.002  0.00  0.00    +0.250 A 
ATOM      5  C   LIG    1        1.217  -0.682  -0.019  0.00  0.00    -0.060 A 
ATOM      6  C   LIG    1        1.240  -2.059  -0.021  0.00  0.00    +0.090 A 
ENDROOT
BRANCH   4   7
ATOM      7  N   LIG    1       -0.017   1.390   0.010  0.00  0.00    -0.470 N 
ATOM      8  C   LIG    1        1.168   2.262   0.003  0.00  0.00    +0.240 C 
ATOM      9  C   LIG    1        0.572   3.683   0.016  0.00  0.00    +0.070 C 
ATOM     10  C   LIG    1       -0.922   3.451   0.029  0.00  0.00    +0.110 C 
ATOM     11  N   LIG    1       -1.161   2.184   0.019  0.00  0.00    -0.230 NA
BRANCH  10  12
ATOM     12  C   LIG    1       -1.948   4.510   0.043  0.00  0.00    -0.030 A 
ATOM     13  C   LIG    1       -1.568   5.855   0.053  0.00  0.00    +0.040 A 
ATOM     14  C   LIG    1       -2.533   6.840   0.062  0.00  0.00    +0.010 A 
ATOM     15  C   LIG    1       -3.874   6.500   0.073  0.00  0.00    +0.020 A 
ATOM     16  C   LIG    1       -4.257   5.171   0.069  0.00  0.00    +0.010 A 
ATOM     17  C   LIG    1       -3.304   4.175   0.054  0.00  0.00    +0.050 A 
ENDBRANCH  10  12
ENDBRANCH   4   7
BRANCH   1  19
ATOM     18  N   LIG    1        1.193  -4.883  -0.037  0.00  0.00    -0.230 NA
ATOM     19  C   LIG    1        0.060  -4.249  -0.023  0.00  0.00    +0.230 C 
BRANCH  18  20
ATOM     20  N   LIG    1        1.212  -6.284  -0.046  0.00  0.00    -0.580 N 
ATOM     21  H   LIG    1        0.379  -6.780  -0.041  0.00  0.00    +0.390 HD
BRANCH  20  26
ATOM     22 CL   LIG    1        6.362  -9.165  -0.111  0.00  0.00    -0.050 Cl
ATOM     23  C   LIG    1        4.848  -8.318  -0.092  0.00  0.00    -0.060 A 
ATOM     24  C   LIG    1        3.682  -8.994   0.225  0.00  0.00    +0.100 A 
ATOM     25  C   LIG    1        2.475  -8.322   0.242  0.00  0.00    -0.090 A 
ATOM     26  C   LIG    1        2.431  -6.966  -0.061  0.00  0.00    +0.250 A 
ATOM     27  C   LIG    1        3.603  -6.291  -0.385  0.00  0.00    -0.060 A 
ATOM     28 CL   LIG    1        3.553  -4.599  -0.770  0.00  0.00    -0.020 Cl
ATOM     29 CL   LIG    1        1.014  -9.171   0.641  0.00  0.00    -0.050 Cl
ATOM     30  C   LIG    1        4.808  -6.968  -0.393  0.00  0.00    +0.090 A 
ENDBRANCH  20  26
ENDBRANCH  18  20
ENDBRANCH   1  19
TORSDOF 5
