REMARK  Name = ZINCtV00001bB3wf.1
REMARK                            x       y       z     vdW  Elec       q    Type
REMARK                         _______ _______ _______ _____ _____    ______ ____
ROOT
ATOM      1  C   LIG    1        1.176   1.783   0.000  0.00  0.00    -0.130 A 
ATOM      2  C   LIG    1       -0.013   1.076   0.008  0.00  0.00    +0.080 A 
ATOM      3  C   LIG    1       -1.218   1.749   0.017  0.00  0.00    -0.060 A 
ATOM      4  C   LIG    1       -1.236   3.139   0.029  0.00  0.00    +0.240 A 
ATOM      5  C   LIG    1       -0.039   3.846   0.022  0.00  0.00    -0.030 A 
ATOM      6  C   LIG    1        1.162   3.166   0.007  0.00  0.00    +0.060 A 
ENDROOT
BRANCH   4   7
ATOM      7  N   LIG    1       -2.452   3.822   0.044  0.00  0.00    -0.470 N 
ATOM      8  C   LIG    1       -3.785   3.199   0.053  0.00  0.00    +0.240 C 
ATOM      9  C   LIG    1       -4.748   4.402   0.069  0.00  0.00    +0.070 C 
ATOM     10  C   LIG    1       -3.829   5.603   0.066  0.00  0.00    +0.110 C 
ATOM     11  N   LIG    1       -2.603   5.208   0.058  0.00  0.00    -0.220 NA
BRANCH  10  12
ATOM     12  C   LIG    1       -4.269   7.011   0.078  0.00  0.00    -0.030 A 
ATOM     13  C   LIG    1       -5.632   7.320   0.087  0.00  0.00    +0.040 A 
ATOM     14  C   LIG    1       -6.036   8.639   0.102  0.00  0.00    +0.010 A 
ATOM     15  C   LIG    1       -5.096   9.654   0.098  0.00  0.00    +0.020 A 
ATOM     16  C   LIG    1       -3.745   9.355   0.085  0.00  0.00    +0.010 A 
ATOM     17  C   LIG    1       -3.326   8.041   0.074  0.00  0.00    +0.040 A 
ENDBRANCH  10  12
ENDBRANCH   4   7
BRANCH   1  18
ATOM     18  C   LIG    1        2.490   1.044  -0.015  0.00  0.00    +0.240 C 
BRANCH  18  20
ATOM     19  N   LIG    1        3.976   1.275  -1.815  0.00  0.00    -0.200 NA
ATOM     20  N   LIG    1        2.903   0.811  -1.401  0.00  0.00    -0.190 NA
BRANCH  19  25
ATOM     21 CL   LIG    1        5.633   0.340  -7.374  0.00  0.00    -0.030 Cl
ATOM     22  C   LIG    1        5.144   0.616  -5.732  0.00  0.00    +0.010 A 
ATOM     23  C   LIG    1        5.955   1.354  -4.886  0.00  0.00    +0.050 A 
ATOM     24  C   LIG    1        5.572   1.578  -3.579  0.00  0.00    +0.040 A 
ATOM     25  C   LIG    1        4.362   1.057  -3.109  0.00  0.00    +0.060 A 
ATOM     26  C   LIG    1        3.551   0.308  -3.967  0.00  0.00    -0.010 A 
ATOM     27 CL   LIG    1        2.050  -0.349  -3.393  0.00  0.00    +0.000 Cl
ATOM     28 CL   LIG    1        6.589   2.504  -2.520  0.00  0.00    -0.020 Cl
ATOM     29  C   LIG    1        3.944   0.097  -5.274  0.00  0.00    +0.050 A 
ENDBRANCH  19  25
ENDBRANCH  18  20
ENDBRANCH   1  18
TORSDOF 5
