REMARK  Name = ZINCpe00000c7VEg.0
REMARK                            x       y       z     vdW  Elec       q    Type
REMARK                         _______ _______ _______ _____ _____    ______ ____
ROOT
ATOM      1  C   LIG    1       -0.487   3.336  -2.909  0.00  0.00    +0.590 C 
ATOM      2  N   LIG    1       -0.293   2.923  -1.640  0.00  0.00    -0.730 N 
ATOM      3  H   LIG    1        0.211   3.475  -1.023  0.00  0.00    +0.390 HD
ATOM      4  O   LIG    1       -1.120   2.643  -3.684  0.00  0.00    -0.520 OA
ENDROOT
BRANCH   2   5
ATOM      5  C   LIG    1       -0.843   1.641  -1.195  0.00  0.00    +0.240 C 
ATOM      6  C   LIG    1       -0.013   1.086   0.008  0.00  0.00    +0.060 C 
ATOM      7  C   LIG    1       -0.795   1.611   1.195  0.00  0.00    -0.040 C 
ATOM      8  C   LIG    1       -0.821   0.894   2.531  0.00  0.00    +0.280 C 
ATOM      9  N   LIG    1       -2.145   1.323   3.079  0.00  0.00    -0.630 N 
ATOM     10  C   LIG    1       -3.037   1.642   1.925  0.00  0.00    +0.280 C 
ATOM     11  C   LIG    1       -2.474   1.406   4.384  0.00  0.00    +0.540 C 
ATOM     12  O   LIG    1       -3.586   1.768   4.706  0.00  0.00    -0.540 OA
ATOM     13  C   LIG    1       -2.253   1.236   0.716  0.00  0.00    -0.040 C 
ATOM     14  C   LIG    1       -2.294   1.835  -0.654  0.00  0.00    +0.040 C 
BRANCH  11  15
ATOM     15  C   LIG    1       -1.462   1.048   5.441  0.00  0.00    -0.030 C 
ATOM     16  C   LIG    1       -1.364  -0.462   5.715  0.00  0.00    +0.030 C 
ATOM     17  C   LIG    1       -1.236  -0.103   7.205  0.00  0.00    +0.010 C 
ATOM     18  C   LIG    1       -1.992   1.196   6.877  0.00  0.00    +0.050 C 
ENDBRANCH  11  15
ENDBRANCH   2   5
BRANCH   1  23
ATOM     19  C   LIG    1        0.617   6.392  -4.596  0.00  0.00    -0.230 A 
ATOM     20  C   LIG    1        1.130   6.565  -3.324  0.00  0.00    +0.260 A 
ATOM     21  N   LIG    1        0.790   5.500  -2.582  0.00  0.00    -0.530 N 
ATOM     22  H   LIG    1        1.021   5.368  -1.649  0.00  0.00    +0.420 HD
ATOM     23  C   LIG    1        0.064   4.621  -3.355  0.00  0.00    -0.060 A 
ATOM     24  C   LIG    1       -0.060   5.152  -4.605  0.00  0.00    +0.120 A 
BRANCH  19  28
ATOM     25  N   LIG    1        1.428   8.480  -5.575  0.00  0.00    -0.850 N 
ATOM     26  H   LIG    1        1.516   9.094  -6.320  0.00  0.00    +0.410 HD
ATOM     27  H   LIG    1        1.828   8.697  -4.718  0.00  0.00    +0.400 HD
ATOM     28  C   LIG    1        0.750   7.325  -5.729  0.00  0.00    +0.590 C 
ATOM     29  O   LIG    1        0.249   7.053  -6.803  0.00  0.00    -0.540 OA
ENDBRANCH  19  28
ENDBRANCH   1  23
TORSDOF 4
