REMARK  Name = ZINCqH00000098SI.0
REMARK                            x       y       z     vdW  Elec       q    Type
REMARK                         _______ _______ _______ _____ _____    ______ ____
ROOT
ATOM      1  C   LIG    1        0.780  -2.912  -1.008  0.00  0.00    +0.140 A 
ATOM      2  N   LIG    1        0.995  -4.143  -0.606  0.00  0.00    -0.290 NA
ATOM      3  N   LIG    1        1.548  -4.134   0.554  0.00  0.00    -0.280 NA
ATOM      4  C   LIG    1        1.725  -2.908   0.957  0.00  0.00    +0.230 A 
ATOM      5  N   LIG    1        1.236  -2.083  -0.021  0.00  0.00    -0.410 N 
ENDROOT
BRANCH   5   6
ATOM      6  C   LIG    1        1.214  -0.680  -0.013  0.00  0.00    +0.100 A 
ATOM      7  C   LIG    1        0.002  -0.004   0.002  0.00  0.00    +0.030 A 
ATOM      8  C   LIG    1       -0.017   1.377   0.010  0.00  0.00    +0.040 A 
ATOM      9  C   LIG    1        1.171   2.086   0.002  0.00  0.00    +0.030 A 
ATOM     10  C   LIG    1        2.380   1.415  -0.013  0.00  0.00    +0.040 A 
ATOM     11  C   LIG    1        2.404   0.034  -0.021  0.00  0.00    +0.030 A 
ENDBRANCH   5   6
BRANCH   4  12
ATOM     12  C   LIG    1        2.349  -2.478   2.260  0.00  0.00    +0.040 C 
ATOM     13  C   LIG    1        3.010  -3.558   3.118  0.00  0.00    +0.070 C 
ATOM     14  C   LIG    1        1.678  -2.945   3.553  0.00  0.00    +0.060 C 
ENDBRANCH   4  12
BRANCH   1  15
ATOM     15  S   LIG    1        0.043  -2.420  -2.532  0.00  0.00    +0.090 S 
BRANCH  15  16
ATOM     16  C   LIG    1       -0.277  -4.044  -3.264  0.00  0.00    +0.110 C 
BRANCH  16  19
ATOM     17  N   LIG    1       -1.256  -4.947  -5.348  0.00  0.00    -0.720 N 
ATOM     18  H   LIG    1       -1.078  -5.838  -5.009  0.00  0.00    +0.410 HD
ATOM     19  C   LIG    1       -0.924  -3.867  -4.614  0.00  0.00    +0.540 C 
ATOM     20  O   LIG    1       -1.147  -2.753  -5.038  0.00  0.00    -0.520 OA
BRANCH  17  22
ATOM     21  C   LIG    1       -0.803  -4.568  -7.722  0.00  0.00    +0.030 C 
ATOM     22  C   LIG    1       -1.885  -4.776  -6.660  0.00  0.00    +0.350 C 
BRANCH  22  23
ATOM     23  C   LIG    1       -2.689  -6.005  -6.996  0.00  0.00    -0.030 A 
ATOM     24  C   LIG    1       -3.895  -6.018  -7.593  0.00  0.00    -0.040 A 
ATOM     25  C   LIG    1       -4.277  -7.374  -7.714  0.00  0.00    -0.060 A 
ATOM     26  C   LIG    1       -3.283  -8.108  -7.184  0.00  0.00    +0.180 A 
ATOM     27  O   LIG    1       -2.321  -7.275  -6.757  0.00  0.00    -0.170 OA
ENDBRANCH  22  23
ENDBRANCH  17  22
ENDBRANCH  16  19
ENDBRANCH  15  16
ENDBRANCH   1  15
TORSDOF 7
