REMARK  Name = ZINCqH00000389R9.0
REMARK                            x       y       z     vdW  Elec       q    Type
REMARK                         _______ _______ _______ _____ _____    ______ ____
ROOT
ATOM      1  N   LIG    1       -2.668   2.916   4.675  0.00  0.00    -0.670 N 
ATOM      2  H   LIG    1       -3.611   3.137   4.640  0.00  0.00    +0.410 HD
ATOM      3  C   LIG    1       -1.986   3.047   5.830  0.00  0.00    +0.590 C 
ATOM      4  O   LIG    1       -0.783   2.861   5.851  0.00  0.00    -0.500 OA
ENDROOT
BRANCH   1   9
ATOM      5  C   LIG    1       -0.018   1.064   0.014  0.00  0.00    +0.100 C 
ATOM      6  C   LIG    1       -0.722   1.556   1.252  0.00  0.00    +0.010 A 
ATOM      7  C   LIG    1       -1.747   2.478   1.143  0.00  0.00    +0.020 A 
ATOM      8  C   LIG    1       -2.394   2.930   2.276  0.00  0.00    +0.060 A 
ATOM      9  C   LIG    1       -2.014   2.459   3.526  0.00  0.00    +0.120 A 
ATOM     10  C   LIG    1       -0.984   1.534   3.632  0.00  0.00    +0.140 A 
ATOM     11  C   LIG    1       -0.345   1.081   2.495  0.00  0.00    -0.660 A 
BRANCH  11  12
ATOM     12  S   LIG    1        0.958  -0.099   2.628  0.00  0.00    +2.700 S 
ATOM     13  O   LIG    1        1.079  -0.408   4.010  0.00  0.00    -0.960 OA
ATOM     14  O   LIG    1        2.033   0.401   1.846  0.00  0.00    -0.960 OA
BRANCH  12  15
ATOM     15  N   LIG    1        0.442  -1.485   1.882  0.00  0.00    -1.250 NA
ATOM     16  H   LIG    1       -0.503  -1.705   1.869  0.00  0.00    +0.420 HD
ATOM     17  H   LIG    1        1.084  -2.076   1.459  0.00  0.00    +0.420 HD
ENDBRANCH  12  15
ENDBRANCH  11  12
ENDBRANCH   1   9
BRANCH   3  18
ATOM     18  C   LIG    1       -2.692   3.413   7.059  0.00  0.00    -0.270 A 
ATOM     19  C   LIG    1       -2.110   3.570   8.285  0.00  0.00    +0.120 A 
ATOM     20  C   LIG    1       -2.972   3.919   9.288  0.00  0.00    +0.020 A 
ATOM     21  C   LIG    1       -4.275   4.045   8.904  0.00  0.00    -0.120 A 
ATOM     22  S   LIG    1       -4.421   3.712   7.184  0.00  0.00    +0.170 S 
BRANCH  21  23
ATOM     23  C   LIG    1       -5.395   4.406   9.798  0.00  0.00    -0.070 A 
ATOM     24  C   LIG    1       -6.277   5.427   9.440  0.00  0.00    +0.070 A 
ATOM     25  C   LIG    1       -7.321   5.759  10.279  0.00  0.00    +0.010 A 
ATOM     26  C   LIG    1       -7.495   5.084  11.474  0.00  0.00    +0.060 A 
ATOM     27  C   LIG    1       -6.625   4.071  11.837  0.00  0.00    -0.010 A 
ATOM     28  C   LIG    1       -5.579   3.724  11.004  0.00  0.00    +0.120 A 
ATOM     29  F   LIG    1       -4.733   2.732  11.357  0.00  0.00    -0.130 F 
ENDBRANCH  21  23
ENDBRANCH   3  18
TORSDOF 5
