REMARK  Name = ZINCtV00000L6kt7.0
REMARK                            x       y       z     vdW  Elec       q    Type
REMARK                         _______ _______ _______ _____ _____    ______ ____
ROOT
ATOM      1  C   LIG    1        2.205   4.496  -0.008  0.00  0.00    -0.210 A 
ATOM      2  C   LIG    1        1.553   5.695   0.009  0.00  0.00    +0.160 A 
ATOM      3  N   LIG    1        0.215   5.489   0.027  0.00  0.00    -0.460 N 
ATOM      4  C   LIG    1       -0.065   4.137   0.023  0.00  0.00    +0.100 A 
ATOM      5  C   LIG    1       -1.252   3.412   0.035  0.00  0.00    +0.040 A 
ATOM      6  C   LIG    1       -1.218   2.035   0.021  0.00  0.00    +0.050 A 
ATOM      7  C   LIG    1       -0.003   1.357   0.005  0.00  0.00    +0.080 A 
ATOM      8  C   LIG    1        1.186   2.062  -0.008  0.00  0.00    +0.060 A 
ATOM      9  C   LIG    1        2.222   7.046   0.008  0.00  0.00    +0.150 C 
ATOM     10  C   LIG    1        1.161   3.454   0.000  0.00  0.00    -0.050 A 
ENDROOT
BRANCH   1  11
ATOM     11  C   LIG    1        3.656   4.286  -0.031  0.00  0.00    +0.550 C 
ATOM     12  O   LIG    1        4.242   4.205  -1.094  0.00  0.00    -0.500 OA
BRANCH  11  13
ATOM     13  O   LIG    1        4.341   4.182   1.126  0.00  0.00    -0.350 OA
BRANCH  13  15
ATOM     14  C   LIG    1        6.375   3.881   2.431  0.00  0.00    +0.070 C 
ATOM     15  C   LIG    1        5.775   3.974   1.027  0.00  0.00    +0.200 C 
ENDBRANCH  13  15
ENDBRANCH  11  13
ENDBRANCH   1  11
BRANCH   3  16
ATOM     16  C   LIG    1       -0.794   6.552   0.048  0.00  0.00    +0.300 C 
ATOM     17  C   LIG    1       -1.165   6.931  -1.387  0.00  0.00    +0.040 C 
ENDBRANCH   3  16
BRANCH   7  18
ATOM     18  O   LIG    1        0.015  -0.003  -0.004  0.00  0.00    -0.290 OA
BRANCH  18  19
ATOM     19  C   LIG    1        0.525  -0.615   1.082  0.00  0.00    +0.640 C 
ATOM     20  N   LIG    1        0.669  -1.955   1.095  0.00  0.00    -0.650 N 
ATOM     21  H   LIG    1        0.462  -2.473   0.302  0.00  0.00    +0.420 HD
ATOM     22  O   LIG    1        0.855   0.042   2.050  0.00  0.00    -0.530 OA
BRANCH  20  23
ATOM     23  C   LIG    1        1.117  -2.599   2.255  0.00  0.00    +0.170 A 
ATOM     24  C   LIG    1        0.625  -3.854   2.587  0.00  0.00    +0.030 A 
ATOM     25  C   LIG    1        1.069  -4.489   3.731  0.00  0.00    +0.070 A 
ATOM     26  C   LIG    1        2.002  -3.874   4.547  0.00  0.00    -0.040 A 
ATOM     27  C   LIG    1        2.494  -2.622   4.218  0.00  0.00    -0.010 A 
ATOM     28 CL   LIG    1        3.665  -1.854   5.245  0.00  0.00    -0.040 Cl
ATOM     29 CL   LIG    1        2.557  -4.674   5.984  0.00  0.00    -0.040 Cl
ATOM     30  C   LIG    1        2.058  -1.986   3.071  0.00  0.00    +0.060 A 
ENDBRANCH  20  23
ENDBRANCH  18  19
ENDBRANCH   7  18
TORSDOF 7
