REMARK  Name = ZINCpe000000XSI2.0
REMARK                            x       y       z     vdW  Elec       q    Type
REMARK                         _______ _______ _______ _____ _____    ______ ____
ROOT
ATOM      1  C   LIG    1       -0.013   1.086   0.008  0.00  0.00    +0.220 C 
ENDROOT
BRANCH   1   2
ATOM      2  C   LIG    1       -0.742   1.585  -1.213  0.00  0.00    +0.520 C 
ATOM      3  N   LIG    1       -0.288   1.272  -2.443  0.00  0.00    -0.620 N 
ATOM      4  C   LIG    1        0.918   0.451  -2.610  0.00  0.00    +0.280 C 
ATOM      5  C   LIG    1        1.899   1.186  -3.522  0.00  0.00    +0.030 C 
ATOM      6  C   LIG    1        1.198   1.549  -4.833  0.00  0.00    -0.010 C 
ATOM      7  C   LIG    1        0.017   2.477  -4.543  0.00  0.00    +0.050 C 
ATOM      8  C   LIG    1       -0.988   1.752  -3.643  0.00  0.00    +0.280 C 
ATOM      9  O   LIG    1       -1.736   2.268  -1.088  0.00  0.00    -0.520 OA
BRANCH   6  10
ATOM     10  C   LIG    1        2.173   2.247  -5.746  0.00  0.00    +0.520 C 
ATOM     11  O   LIG    1        1.945   3.376  -6.127  0.00  0.00    -0.540 OA
ATOM     12  N   LIG    1        3.298   1.617  -6.139  0.00  0.00    -0.860 N 
ATOM     13  H   LIG    1        3.925   2.067  -6.727  0.00  0.00    +0.400 HD
ATOM     14  H   LIG    1        3.480   0.715  -5.835  0.00  0.00    +0.400 HD
ENDBRANCH   6  10
ENDBRANCH   1   2
BRANCH   1  18
ATOM     15  N   LIG    1       -0.870   2.826   3.761  0.00  0.00    -0.490 N 
ATOM     16  C   LIG    1       -0.959   1.364   3.643  0.00  0.00    +0.200 C 
ATOM     17  C   LIG    1       -0.165   0.904   2.418  0.00  0.00    +0.200 C 
ATOM     18  N   LIG    1       -0.700   1.560   1.217  0.00  0.00    -0.520 NA
ATOM     19  C   LIG    1       -0.612   3.022   1.334  0.00  0.00    +0.190 C 
ATOM     20  C   LIG    1       -1.405   3.482   2.559  0.00  0.00    +0.210 C 
BRANCH  15  26
ATOM     21  C   LIG    1       -2.237   6.547   6.666  0.00  0.00    +0.090 C 
ATOM     22  C   LIG    1       -2.202   5.075   6.344  0.00  0.00    -0.060 A 
ATOM     23  C   LIG    1       -2.818   4.169   7.187  0.00  0.00    -0.030 A 
ATOM     24  C   LIG    1       -2.788   2.817   6.895  0.00  0.00    +0.030 A 
ATOM     25  C   LIG    1       -2.143   2.369   5.760  0.00  0.00    -0.050 A 
ATOM     26  C   LIG    1       -1.524   3.277   4.910  0.00  0.00    +0.120 A 
ATOM     27  C   LIG    1       -1.551   4.633   5.209  0.00  0.00    -0.020 A 
ENDBRANCH  15  26
ENDBRANCH   1  18
TORSDOF 4
