REMARK  Name = ZINCpk00000e8VhB.0
REMARK                            x       y       z     vdW  Elec       q    Type
REMARK                         _______ _______ _______ _____ _____    ______ ____
ROOT
ATOM      1  C   LIG    1        2.505   3.187  -4.702  0.00  0.00    +0.520 C 
ATOM      2  O   LIG    1        3.021   2.093  -4.820  0.00  0.00    -0.500 OA
ENDROOT
BRANCH   1   5
ATOM      3  C   LIG    1        1.282   3.040  -1.158  0.00  0.00    -0.070 A 
ATOM      4  C   LIG    1        1.876   2.682  -2.348  0.00  0.00    +0.080 A 
ATOM      5  C   LIG    1        1.876   3.572  -3.425  0.00  0.00    -0.090 A 
ATOM      6  C   LIG    1        1.282   4.830  -3.288  0.00  0.00    +0.010 A 
ATOM      7  C   LIG    1        0.693   5.185  -2.090  0.00  0.00    +0.100 A 
ATOM      8  C   LIG    1        0.693   4.290  -1.021  0.00  0.00    +0.110 A 
BRANCH   7   9
ATOM      9  O   LIG    1        0.114   6.408  -1.954  0.00  0.00    -0.300 OA
ATOM     10  C   LIG    1        0.151   7.274  -3.089  0.00  0.00    +0.250 C 
ENDBRANCH   7   9
BRANCH   8  11
ATOM     11  O   LIG    1        0.114   4.641   0.156  0.00  0.00    -0.320 OA
ATOM     12  C   LIG    1        0.946   5.288   1.121  0.00  0.00    +0.230 C 
ENDBRANCH   8  11
BRANCH   3  13
ATOM     13  C   LIG    1        1.279   2.077   0.001  0.00  0.00    +0.120 C 
BRANCH  13  15
ATOM     14  C   LIG    1        0.002  -0.004   0.002  0.00  0.00    +0.010 C 
ATOM     15  C   LIG    1       -0.016   1.306   0.009  0.00  0.00    -0.040 C 
ENDBRANCH  13  15
ENDBRANCH   3  13
ENDBRANCH   1   5
BRANCH   1  16
ATOM     16  O   LIG    1        2.508   4.048  -5.739  0.00  0.00    -0.320 OA
BRANCH  16  17
ATOM     17  C   LIG    1        3.145   3.603  -6.965  0.00  0.00    +0.190 C 
ATOM     18  C   LIG    1        2.113   2.902  -7.851  0.00  0.00    +0.070 C 
BRANCH  17  19
ATOM     19  C   LIG    1        3.712   4.791  -7.697  0.00  0.00    +0.520 C 
ATOM     20  N   LIG    1        4.353   4.617  -8.870  0.00  0.00    -0.690 N 
ATOM     21  H   LIG    1        4.450   3.727  -9.242  0.00  0.00    +0.410 HD
ATOM     22  C   LIG    1        4.860   5.680  -9.525  0.00  0.00    +0.690 C 
ATOM     23  N   LIG    1        5.502   5.506 -10.697  0.00  0.00    -0.740 N 
ATOM     24  H   LIG    1        5.599   4.616 -11.070  0.00  0.00    +0.400 HD
ATOM     25  C   LIG    1        6.053   6.662 -11.410  0.00  0.00    +0.300 C 
ATOM     26  O   LIG    1        4.739   6.796  -9.059  0.00  0.00    -0.530 OA
ATOM     27  O   LIG    1        3.591   5.904  -7.232  0.00  0.00    -0.440 OA
ENDBRANCH  17  19
ENDBRANCH  16  17
ENDBRANCH   1  16
TORSDOF 8
