REMARK  Name = ZINCvU0000000AI7.0
REMARK                            x       y       z     vdW  Elec       q    Type
REMARK                         _______ _______ _______ _____ _____    ______ ____
ROOT
ATOM      1  N   LIG    1       -8.730   1.066   1.611  0.00  0.00    -0.400 N 
ATOM      2  C   LIG    1       -7.481   0.819   1.113  0.00  0.00    +0.160 A 
ATOM      3  N   LIG    1       -7.440  -0.453   0.779  0.00  0.00    -0.280 NA
ATOM      4  N   LIG    1       -8.569  -1.013   1.028  0.00  0.00    -0.250 NA
ATOM      5  C   LIG    1       -9.403  -0.135   1.536  0.00  0.00    +0.230 A 
ENDROOT
BRANCH   1  12
ATOM      6  C   LIG    1       -8.411   1.644   4.380  0.00  0.00    +0.100 C 
ATOM      7  C   LIG    1       -9.089   2.606   3.439  0.00  0.00    -0.050 A 
ATOM      8  C   LIG    1       -9.571   3.811   3.911  0.00  0.00    +0.030 A 
ATOM      9  C   LIG    1      -10.198   4.692   3.049  0.00  0.00    +0.050 A 
ATOM     10  C   LIG    1      -10.339   4.373   1.712  0.00  0.00    +0.030 A 
ATOM     11  C   LIG    1       -9.853   3.172   1.232  0.00  0.00    +0.040 A 
ATOM     12  C   LIG    1       -9.224   2.285   2.095  0.00  0.00    +0.090 A 
ENDBRANCH   1  12
BRANCH   5  13
ATOM     13  C   LIG    1      -10.798  -0.387   1.953  0.00  0.00    +0.030 A 
ATOM     14  C   LIG    1      -11.681   0.673   2.193  0.00  0.00    -0.020 A 
ATOM     15  C   LIG    1      -12.975   0.392   2.576  0.00  0.00    +0.270 A 
ATOM     16  N   LIG    1      -13.381  -0.855   2.728  0.00  0.00    -0.470 NA
ATOM     17  C   LIG    1      -12.581  -1.883   2.518  0.00  0.00    +0.280 A 
ATOM     18  C   LIG    1      -11.272  -1.694   2.127  0.00  0.00    +0.020 A 
ENDBRANCH   5  13
BRANCH   2  19
ATOM     19  S   LIG    1       -6.170   1.985   0.953  0.00  0.00    +0.100 S 
BRANCH  19  20
ATOM     20  C   LIG    1       -4.888   0.921   0.244  0.00  0.00    +0.010 C 
ATOM     21  C   LIG    1       -5.326   0.451  -1.144  0.00  0.00    +0.090 C 
BRANCH  20  22
ATOM     22  C   LIG    1       -3.600   1.696   0.130  0.00  0.00    +0.540 C 
ATOM     23  N   LIG    1       -2.428   1.040   0.019  0.00  0.00    -0.660 N 
ATOM     24  H   LIG    1       -2.418   0.074  -0.064  0.00  0.00    +0.420 HD
ATOM     25  O   LIG    1       -3.619   2.908   0.137  0.00  0.00    -0.500 OA
BRANCH  23  26
ATOM     26  C   LIG    1       -1.224   1.754   0.023  0.00  0.00    +0.160 A 
ATOM     27  C   LIG    1       -1.105   2.913   0.779  0.00  0.00    +0.020 A 
ATOM     28  C   LIG    1        0.086   3.612   0.787  0.00  0.00    +0.070 A 
ATOM     29  C   LIG    1        1.159   3.161   0.037  0.00  0.00    -0.100 A 
ATOM     30  C   LIG    1        1.041   2.010  -0.721  0.00  0.00    +0.070 A 
ATOM     31 BR   LIG    1        2.788   4.121   0.051  0.00  0.00    -0.050 Br
ATOM     32  C   LIG    1       -0.147   1.307  -0.732  0.00  0.00    +0.000 A 
ENDBRANCH  23  26
ENDBRANCH  20  22
ENDBRANCH  19  20
ENDBRANCH   2  19
TORSDOF 6
