REMARK  Name = ZINCrD000000AUwe.0
REMARK                            x       y       z     vdW  Elec       q    Type
REMARK                         _______ _______ _______ _____ _____    ______ ____
ROOT
ATOM      1  C   LIG    1       -0.080   0.896  -2.438  0.00  0.00    +0.040 C 
ENDROOT
BRANCH   1   2
ATOM      2  C   LIG    1       -0.819   1.403  -3.678  0.00  0.00    +0.030 C 
BRANCH   2   3
ATOM      3  C   LIG    1       -0.177   0.808  -4.933  0.00  0.00    +0.240 C 
BRANCH   3   6
ATOM      4  O   LIG    1        0.451   0.140  -7.469  0.00  0.00    -0.570 OA
ATOM      5  C   LIG    1       -0.492   0.899  -7.348  0.00  0.00    +0.580 C 
ATOM      6  N   LIG    1       -0.885   1.293  -6.120  0.00  0.00    -0.750 N 
ATOM      7  H   LIG    1       -1.637   1.899  -6.023  0.00  0.00    +0.400 HD
BRANCH   5   8
ATOM      8  C   LIG    1       -1.205   1.387  -8.544  0.00  0.00    -0.290 A 
ATOM      9  C   LIG    1       -0.799   0.979  -9.817  0.00  0.00    +0.110 A 
ATOM     10  C   LIG    1       -1.467   1.437 -10.931  0.00  0.00    -0.150 A 
ATOM     11  C   LIG    1       -2.544   2.304 -10.791  0.00  0.00    +0.300 A 
ATOM     12  C   LIG    1       -2.952   2.713  -9.525  0.00  0.00    -0.180 A 
ATOM     13 CL   LIG    1       -4.298   3.796  -9.356  0.00  0.00    -0.100 Cl
ATOM     14  O   LIG    1       -3.199   2.753 -11.891  0.00  0.00    -0.670 OA
ATOM     15  C   LIG    1       -2.292   2.255  -8.406  0.00  0.00    +0.080 A 
ENDBRANCH   5   8
ENDBRANCH   3   6
ENDBRANCH   2   3
ENDBRANCH   1   2
BRANCH   1  16
ATOM     16  C   LIG    1       -0.722   1.491  -1.183  0.00  0.00    +0.250 C 
BRANCH  16  17
ATOM     17  N   LIG    1       -0.012   1.005   0.008  0.00  0.00    -0.390 N 
ATOM     18  C   LIG    1       -0.701   1.478   1.215  0.00  0.00    +0.280 C 
ATOM     19  C   LIG    1        0.028   0.957   2.456  0.00  0.00    +0.230 C 
ATOM     20  N   LIG    1        1.417   1.437   2.443  0.00  0.00    -0.490 N 
ATOM     21  C   LIG    1        2.112   0.992   1.228  0.00  0.00    +0.220 C 
ATOM     22  C   LIG    1        1.367   1.513  -0.003  0.00  0.00    +0.270 C 
ATOM     23  H   LIG    1        0.002  -0.004   0.002  0.00  0.00    +0.420 HD
BRANCH  20  24
ATOM     24  C   LIG    1        2.099   1.025   3.590  0.00  0.00    +0.090 A 
ATOM     25  C   LIG    1        3.271   0.288   3.475  0.00  0.00    -0.030 A 
ATOM     26  C   LIG    1        3.946  -0.114   4.611  0.00  0.00    +0.040 A 
ATOM     27  C   LIG    1        3.451   0.207   5.862  0.00  0.00    +0.000 A 
ATOM     28  C   LIG    1        2.282   0.936   5.980  0.00  0.00    +0.040 A 
ATOM     29  C   LIG    1        1.605   1.346   4.848  0.00  0.00    +0.000 A 
ENDBRANCH  20  24
ENDBRANCH  16  17
ENDBRANCH   1  16
TORSDOF 7
