REMARK  Name = ZINCvU0000000BZL.0
REMARK                            x       y       z     vdW  Elec       q    Type
REMARK                         _______ _______ _______ _____ _____    ______ ____
ROOT
ATOM      1  C   LIG    1        6.251  -2.021   1.126  0.00  0.00    +0.490 A 
ATOM      2  C   LIG    1        7.405  -2.849   1.115  0.00  0.00    -0.220 A 
ATOM      3  C   LIG    1        7.979  -3.179   2.343  0.00  0.00    +0.120 A 
ATOM      4  S   LIG    1        9.388  -4.192   2.080  0.00  0.00    +0.180 S 
ATOM      5  C   LIG    1        9.187  -4.152   0.337  0.00  0.00    -0.170 A 
ATOM      6  C   LIG    1       10.103  -4.859  -0.647  0.00  0.00    +0.120 C 
ATOM      7  C   LIG    1        9.397  -4.949  -2.002  0.00  0.00    +0.030 C 
ATOM      8  C   LIG    1        8.869  -3.561  -2.380  0.00  0.00    +0.030 C 
ATOM      9  C   LIG    1        7.701  -3.203  -1.460  0.00  0.00    +0.090 C 
ATOM     10  N   LIG    1        7.422  -2.720   3.470  0.00  0.00    -0.520 NA
ATOM     11  C   LIG    1        6.343  -1.958   3.432  0.00  0.00    +0.420 A 
ATOM     12  C   LIG    1        8.127  -3.420  -0.014  0.00  0.00    -0.070 A 
ATOM     13  N   LIG    1        5.766  -1.612   2.287  0.00  0.00    -0.560 NA
ENDROOT
BRANCH  11  14
ATOM     14  C   LIG    1        5.760  -1.474   4.707  0.00  0.00    -0.100 A 
ATOM     15  C   LIG    1        6.342  -1.819   5.930  0.00  0.00    +0.130 A 
ATOM     16  C   LIG    1        5.759  -1.341   7.092  0.00  0.00    -0.040 A 
ATOM     17  C   LIG    1        4.631  -0.546   7.005  0.00  0.00    +0.280 A 
ATOM     18  N   LIG    1        4.105  -0.237   5.835  0.00  0.00    -0.490 NA
ATOM     19  C   LIG    1        4.626  -0.663   4.704  0.00  0.00    +0.320 A 
ENDBRANCH  11  14
BRANCH   1  20
ATOM     20  N   LIG    1        5.641  -1.652  -0.061  0.00  0.00    -0.640 N 
ATOM     21  H   LIG    1        5.948  -2.026  -0.901  0.00  0.00    +0.420 HD
BRANCH  20  25
ATOM     22  C   LIG    1        2.483   1.064  -0.020  0.00  0.00    -0.090 A 
ATOM     23  C   LIG    1        3.503   1.178   0.906  0.00  0.00    +0.050 A 
ATOM     24  C   LIG    1        4.549   0.276   0.899  0.00  0.00    +0.030 A 
ATOM     25  C   LIG    1        4.581  -0.740  -0.047  0.00  0.00    +0.160 A 
ATOM     26  C   LIG    1        3.557  -0.849  -0.980  0.00  0.00    -0.020 A 
ATOM     27  C   LIG    1        2.512   0.053  -0.964  0.00  0.00    +0.050 A 
BRANCH  22  28
ATOM     28  C   LIG    1        1.340   2.046  -0.005  0.00  0.00    +0.170 C 
BRANCH  28  29
ATOM     29  C   LIG    1        0.242   1.526   0.886  0.00  0.00    +0.460 C 
ATOM     30  O   LIG    1        0.374   0.466   1.451  0.00  0.00    -0.490 OA
BRANCH  29  32
ATOM     31  C   LIG    1       -1.902   1.672   1.915  0.00  0.00    +0.260 C 
ATOM     32  O   LIG    1       -0.885   2.237   1.047  0.00  0.00    -0.360 OA
ENDBRANCH  29  32
ENDBRANCH  28  29
ENDBRANCH  22  28
ENDBRANCH  20  25
ENDBRANCH   1  20
TORSDOF 6
