REMARK  Name = ZINCpe00000gMTvz.2
REMARK                            x       y       z     vdW  Elec       q    Type
REMARK                         _______ _______ _______ _____ _____    ______ ____
ROOT
ATOM      1  N   LIG    1        1.534  -1.014   0.575  0.00  0.00    -0.730 N 
ATOM      2  H   LIG    1        0.647  -0.906   0.198  0.00  0.00    +0.400 HD
ATOM      3  C   LIG    1        2.457  -0.045   0.417  0.00  0.00    +0.510 C 
ATOM      4  O   LIG    1        3.565  -0.180   0.889  0.00  0.00    -0.520 OA
ENDROOT
BRANCH   1   5
ATOM      5  C   LIG    1        1.868  -2.229   1.323  0.00  0.00    +0.290 C 
BRANCH   5   6
ATOM      6  C   LIG    1        0.651  -3.156   1.360  0.00  0.00    +0.200 C 
BRANCH   6   7
ATOM      7  O   LIG    1        0.350  -3.599   0.035  0.00  0.00    -0.310 OA
BRANCH   7  13
ATOM      8  C   LIG    1       -2.519  -6.265  -2.878  0.00  0.00    +0.090 C 
ATOM      9  C   LIG    1       -2.139  -5.755  -1.511  0.00  0.00    -0.050 A 
ATOM     10  C   LIG    1       -2.871  -6.139  -0.403  0.00  0.00    -0.040 A 
ATOM     11  C   LIG    1       -2.525  -5.674   0.852  0.00  0.00    +0.050 A 
ATOM     12  C   LIG    1       -1.447  -4.823   1.002  0.00  0.00    -0.090 A 
ATOM     13  C   LIG    1       -0.711  -4.436  -0.109  0.00  0.00    +0.130 A 
ATOM     14  C   LIG    1       -1.064  -4.900  -1.368  0.00  0.00    -0.020 A 
ENDBRANCH   7  13
ENDBRANCH   6   7
ENDBRANCH   5   6
ENDBRANCH   1   5
BRANCH   3  15
ATOM     15  C   LIG    1        2.111   1.207  -0.347  0.00  0.00    +0.210 C 
BRANCH  15  16
ATOM     16  N   LIG    1        3.219   2.166  -0.243  0.00  0.00    -0.520 NA
ATOM     17  C   LIG    1        3.372   2.646   1.138  0.00  0.00    +0.190 C 
ATOM     18  C   LIG    1        4.583   3.579   1.219  0.00  0.00    +0.180 C 
ATOM     19  N   LIG    1        4.395   4.703   0.292  0.00  0.00    -0.520 NA
ATOM     20  C   LIG    1        4.242   4.223  -1.089  0.00  0.00    +0.130 C 
ATOM     21  C   LIG    1        4.031   5.416  -2.023  0.00  0.00    +0.040 C 
ATOM     22  C   LIG    1        3.031   3.290  -1.170  0.00  0.00    +0.190 C 
BRANCH  19  23
ATOM     23  C   LIG    1        5.503   5.662   0.396  0.00  0.00    +0.200 C 
BRANCH  23  24
ATOM     24  C   LIG    1        5.489   6.310   1.782  0.00  0.00    +0.150 C 
ATOM     25  C   LIG    1        6.646   7.304   1.892  0.00  0.00    -0.010 C 
BRANCH  24  26
ATOM     26  O   LIG    1        4.250   6.996   1.974  0.00  0.00    -0.550 OA
ATOM     27  H   LIG    1        4.171   7.432   2.833  0.00  0.00    +0.370 HD
ENDBRANCH  24  26
ENDBRANCH  23  24
ENDBRANCH  19  23
ENDBRANCH  15  16
ENDBRANCH   3  15
TORSDOF 9
