REMARK  Name = ZINCtV00000L6jGS.0
REMARK                            x       y       z     vdW  Elec       q    Type
REMARK                         _______ _______ _______ _____ _____    ______ ____
ROOT
ATOM      1  C   LIG    1        2.665  -2.428  -0.086  0.00  0.00    +0.540 C 
ATOM      2  N   LIG    1        1.415  -1.924  -0.063  0.00  0.00    -0.620 N 
ATOM      3  H   LIG    1        0.652  -2.521  -0.013  0.00  0.00    +0.430 HD
ATOM      4  O   LIG    1        3.619  -1.682  -0.148  0.00  0.00    -0.480 OA
ENDROOT
BRANCH   2   5
ATOM      5  C   LIG    1        1.220  -0.549  -0.111  0.00  0.00    +0.280 A 
ATOM      6  N   LIG    1        0.068   0.045  -0.095  0.00  0.00    -0.500 NA
ATOM      7  C   LIG    1        0.073   1.370  -0.149  0.00  0.00    +0.120 A 
ATOM      8  C   LIG    1        1.289   1.940  -0.214  0.00  0.00    -0.100 A 
ATOM      9  S   LIG    1        2.499   0.658  -0.204  0.00  0.00    +0.220 S 
BRANCH   7  10
ATOM     10  C   LIG    1       -1.177   2.168  -0.143  0.00  0.00    -0.000 A 
ATOM     11  C   LIG    1       -1.119   3.560  -0.196  0.00  0.00    +0.050 A 
ATOM     12  C   LIG    1       -2.284   4.298  -0.197  0.00  0.00    +0.050 A 
ATOM     13  C   LIG    1       -3.511   3.660  -0.133  0.00  0.00    -0.030 A 
ATOM     14  C   LIG    1       -3.575   2.277  -0.075  0.00  0.00    -0.030 A 
ATOM     15 CL   LIG    1       -5.117   1.484   0.004  0.00  0.00    -0.040 Cl
ATOM     16 CL   LIG    1       -4.973   4.596  -0.127  0.00  0.00    -0.040 Cl
ATOM     17  C   LIG    1       -2.415   1.530  -0.080  0.00  0.00    +0.080 A 
ENDBRANCH   7  10
ENDBRANCH   2   5
BRANCH   1  19
ATOM     18  C   LIG    1        2.775  -4.498  -1.446  0.00  0.00    +0.080 C 
ATOM     19  C   LIG    1        2.877  -3.919  -0.034  0.00  0.00    +0.010 C 
BRANCH  19  20
ATOM     20  S   LIG    1        4.520  -4.273   0.648  0.00  0.00    -0.050 S 
BRANCH  20  21
ATOM     21  C   LIG    1        4.505  -6.025   0.829  0.00  0.00    -0.140 A 
ATOM     22  C   LIG    1        5.040  -6.832  -0.167  0.00  0.00    +0.090 A 
ATOM     23  C   LIG    1        5.028  -8.206  -0.025  0.00  0.00    +0.020 A 
ATOM     24  C   LIG    1        4.483  -8.785   1.112  0.00  0.00    +0.080 A 
ATOM     25  O   LIG    1        4.477 -10.142   1.232  0.00  0.00    -0.300 OA
ATOM     26  C   LIG    1        4.261 -10.670   2.545  0.00  0.00    +0.230 C 
ATOM     27  C   LIG    1        3.081  -9.921   3.177  0.00  0.00    +0.230 C 
ATOM     28  O   LIG    1        3.413  -8.530   3.236  0.00  0.00    -0.300 OA
ATOM     29  C   LIG    1        3.948  -7.980   2.112  0.00  0.00    +0.040 A 
ATOM     30  C   LIG    1        3.963  -6.601   1.971  0.00  0.00    +0.080 A 
ENDBRANCH  20  21
ENDBRANCH  19  20
ENDBRANCH   1  19
TORSDOF 5
