REMARK  Name = ZINCpe00000zpyTU.0
REMARK                            x       y       z     vdW  Elec       q    Type
REMARK                         _______ _______ _______ _____ _____    ______ ____
ROOT
ATOM      1  O   LIG    1       -3.966   3.677  -2.224  0.00  0.00    -0.580 OA
ATOM      2  C   LIG    1       -4.147   4.633  -1.494  0.00  0.00    +0.710 C 
ATOM      3  N   LIG    1       -4.637   5.782  -1.999  0.00  0.00    -0.740 N 
ATOM      4  H   LIG    1       -4.781   6.545  -1.417  0.00  0.00    +0.400 HD
ATOM      5  N   LIG    1       -3.858   4.542  -0.181  0.00  0.00    -0.740 N 
ATOM      6  H   LIG    1       -4.003   5.305   0.401  0.00  0.00    +0.390 HD
ENDROOT
BRANCH   3   7
ATOM      7  C   LIG    1       -4.951   5.880  -3.427  0.00  0.00    +0.240 C 
ATOM      8  C   LIG    1       -4.778   7.331  -3.918  0.00  0.00    +0.220 C 
ATOM      9  O   LIG    1       -6.048   7.760  -4.437  0.00  0.00    -0.360 OA
ATOM     10  C   LIG    1       -7.063   6.991  -3.756  0.00  0.00    +0.220 C 
ATOM     11  C   LIG    1       -6.447   5.571  -3.675  0.00  0.00    +0.220 C 
BRANCH  11  12
ATOM     12  N   LIG    1       -7.018   4.817  -2.556  0.00  0.00    -0.440 N 
ATOM     13  C   LIG    1       -7.210   5.276  -1.281  0.00  0.00    +0.110 A 
ATOM     14  C   LIG    1       -7.755   4.263  -0.580  0.00  0.00    +0.150 A 
ATOM     15  N   LIG    1       -7.892   3.215  -1.405  0.00  0.00    -0.490 NA
ATOM     16  C   LIG    1       -7.458   3.541  -2.591  0.00  0.00    +0.400 A 
ENDBRANCH  11  12
ENDBRANCH   3   7
BRANCH   5  17
ATOM     17  C   LIG    1       -3.326   3.293   0.368  0.00  0.00    +0.280 C 
BRANCH  17  18
ATOM     18  C   LIG    1       -3.087   3.457   1.870  0.00  0.00    +0.110 C 
BRANCH  18  19
ATOM     19  C   LIG    1       -2.539   2.171   2.435  0.00  0.00    -0.240 A 
ATOM     20  C   LIG    1       -1.245   1.795   2.442  0.00  0.00    +0.090 A 
ATOM     21  C   LIG    1       -0.058   2.557   1.907  0.00  0.00    +0.120 C 
ATOM     22  C   LIG    1        1.215   1.929   2.488  0.00  0.00    +0.020 C 
ATOM     23  C   LIG    1        1.154   0.409   2.309  0.00  0.00    +0.030 C 
ATOM     24  C   LIG    1        0.074  -0.173   3.228  0.00  0.00    +0.300 C 
ATOM     25  N   LIG    1       -1.169   0.579   3.030  0.00  0.00    -0.370 N 
ATOM     26  N   LIG    1       -2.462   0.197   3.396  0.00  0.00    -0.290 NA
ATOM     27  C   LIG    1       -3.285   1.151   3.039  0.00  0.00    +0.240 A 
ENDBRANCH  18  19
ENDBRANCH  17  18
ENDBRANCH   5  17
TORSDOF 5
