REMARK  Name = ZINCqH0000001lDQ.0
REMARK                            x       y       z     vdW  Elec       q    Type
REMARK                         _______ _______ _______ _____ _____    ______ ____
ROOT
ATOM      1  C   LIG    1       -0.103   0.011  -0.025  0.00  0.00    +0.250 C 
ENDROOT
BRANCH   1   2
ATOM      2  C   LIG    1        0.132   1.495   0.082  0.00  0.00    +0.520 C 
ATOM      3  N   LIG    1        1.304   1.959   0.560  0.00  0.00    -0.610 N 
ATOM      4  C   LIG    1        2.407   1.040   0.883  0.00  0.00    +0.250 C 
ATOM      5  C   LIG    1        3.680   1.560   0.196  0.00  0.00    +0.140 C 
ATOM      6  O   LIG    1        3.875   2.932   0.544  0.00  0.00    -0.370 OA
ATOM      7  C   LIG    1        2.830   3.803   0.102  0.00  0.00    +0.190 C 
ATOM      8  C   LIG    1        2.679   3.689  -1.417  0.00  0.00    +0.020 C 
ATOM      9  C   LIG    1        4.883   0.738   0.662  0.00  0.00    +0.070 C 
ATOM     10  C   LIG    1        1.516   3.399   0.779  0.00  0.00    +0.260 C 
ATOM     11  O   LIG    1       -0.731   2.273  -0.266  0.00  0.00    -0.530 OA
ENDBRANCH   1   2
BRANCH   1  12
ATOM     12  N   LIG    1       -1.542  -0.261   0.030  0.00  0.00    -0.710 N 
ATOM     13  H   LIG    1       -2.175   0.423  -0.238  0.00  0.00    +0.410 HD
ATOM     14  C   LIG    1       -1.985  -1.462   0.453  0.00  0.00    +0.560 C 
ATOM     15  O   LIG    1       -1.191  -2.319   0.788  0.00  0.00    -0.500 OA
BRANCH  14  16
ATOM     16  C   LIG    1       -3.435  -1.736   0.508  0.00  0.00    -0.130 A 
ATOM     17  C   LIG    1       -4.350  -0.753   0.123  0.00  0.00    +0.090 A 
ATOM     18  C   LIG    1       -5.702  -1.014   0.177  0.00  0.00    +0.040 A 
ATOM     19  C   LIG    1       -6.156  -2.249   0.612  0.00  0.00    +0.000 A 
ATOM     20  C   LIG    1       -5.255  -3.229   0.995  0.00  0.00    +0.040 A 
ATOM     21 CL   LIG    1       -7.861  -2.570   0.676  0.00  0.00    -0.050 Cl
ATOM     22  C   LIG    1       -3.898  -2.982   0.940  0.00  0.00    +0.030 A 
ATOM     23 CL   LIG    1       -2.770  -4.213   1.414  0.00  0.00    -0.010 Cl
ENDBRANCH  14  16
ENDBRANCH   1  12
BRANCH   1  24
ATOM     24  C   LIG    1        0.462  -0.501  -1.351  0.00  0.00    +0.020 C 
BRANCH  24  26
ATOM     25  C   LIG    1        0.824  -2.532  -2.761  0.00  0.00    +0.010 C 
ATOM     26  C   LIG    1        0.375  -2.028  -1.388  0.00  0.00    -0.010 C 
ATOM     27  C   LIG    1        1.284  -2.617  -0.307  0.00  0.00    +0.020 C 
ENDBRANCH  24  26
ENDBRANCH   1  24
TORSDOF 5
