REMARK  Name = ZINCb80000002Ill.0
REMARK                            x       y       z     vdW  Elec       q    Type
REMARK                         _______ _______ _______ _____ _____    ______ ____
ROOT
ATOM      1  C   LIG    1        1.298   1.767  -0.001  0.00  0.00    -0.140 A 
ATOM      2  C   LIG    1       -0.016   1.330   0.009  0.00  0.00    +0.280 A 
ATOM      3  N   LIG    1        0.002  -0.004   0.002  0.00  0.00    -0.480 NA
ATOM      4  C   LIG    1        1.234  -0.429  -0.012  0.00  0.00    +0.210 A 
ATOM      5  C   LIG    1        1.724  -1.860  -0.026  0.00  0.00    +0.360 C 
ATOM      6  O   LIG    1        3.113  -1.845  -0.384  0.00  0.00    -0.370 OA
ATOM      7  C   LIG    1        3.900  -0.921   0.372  0.00  0.00    +0.250 C 
ATOM      8  C   LIG    1        3.532   0.515  -0.025  0.00  0.00    +0.270 C 
ATOM      9  N   LIG    1        2.071   0.631  -0.014  0.00  0.00    -0.430 N 
ENDROOT
BRANCH   1  11
ATOM     10  O   LIG    1        0.949   4.019   0.014  0.00  0.00    -0.450 OA
ATOM     11  C   LIG    1        1.750   3.107   0.001  0.00  0.00    +0.510 C 
ENDBRANCH   1  11
TORSDOF 1
