REMARK  Name = ZINCrD0000070Wz8.0
REMARK                            x       y       z     vdW  Elec       q    Type
REMARK                         _______ _______ _______ _____ _____    ______ ____
ROOT
ATOM      1  C   LIG    1        4.455  -5.853  -0.070  0.00  0.00    +0.290 C 
ENDROOT
BRANCH   1   4
ATOM      2  C   LIG    1        8.262  -6.159   0.184  0.00  0.00    +0.090 C 
ATOM      3  C   LIG    1        6.880  -5.783  -0.287  0.00  0.00    +0.520 C 
ATOM      4  N   LIG    1        5.798  -6.218   0.388  0.00  0.00    -0.720 N 
ATOM      5  H   LIG    1        5.907  -6.772   1.176  0.00  0.00    +0.410 HD
ATOM      6  O   LIG    1        6.743  -5.090  -1.272  0.00  0.00    -0.520 OA
ENDBRANCH   1   4
BRANCH   1   7
ATOM      7  C   LIG    1        4.311  -4.353  -0.061  0.00  0.00    +0.450 C 
ATOM      8  O   LIG    1        5.295  -3.652  -0.067  0.00  0.00    -0.470 OA
BRANCH   7   9
ATOM      9  O   LIG    1        3.090  -3.795  -0.046  0.00  0.00    -0.340 OA
BRANCH   9  10
ATOM     10  C   LIG    1        3.028  -2.344  -0.039  0.00  0.00    +0.240 C 
BRANCH  10  11
ATOM     11  C   LIG    1        1.587  -1.903  -0.023  0.00  0.00    +0.430 C 
ATOM     12  O   LIG    1        0.699  -2.732  -0.018  0.00  0.00    -0.420 OA
BRANCH  11  13
ATOM     13  C   LIG    1        1.270  -0.529  -0.013  0.00  0.00    -0.310 A 
ATOM     14  C   LIG    1        0.002  -0.004   0.002  0.00  0.00    +0.150 A 
ATOM     15  C   LIG    1       -0.017   1.367   0.010  0.00  0.00    +0.020 A 
ATOM     16  C   LIG    1        1.191   1.953   0.001  0.00  0.00    -0.160 A 
ATOM     17 CL   LIG    1        1.451   3.670   0.007  0.00  0.00    +0.000 Cl
ATOM     18  S   LIG    1        2.436   0.787  -0.017  0.00  0.00    +0.280 S 
ENDBRANCH  11  13
ENDBRANCH  10  11
ENDBRANCH   9  10
ENDBRANCH   7   9
ENDBRANCH   1   7
BRANCH   1  19
ATOM     19  C   LIG    1        4.240  -6.377  -1.491  0.00  0.00    +0.130 C 
BRANCH  19  20
ATOM     20  C   LIG    1        4.261  -7.884  -1.478  0.00  0.00    -0.170 A 
ATOM     21  C   LIG    1        5.320  -8.670  -1.730  0.00  0.00    +0.230 A 
ATOM     22  N   LIG    1        4.960  -9.986  -1.625  0.00  0.00    -0.590 N 
ATOM     23  H   LIG    1        5.556 -10.739  -1.763  0.00  0.00    +0.420 HD
ATOM     24  C   LIG    1        3.627 -10.082  -1.296  0.00  0.00    +0.100 A 
ATOM     25  C   LIG    1        2.770 -11.154  -1.071  0.00  0.00    -0.010 A 
ATOM     26  C   LIG    1        1.451 -10.921  -0.749  0.00  0.00    +0.020 A 
ATOM     27  C   LIG    1        0.967  -9.625  -0.644  0.00  0.00    -0.020 A 
ATOM     28  C   LIG    1        1.790  -8.556  -0.861  0.00  0.00    +0.050 A 
ATOM     29  C   LIG    1        3.132  -8.769  -1.183  0.00  0.00    -0.100 A 
ENDBRANCH  19  20
ENDBRANCH   1  19
TORSDOF 8
