REMARK  Name = ZINCrg000000rUaX.1
REMARK                            x       y       z     vdW  Elec       q    Type
REMARK                         _______ _______ _______ _____ _____    ______ ____
ROOT
ATOM      1  C   LIG    1       -1.562   4.244   0.037  0.00  0.00    +0.590 C 
ATOM      2  N   LIG    1       -1.948   4.784   1.210  0.00  0.00    -0.590 N 
ATOM      3  C   LIG    1       -1.513   4.195   2.484  0.00  0.00    +0.270 C 
ATOM      4  C   LIG    1       -0.859   5.289   3.335  0.00  0.00    +0.050 C 
ATOM      5  C   LIG    1       -1.830   6.462   3.483  0.00  0.00    +0.070 C 
ATOM      6  C   LIG    1       -2.143   7.046   2.104  0.00  0.00    -0.470 C 
ATOM      7  C   LIG    1       -2.807   5.975   1.239  0.00  0.00    +0.330 C 
ATOM      8  O   LIG    1       -1.929   4.740  -1.011  0.00  0.00    -0.510 OA
ENDROOT
BRANCH   1  15
ATOM      9  C   LIG    1        1.612   4.255   0.008  0.00  0.00    +0.180 C 
ATOM     10  C   LIG    1        0.718   3.042   0.011  0.00  0.00    +0.120 A 
ATOM     11  N   LIG    1        1.113   1.799   0.001  0.00  0.00    -0.240 NA
ATOM     12  N   LIG    1       -0.011   0.966   0.007  0.00  0.00    -0.420 N 
ATOM     13  H   LIG    1        0.002  -0.004   0.002  0.00  0.00    +0.450 HD
ATOM     14  C   LIG    1       -1.111   1.735   0.016  0.00  0.00    +0.030 A 
ATOM     15  C   LIG    1       -0.695   3.051   0.024  0.00  0.00    -0.210 A 
BRANCH  14  16
ATOM     16  C   LIG    1       -2.538   1.251   0.020  0.00  0.00    +0.540 C 
ATOM     17  F   LIG    1       -3.196   1.732  -1.117  0.00  0.00    -0.150 F 
ATOM     18  F   LIG    1       -3.187   1.721   1.167  0.00  0.00    -0.160 F 
ATOM     19  F   LIG    1       -2.556  -0.147   0.013  0.00  0.00    -0.170 F 
ENDBRANCH  14  16
ENDBRANCH   1  15
BRANCH   6  20
ATOM     20  S   LIG    1       -3.263   8.461   2.285  0.00  0.00    +2.610 S 
ATOM     21  O   LIG    1       -2.568   9.582   2.815  0.00  0.00    -0.940 OA
ATOM     22  O   LIG    1       -4.508   8.046   2.830  0.00  0.00    -0.940 OA
BRANCH  20  23
ATOM     23  N   LIG    1       -3.625   8.903   0.731  0.00  0.00    -1.000 NA
ATOM     24  C   LIG    1       -2.806   9.893   0.014  0.00  0.00    +0.280 C 
ATOM     25  C   LIG    1       -2.426   9.301  -1.353  0.00  0.00    +0.220 C 
ATOM     26  O   LIG    1       -3.612   8.858  -2.018  0.00  0.00    -0.370 OA
ATOM     27  C   LIG    1       -4.307   7.811  -1.338  0.00  0.00    +0.220 C 
ATOM     28  C   LIG    1       -4.780   8.322   0.028  0.00  0.00    +0.270 C 
ENDBRANCH  20  23
ENDBRANCH   6  20
TORSDOF 4
