REMARK  Name = ZINCrg000000rUaX.0
REMARK                            x       y       z     vdW  Elec       q    Type
REMARK                         _______ _______ _______ _____ _____    ______ ____
ROOT
ATOM      1  C   LIG    1       -2.707   0.481   2.208  0.00  0.00    +0.600 C 
ATOM      2  N   LIG    1       -2.141   1.172   1.198  0.00  0.00    -0.600 N 
ATOM      3  C   LIG    1       -0.731   1.581   1.267  0.00  0.00    +0.270 C 
ATOM      4  C   LIG    1       -0.013   1.086   0.008  0.00  0.00    +0.040 C 
ATOM      5  C   LIG    1       -0.754   1.593  -1.231  0.00  0.00    +0.070 C 
ATOM      6  C   LIG    1       -2.180   1.036  -1.238  0.00  0.00    -0.480 C 
ATOM      7  C   LIG    1       -2.923   1.530   0.007  0.00  0.00    +0.330 C 
ATOM      8  O   LIG    1       -3.874   0.149   2.139  0.00  0.00    -0.510 OA
ENDROOT
BRANCH   1  11
ATOM      9  C   LIG    1       -2.387   2.235   4.802  0.00  0.00    +0.180 C 
ATOM     10  C   LIG    1       -1.762   0.890   4.539  0.00  0.00    +0.150 A 
ATOM     11  C   LIG    1       -1.909   0.129   3.397  0.00  0.00    -0.250 A 
ATOM     12  C   LIG    1       -1.148  -1.047   3.578  0.00  0.00    +0.020 A 
ATOM     13  N   LIG    1       -0.589  -0.990   4.755  0.00  0.00    -0.220 NA
ATOM     14  N   LIG    1       -0.961   0.209   5.375  0.00  0.00    -0.440 N 
ATOM     15  H   LIG    1       -0.683   0.500   6.257  0.00  0.00    +0.450 HD
BRANCH  12  16
ATOM     16  C   LIG    1       -1.006  -2.172   2.584  0.00  0.00    +0.550 C 
ATOM     17  F   LIG    1       -2.170  -2.262   1.813  0.00  0.00    -0.160 F 
ATOM     18  F   LIG    1       -0.805  -3.375   3.268  0.00  0.00    -0.160 F 
ATOM     19  F   LIG    1        0.088  -1.921   1.749  0.00  0.00    -0.160 F 
ENDBRANCH  12  16
ENDBRANCH   1  11
BRANCH   6  20
ATOM     20  S   LIG    1       -3.045   1.606  -2.727  0.00  0.00    +2.610 S 
ATOM     21  O   LIG    1       -2.564   0.921  -3.876  0.00  0.00    -0.940 OA
ATOM     22  O   LIG    1       -3.173   3.021  -2.719  0.00  0.00    -0.940 OA
BRANCH  20  23
ATOM     23  N   LIG    1       -4.595   1.054  -2.541  0.00  0.00    -1.000 NA
ATOM     24  C   LIG    1       -4.995  -0.266  -3.052  0.00  0.00    +0.280 C 
ATOM     25  C   LIG    1       -5.702  -1.025  -1.917  0.00  0.00    +0.220 C 
ATOM     26  O   LIG    1       -6.747  -0.206  -1.386  0.00  0.00    -0.370 OA
ATOM     27  C   LIG    1       -6.293   1.013  -0.794  0.00  0.00    +0.220 C 
ATOM     28  C   LIG    1       -5.614   1.873  -1.866  0.00  0.00    +0.270 C 
ENDBRANCH  20  23
ENDBRANCH   6  20
TORSDOF 4
