REMARK  Name = ZINCpk000000mK4w.0
REMARK                            x       y       z     vdW  Elec       q    Type
REMARK                         _______ _______ _______ _____ _____    ______ ____
ROOT
ATOM      1  C   LIG    1        3.228   0.143  -2.845  0.00  0.00    +0.260 A 
ATOM      2  C   LIG    1        4.115  -0.710  -2.200  0.00  0.00    -0.050 A 
ATOM      3  C   LIG    1        5.035  -1.432  -2.933  0.00  0.00    +0.080 A 
ATOM      4  C   LIG    1        5.083  -1.312  -4.313  0.00  0.00    -0.050 A 
ATOM      5  C   LIG    1        4.212  -0.470  -4.969  0.00  0.00    +0.080 A 
ATOM      6  C   LIG    1        3.271   0.263  -4.242  0.00  0.00    -0.210 A 
ENDROOT
BRANCH   6   7
ATOM      7  C   LIG    1        2.332   1.161  -4.939  0.00  0.00    +0.570 C 
ATOM      8  N   LIG    1        2.801   2.122  -5.760  0.00  0.00    -0.600 N 
ATOM      9  C   LIG    1        4.239   2.227  -6.043  0.00  0.00    +0.270 C 
ATOM     10  C   LIG    1        4.698   3.657  -5.737  0.00  0.00    +0.030 C 
ATOM     11  C   LIG    1        3.829   4.645  -6.518  0.00  0.00    +0.030 C 
ATOM     12  C   LIG    1        2.370   4.502  -6.079  0.00  0.00    +0.150 C 
ATOM     13  C   LIG    1        1.884   3.079  -6.393  0.00  0.00    +0.250 C 
ATOM     14  O   LIG    1        1.133   1.035  -4.773  0.00  0.00    -0.540 OA
BRANCH  12  15
ATOM     15  O   LIG    1        1.564   5.447  -6.786  0.00  0.00    -0.560 OA
ATOM     16  H   LIG    1        0.625   5.413  -6.557  0.00  0.00    +0.380 HD
ENDBRANCH  12  15
ENDBRANCH   6   7
BRANCH   1  17
ATOM     17  N   LIG    1        2.300   0.870  -2.110  0.00  0.00    -0.720 N 
ATOM     18  H   LIG    1        1.732   1.520  -2.553  0.00  0.00    +0.410 HD
BRANCH  17  22
ATOM     19  N   LIG    1        0.039  -0.007   0.018  0.00  0.00    -0.610 N 
ATOM     20  C   LIG    1        0.032   1.460   0.033  0.00  0.00    +0.260 C 
ATOM     21  C   LIG    1        1.518   1.880   0.010  0.00  0.00    +0.060 C 
ATOM     22  C   LIG    1        2.181   0.657  -0.665  0.00  0.00    +0.240 C 
ATOM     23  C   LIG    1        1.232  -0.486  -0.376  0.00  0.00    +0.500 C 
ATOM     24  O   LIG    1        1.508  -1.662  -0.483  0.00  0.00    -0.510 OA
BRANCH  19  25
ATOM     25  C   LIG    1       -1.107  -0.844   0.385  0.00  0.00    +0.330 C 
BRANCH  25  27
ATOM     26  C   LIG    1       -2.212  -2.353  -1.184  0.00  0.00    +0.040 C 
ATOM     27  C   LIG    1       -1.940  -1.119  -0.841  0.00  0.00    -0.070 C 
ENDBRANCH  25  27
ENDBRANCH  19  25
ENDBRANCH  17  22
ENDBRANCH   1  17
TORSDOF 6
