REMARK  Name = ZINCpe000027pH0O.0
REMARK                            x       y       z     vdW  Elec       q    Type
REMARK                         _______ _______ _______ _____ _____    ______ ____
ROOT
ATOM      1  C   LIG    1        2.268  -0.978   5.139  0.00  0.00    +0.590 C 
ATOM      2  N   LIG    1        2.697   0.135   4.512  0.00  0.00    -0.710 N 
ATOM      3  H   LIG    1        2.878   0.940   5.023  0.00  0.00    +0.410 HD
ATOM      4  O   LIG    1        2.042  -1.986   4.499  0.00  0.00    -0.510 OA
ENDROOT
BRANCH   1   9
ATOM      5  C   LIG    1        1.507  -1.012  10.754  0.00  0.00    +0.160 C 
ATOM      6  C   LIG    1        1.704  -1.017   9.260  0.00  0.00    +0.120 A 
ATOM      7  N   LIG    1        1.414  -2.101   8.561  0.00  0.00    -0.440 NA
ATOM      8  C   LIG    1        1.581  -2.108   7.251  0.00  0.00    +0.150 A 
ATOM      9  C   LIG    1        2.074  -0.974   6.607  0.00  0.00    +0.010 A 
ATOM     10  N   LIG    1        2.363   0.115   7.315  0.00  0.00    -0.410 NA
ATOM     11  C   LIG    1        1.244  -3.342   6.454  0.00  0.00    +0.170 C 
ATOM     12  C   LIG    1        2.188   0.115   8.621  0.00  0.00    +0.070 A 
ATOM     13  C   LIG    1        2.516   1.348   9.424  0.00  0.00    +0.160 C 
ENDBRANCH   1   9
BRANCH   2  14
ATOM     14  C   LIG    1        2.890   0.131   3.060  0.00  0.00    +0.280 C 
ATOM     15  C   LIG    1        4.349  -0.231   2.697  0.00  0.00    +0.060 C 
ATOM     16  C   LIG    1        4.660   0.639   1.499  0.00  0.00    +0.530 C 
ATOM     17  N   LIG    1        3.755   1.629   1.400  0.00  0.00    -0.610 N 
ATOM     18  C   LIG    1        3.756   2.647   0.346  0.00  0.00    +0.310 C 
ATOM     19  O   LIG    1        5.589   0.469   0.739  0.00  0.00    -0.510 OA
ATOM     20  C   LIG    1        2.766   1.558   2.481  0.00  0.00    +0.300 C 
BRANCH  20  21
ATOM     21  C   LIG    1        1.379   1.780   1.935  0.00  0.00    +0.060 A 
ATOM     22  C   LIG    1        0.956   1.480   0.685  0.00  0.00    -0.100 A 
ATOM     23  C   LIG    1       -0.391   1.844   0.588  0.00  0.00    +0.240 A 
ATOM     24  N   LIG    1       -0.765   2.339   1.740  0.00  0.00    -0.280 NA
ATOM     25  N   LIG    1        0.336   2.315   2.605  0.00  0.00    -0.360 N 
ATOM     26  C   LIG    1        0.352   2.781   3.994  0.00  0.00    +0.350 C 
ENDBRANCH  20  21
ENDBRANCH   2  14
TORSDOF 3
