REMARK  Name = ZINCvU00000005vR.0
REMARK                            x       y       z     vdW  Elec       q    Type
REMARK                         _______ _______ _______ _____ _____    ______ ____
ROOT
ATOM      1  O   LIG    1       -2.464   7.878  -0.889  0.00  0.00    -0.320 OA
ENDROOT
BRANCH   1   2
ATOM      2  C   LIG    1       -2.619   9.209  -1.030  0.00  0.00    +0.560 C 
ATOM      3  O   LIG    1       -1.689   9.957  -0.798  0.00  0.00    -0.480 OA
BRANCH   2   6
ATOM      4  C   LIG    1       -3.593   9.763  -4.019  0.00  0.00    +0.210 C 
ATOM      5  C   LIG    1       -4.354  10.004  -2.741  0.00  0.00    +0.050 A 
ATOM      6  C   LIG    1       -3.913   9.758  -1.464  0.00  0.00    -0.230 A 
ATOM      7  C   LIG    1       -5.064  10.173  -0.634  0.00  0.00    +0.100 A 
ATOM      8  N   LIG    1       -5.965  10.591  -1.486  0.00  0.00    -0.320 NA
ATOM      9  O   LIG    1       -5.588  10.499  -2.628  0.00  0.00    +0.110 OA
BRANCH   7  10
ATOM     10  C   LIG    1       -5.172  10.129   0.844  0.00  0.00    -0.020 A 
ATOM     11  C   LIG    1       -4.111   9.648   1.609  0.00  0.00    +0.040 A 
ATOM     12  C   LIG    1       -4.214   9.615   2.985  0.00  0.00    +0.030 A 
ATOM     13  C   LIG    1       -5.373  10.046   3.605  0.00  0.00    +0.050 A 
ATOM     14  C   LIG    1       -6.432  10.519   2.852  0.00  0.00    +0.030 A 
ATOM     15  C   LIG    1       -6.338  10.563   1.475  0.00  0.00    -0.010 A 
ATOM     16 CL   LIG    1       -7.668  11.156   0.530  0.00  0.00    -0.040 Cl
ENDBRANCH   7  10
ENDBRANCH   2   6
ENDBRANCH   1   2
BRANCH   1  17
ATOM     17  C   LIG    1       -1.160   7.408  -0.457  0.00  0.00    +0.270 C 
BRANCH  17  18
ATOM     18  C   LIG    1       -1.176   5.904  -0.356  0.00  0.00    +0.530 C 
ATOM     19  N   LIG    1       -0.067   5.243   0.029  0.00  0.00    -0.690 N 
ATOM     20  H   LIG    1        0.719   5.737   0.311  0.00  0.00    +0.420 HD
ATOM     21  O   LIG    1       -2.187   5.289  -0.622  0.00  0.00    -0.480 OA
BRANCH  19  22
ATOM     22  C   LIG    1       -0.049   3.843   0.022  0.00  0.00    +0.190 A 
ATOM     23  C   LIG    1       -0.556   3.135   1.105  0.00  0.00    -0.030 A 
ATOM     24  C   LIG    1       -0.541   1.753   1.092  0.00  0.00    +0.080 A 
ATOM     25  C   LIG    1       -0.013   1.076   0.008  0.00  0.00    +0.050 A 
ATOM     26  C   LIG    1        0.492   1.778  -1.071  0.00  0.00    +0.090 A 
ATOM     27 CL   LIG    1       -1.213   3.985   2.469  0.00  0.00    -0.040 Cl
ATOM     28  C   LIG    1        0.476   3.159  -1.067  0.00  0.00    -0.170 A 
BRANCH  28  29
ATOM     29  C   LIG    1        1.027   3.923  -2.243  0.00  0.00    +0.510 C 
ATOM     30  F   LIG    1        2.081   4.739  -1.816  0.00  0.00    -0.170 F 
ATOM     31  F   LIG    1        0.018   4.718  -2.797  0.00  0.00    -0.170 F 
ATOM     32  F   LIG    1        1.495   3.023  -3.206  0.00  0.00    -0.170 F 
ENDBRANCH  28  29
ENDBRANCH  19  22
ENDBRANCH  17  18
ENDBRANCH   1  17
TORSDOF 7
