REMARK  Name = ZINCpk000000nlHY.1
REMARK                            x       y       z     vdW  Elec       q    Type
REMARK                         _______ _______ _______ _____ _____    ______ ____
ROOT
ATOM      1  C   LIG    1        2.081  -3.356  -1.924  0.00  0.00    +0.520 C 
ATOM      2  N   LIG    1        2.469  -4.090  -2.985  0.00  0.00    -0.610 N 
ATOM      3  C   LIG    1        2.222  -3.624  -4.358  0.00  0.00    +0.280 C 
ATOM      4  C   LIG    1        3.546  -3.692  -5.136  0.00  0.00    +0.170 C 
ATOM      5  N   LIG    1        4.099  -5.049  -5.032  0.00  0.00    -0.540 NA
ATOM      6  C   LIG    1        4.428  -5.386  -3.641  0.00  0.00    +0.170 C 
ATOM      7  C   LIG    1        3.146  -5.383  -2.801  0.00  0.00    +0.300 C 
ATOM      8  O   LIG    1        2.289  -3.758  -0.799  0.00  0.00    -0.530 OA
ENDROOT
BRANCH   1   9
ATOM      9  C   LIG    1        1.389  -2.034  -2.136  0.00  0.00    +0.070 C 
BRANCH   9  10
ATOM     10  C   LIG    1        1.058  -1.409  -0.779  0.00  0.00    +0.220 C 
BRANCH  10  14
ATOM     11  C   LIG    1       -1.077   1.435  -1.279  0.00  0.00    +0.180 A 
ATOM     12  N   LIG    1        0.109   1.966  -1.264  0.00  0.00    -0.380 NA
ATOM     13  O   LIG    1        0.952   1.110  -1.100  0.00  0.00    +0.080 OA
ATOM     14  C   LIG    1        0.366  -0.087  -0.991  0.00  0.00    +0.180 A 
ATOM     15  N   LIG    1       -0.926   0.110  -1.103  0.00  0.00    -0.470 NA
BRANCH  11  17
ATOM     16  C   LIG    1       -3.270   1.944  -0.239  0.00  0.00    +0.060 C 
ATOM     17  C   LIG    1       -2.381   2.167  -1.464  0.00  0.00    +0.020 C 
ATOM     18  C   LIG    1       -3.090   1.637  -2.712  0.00  0.00    +0.060 C 
ATOM     19  C   LIG    1       -2.107   3.663  -1.630  0.00  0.00    +0.050 C 
ENDBRANCH  11  17
ENDBRANCH  10  14
ENDBRANCH   9  10
ENDBRANCH   1   9
BRANCH   5  20
ATOM     20  C   LIG    1        5.270  -5.208  -5.904  0.00  0.00    +0.190 C 
BRANCH  20  21
ATOM     21  C   LIG    1        5.512  -6.696  -6.168  0.00  0.00    -0.030 C 
ATOM     22  C   LIG    1        6.807  -6.908  -6.989  0.00  0.00    +0.010 C 
ATOM     23  C   LIG    1        6.438  -8.013  -7.998  0.00  0.00    +0.190 C 
ATOM     24  O   LIG    1        5.083  -8.407  -7.723  0.00  0.00    -0.380 OA
ATOM     25  C   LIG    1        4.429  -7.273  -7.115  0.00  0.00    +0.220 C 
ENDBRANCH  20  21
ENDBRANCH   5  20
TORSDOF 6
