REMARK  Name = ZINCrD000000Akd7.0
REMARK                            x       y       z     vdW  Elec       q    Type
REMARK                         _______ _______ _______ _____ _____    ______ ____
ROOT
ATOM      1  O   LIG    1       -1.542  -2.102   1.446  0.00  0.00    -0.540 OA
ATOM      2  C   LIG    1       -2.232  -1.105   1.418  0.00  0.00    +0.520 C 
ATOM      3  N   LIG    1       -1.738   0.043   0.915  0.00  0.00    -0.720 N 
ATOM      4  H   LIG    1       -2.290   0.840   0.893  0.00  0.00    +0.400 HD
ENDROOT
BRANCH   3   5
ATOM      5  C   LIG    1       -0.367   0.087   0.402  0.00  0.00    +0.310 C 
BRANCH   5   6
ATOM      6  C   LIG    1       -0.012   1.526   0.019  0.00  0.00    -0.110 C 
ATOM      7  C   LIG    1        1.358   2.054   0.448  0.00  0.00    +0.050 C 
ATOM      8  C   LIG    1        0.092   2.553   1.148  0.00  0.00    +0.030 C 
BRANCH   6   9
ATOM      9  C   LIG    1       -0.557   1.999  -1.304  0.00  0.00    -0.050 A 
ATOM     10  C   LIG    1       -1.297   3.165  -1.370  0.00  0.00    +0.000 A 
ATOM     11  C   LIG    1       -1.792   3.602  -2.584  0.00  0.00    +0.000 A 
ATOM     12  C   LIG    1       -1.558   2.867  -3.731  0.00  0.00    +0.000 A 
ATOM     13  C   LIG    1       -0.823   1.698  -3.665  0.00  0.00    +0.000 A 
ATOM     14  C   LIG    1       -0.323   1.264  -2.451  0.00  0.00    +0.010 A 
ENDBRANCH   6   9
ENDBRANCH   5   6
ENDBRANCH   3   5
BRANCH   2  15
ATOM     15  C   LIG    1       -3.643  -1.151   1.946  0.00  0.00    +0.040 C 
BRANCH  15  16
ATOM     16  C   LIG    1       -3.952  -2.561   2.455  0.00  0.00    +0.330 C 
BRANCH  16  17
ATOM     17  N   LIG    1       -5.323  -2.605   2.968  0.00  0.00    -0.550 N 
ATOM     18  C   LIG    1       -6.345  -2.927   2.132  0.00  0.00    +0.590 A 
ATOM     19  N   LIG    1       -7.585  -2.988   2.510  0.00  0.00    -0.520 NA
ATOM     20  C   LIG    1       -7.952  -2.729   3.791  0.00  0.00    +0.170 A 
ATOM     21  C   LIG    1       -9.286  -2.795   4.198  0.00  0.00    +0.050 A 
ATOM     22  C   LIG    1       -9.613  -2.524   5.508  0.00  0.00    +0.100 A 
ATOM     23  C   LIG    1       -8.632  -2.187   6.431  0.00  0.00    -0.110 A 
ATOM     24  C   LIG    1       -7.308  -2.115   6.053  0.00  0.00    +0.140 A 
ATOM     25 BR   LIG    1       -9.116  -1.821   8.222  0.00  0.00    -0.030 Br
ATOM     26  C   LIG    1       -6.956  -2.385   4.732  0.00  0.00    -0.190 A 
ATOM     27  C   LIG    1       -5.561  -2.331   4.272  0.00  0.00    +0.550 A 
ATOM     28  O   LIG    1       -4.654  -2.047   5.033  0.00  0.00    -0.500 OA
ENDBRANCH  16  17
ENDBRANCH  15  16
ENDBRANCH   2  15
TORSDOF 6
