REMARK  Name = ZINCpe000000Y1SZ.0
REMARK                            x       y       z     vdW  Elec       q    Type
REMARK                         _______ _______ _______ _____ _____    ______ ____
ROOT
ATOM      1  C   LIG    1       -3.062  -1.731   1.460  0.00  0.00    +0.520 C 
ATOM      2  N   LIG    1       -3.680  -2.000   2.628  0.00  0.00    -0.720 N 
ATOM      3  H   LIG    1       -3.295  -1.690   3.462  0.00  0.00    +0.400 HD
ATOM      4  O   LIG    1       -3.544  -2.118   0.417  0.00  0.00    -0.540 OA
ENDROOT
BRANCH   1   5
ATOM      5  C   LIG    1       -1.774  -0.950   1.452  0.00  0.00    +0.050 C 
BRANCH   5   6
ATOM      6  C   LIG    1       -1.287  -0.785   0.011  0.00  0.00    +0.150 C 
BRANCH   6   9
ATOM      7  C   LIG    1        1.238  -2.151  -0.021  0.00  0.00    +0.160 C 
ATOM      8  C   LIG    1        1.190  -0.645  -0.013  0.00  0.00    +0.200 A 
ATOM      9  C   LIG    1        0.002  -0.004   0.002  0.00  0.00    -0.270 A 
ATOM     10  C   LIG    1       -0.017   1.411   0.010  0.00  0.00    +0.550 A 
ATOM     11  N   LIG    1        1.149   2.089   0.002  0.00  0.00    -0.660 N 
ATOM     12  H   LIG    1        1.144   3.059   0.007  0.00  0.00    +0.430 HD
ATOM     13  C   LIG    1        2.319   1.425  -0.012  0.00  0.00    +0.700 A 
ATOM     14  O   LIG    1        3.362   2.049  -0.019  0.00  0.00    -0.540 OA
ATOM     15  O   LIG    1       -1.077   2.012   0.018  0.00  0.00    -0.510 OA
ATOM     16  N   LIG    1        2.351   0.080  -0.020  0.00  0.00    -0.630 N 
ATOM     17  H   LIG    1        3.205  -0.381  -0.031  0.00  0.00    +0.440 HD
ENDBRANCH   6   9
ENDBRANCH   5   6
ENDBRANCH   1   5
BRANCH   2  18
ATOM     18  C   LIG    1       -4.933  -2.759   2.636  0.00  0.00    +0.340 C 
BRANCH  18  19
ATOM     19  C   LIG    1       -5.412  -2.921   4.056  0.00  0.00    -0.190 A 
ATOM     20  C   LIG    1       -5.197  -4.106   4.737  0.00  0.00    +0.120 A 
ATOM     21  C   LIG    1       -5.651  -4.209   6.045  0.00  0.00    -0.070 A 
ATOM     22  C   LIG    1       -6.308  -3.139   6.618  0.00  0.00    +0.310 A 
ATOM     23  N   LIG    1       -6.503  -2.023   5.941  0.00  0.00    -0.540 NA
ATOM     24  C   LIG    1       -6.081  -1.885   4.695  0.00  0.00    +0.340 A 
BRANCH  24  25
ATOM     25  O   LIG    1       -6.303  -0.720   4.036  0.00  0.00    -0.290 OA
BRANCH  25  26
ATOM     26  C   LIG    1       -6.996   0.307   4.748  0.00  0.00    +0.170 C 
ATOM     27  C   LIG    1       -7.793   1.163   3.762  0.00  0.00    +0.060 C 
ATOM     28  C   LIG    1       -5.985   1.187   5.486  0.00  0.00    +0.020 C 
ENDBRANCH  25  26
ENDBRANCH  24  25
ENDBRANCH  18  19
ENDBRANCH   2  18
TORSDOF 7
