REMARK  Name = ZINCkj000005kD7Q.1
REMARK                            x       y       z     vdW  Elec       q    Type
REMARK                         _______ _______ _______ _____ _____    ______ ____
ROOT
ATOM      1  C   LIG    1        3.109  -1.818  -0.137  0.00  0.00    +0.530 C 
ATOM      2  O   LIG    1        3.878  -0.877  -0.140  0.00  0.00    -0.530 OA
ENDROOT
BRANCH   1   9
ATOM      3  C   LIG    1        1.729   3.243  -0.004  0.00  0.00    +0.300 C 
ATOM      4  C   LIG    1        1.269   1.808  -0.008  0.00  0.00    +0.480 C 
ATOM      5  N   LIG    1        2.055   0.762  -0.014  0.00  0.00    -0.560 N 
ATOM      6  C   LIG    1        1.325  -0.363  -0.018  0.00  0.00    +0.630 C 
ATOM      7  N   LIG    1        0.001  -0.005  -0.014  0.00  0.00    -0.370 N 
ATOM      8  C   LIG    1       -1.156  -0.903  -0.016  0.00  0.00    +0.460 C 
ATOM      9  N   LIG    1        1.801  -1.607  -0.023  0.00  0.00    -0.590 NA
ATOM     10  H   LIG    1        3.024   0.796  -0.016  0.00  0.00    +0.480 HD
ATOM     11  N   LIG    1       -0.018   1.400  -0.008  0.00  0.00    -0.410 NA
ATOM     12  H   LIG    1       -0.805   1.968  -0.008  0.00  0.00    +0.490 HD
ENDBRANCH   1   9
BRANCH   1  13
ATOM     13  C   LIG    1        3.637  -3.224  -0.263  0.00  0.00    +0.250 C 
ATOM     14  O   LIG    1        5.043  -3.180  -0.506  0.00  0.00    -0.350 OA
ATOM     15  C   LIG    1        5.662  -4.470  -0.458  0.00  0.00    +0.230 C 
ATOM     16  C   LIG    1        5.675  -4.948   0.995  0.00  0.00    +0.060 C 
ATOM     17  C   LIG    1        4.301  -4.789   1.595  0.00  0.00    -0.060 A 
ATOM     18  C   LIG    1        3.999  -5.474   2.761  0.00  0.00    +0.010 A 
ATOM     19  C   LIG    1        2.752  -5.347   3.341  0.00  0.00    +0.030 A 
ATOM     20  C   LIG    1        1.801  -4.534   2.755  0.00  0.00    +0.000 A 
ATOM     21  C   LIG    1        2.100  -3.852   1.591  0.00  0.00    +0.040 A 
ATOM     22  C   LIG    1        3.350  -3.980   1.008  0.00  0.00    -0.130 A 
ENDBRANCH   1  13
TORSDOF 2
