REMARK  Name = ZINCrH000004soMI.0
REMARK                            x       y       z     vdW  Elec       q    Type
REMARK                         _______ _______ _______ _____ _____    ______ ____
ROOT
ATOM      1  C   LIG    1        2.637   4.850   0.730  0.00  0.00    +0.620 C 
ATOM      2  N   LIG    1        2.273   4.028  -0.274  0.00  0.00    -0.550 N 
ATOM      3  C   LIG    1        1.012   3.415  -0.289  0.00  0.00    +0.100 A 
ATOM      4  C   LIG    1       -0.137   4.173  -0.449  0.00  0.00    +0.040 A 
ATOM      5  C   LIG    1       -1.369   3.545  -0.511  0.00  0.00    +0.010 A 
ATOM      6  C   LIG    1       -1.454   2.168  -0.420  0.00  0.00    +0.050 A 
ATOM      7  C   LIG    1       -0.311   1.408  -0.244  0.00  0.00    -0.020 A 
ATOM      8  C   LIG    1        0.924   2.032  -0.171  0.00  0.00    +0.110 A 
ATOM      9  N   LIG    1        2.084   1.267   0.056  0.00  0.00    -0.490 N 
ATOM     10  C   LIG    1        2.934   1.234  -1.134  0.00  0.00    +0.190 C 
ATOM     11  C   LIG    1        3.889   2.421  -1.166  0.00  0.00    +0.040 C 
ATOM     12  C   LIG    1        1.741  -0.091   0.497  0.00  0.00    +0.220 C 
ATOM     13  C   LIG    1        3.186   3.741  -1.393  0.00  0.00    +0.230 C 
ATOM     14  C   LIG    1        4.226   4.858  -1.498  0.00  0.00    +0.060 C 
ATOM     15  O   LIG    1        3.749   5.345   0.738  0.00  0.00    -0.510 OA
ENDROOT
BRANCH   1  18
ATOM     16  C   LIG    1        3.097   6.945   2.908  0.00  0.00    +0.170 C 
ATOM     17  C   LIG    1        1.867   6.080   2.803  0.00  0.00    +0.150 A 
ATOM     18  C   LIG    1        1.692   5.150   1.812  0.00  0.00    -0.320 A 
ATOM     19  S   LIG    1        0.134   4.371   2.076  0.00  0.00    +0.310 S 
ATOM     20  C   LIG    1       -0.135   5.349   3.452  0.00  0.00    +0.050 A 
ATOM     21  N   LIG    1        0.872   6.154   3.644  0.00  0.00    -0.440 NA
BRANCH  20  22
ATOM     22  C   LIG    1       -1.341   5.290   4.306  0.00  0.00    +0.380 A 
ATOM     23  N   LIG    1       -2.306   4.429   4.006  0.00  0.00    -0.510 NA
ATOM     24  C   LIG    1       -3.394   4.348   4.751  0.00  0.00    +0.330 A 
ATOM     25  C   LIG    1       -3.526   5.183   5.851  0.00  0.00    -0.060 A 
ATOM     26  C   LIG    1       -2.500   6.075   6.134  0.00  0.00    +0.330 A 
ATOM     27  N   LIG    1       -1.436   6.102   5.351  0.00  0.00    -0.480 NA
ENDBRANCH  20  22
ENDBRANCH   1  18
TORSDOF 2
