REMARK  Name = ZINCvU0000000HWr.0
REMARK                            x       y       z     vdW  Elec       q    Type
REMARK                         _______ _______ _______ _____ _____    ______ ____
ROOT
ATOM      1  C   LIG    1       -3.009   5.851  -3.067  0.00  0.00    -0.110 A 
ATOM      2  C   LIG    1       -3.520   4.964  -4.016  0.00  0.00    +0.080 A 
ATOM      3  C   LIG    1       -3.849   5.418  -5.276  0.00  0.00    +0.020 A 
ATOM      4  C   LIG    1       -3.667   6.748  -5.613  0.00  0.00    +0.060 A 
ATOM      5  C   LIG    1       -3.158   7.640  -4.689  0.00  0.00    +0.030 A 
ATOM      6  C   LIG    1       -2.824   7.203  -3.410  0.00  0.00    +0.010 A 
ENDROOT
BRANCH   6   7
ATOM      7  C   LIG    1       -2.277   8.156  -2.416  0.00  0.00    -0.020 A 
ATOM      8  C   LIG    1       -3.011   9.284  -2.050  0.00  0.00    +0.040 A 
ATOM      9  C   LIG    1       -2.499  10.164  -1.119  0.00  0.00    +0.070 A 
ATOM     10  C   LIG    1       -1.255   9.937  -0.559  0.00  0.00    -0.170 A 
ATOM     11  C   LIG    1       -0.519   8.823  -0.922  0.00  0.00    +0.050 A 
ATOM     12  C   LIG    1       -1.024   7.932  -1.848  0.00  0.00    +0.070 A 
BRANCH  10  13
ATOM     13  C   LIG    1       -0.699  10.906   0.453  0.00  0.00    +0.510 C 
ATOM     14  F   LIG    1        0.134  10.222   1.345  0.00  0.00    -0.180 F 
ATOM     15  F   LIG    1       -1.751  11.499   1.158  0.00  0.00    -0.180 F 
ATOM     16  F   LIG    1        0.038  11.896  -0.206  0.00  0.00    -0.180 F 
ENDBRANCH  10  13
ENDBRANCH   6   7
BRANCH   1  18
ATOM     17  O   LIG    1       -2.319   6.166  -0.861  0.00  0.00    -0.460 OA
ATOM     18  C   LIG    1       -2.660   5.374  -1.716  0.00  0.00    +0.490 C 
BRANCH  18  19
ATOM     19  O   LIG    1       -2.719   4.058  -1.431  0.00  0.00    -0.330 OA
BRANCH  19  20
ATOM     20  C   LIG    1       -2.362   3.660  -0.081  0.00  0.00    +0.260 C 
ATOM     21  C   LIG    1       -3.203   2.432   0.324  0.00  0.00    -0.230 C 
ATOM     22  S   LIG    1       -2.075   1.073  -0.174  0.00  0.00    +2.470 S 
ATOM     23  C   LIG    1       -0.561   1.998  -0.098  0.00  0.00    -0.600 A 
ATOM     24  C   LIG    1        0.751   1.574  -0.074  0.00  0.00    +0.140 A 
ATOM     25  C   LIG    1        1.779   2.494   0.016  0.00  0.00    +0.050 A 
ATOM     26  C   LIG    1        1.474   3.840   0.087  0.00  0.00    +0.080 A 
ATOM     27  C   LIG    1        0.162   4.260   0.062  0.00  0.00    -0.030 A 
ATOM     28 CL   LIG    1       -0.193   5.957   0.149  0.00  0.00    -0.020 Cl
ATOM     29  O   LIG    1       -2.243   0.731  -1.543  0.00  0.00    -0.910 OA
ATOM     30  O   LIG    1       -1.971   0.083   0.840  0.00  0.00    -0.920 OA
ATOM     31  C   LIG    1       -0.888   3.340  -0.031  0.00  0.00    -0.070 A 
ENDBRANCH  19  20
ENDBRANCH  18  19
ENDBRANCH   1  18
TORSDOF 5
