REMARK  Name = ZINCnE000001SeeA.1
REMARK                            x       y       z     vdW  Elec       q    Type
REMARK                         _______ _______ _______ _____ _____    ______ ____
ROOT
ATOM      1  C   LIG    1       -2.384   1.155   0.020  0.00  0.00    +0.380 A 
ATOM      2  N   LIG    1       -3.570   1.681   0.028  0.00  0.00    -0.530 NA
ATOM      3  C   LIG    1       -4.599   0.846   0.028  0.00  0.00    +0.120 A 
ATOM      4  C   LIG    1       -4.280  -0.461   0.019  0.00  0.00    -0.190 A 
ATOM      5  S   LIG    1       -2.523  -0.600   0.003  0.00  0.00    -0.020 S 
ENDROOT
BRANCH   3   6
ATOM      6  C   LIG    1       -6.004   1.319   0.037  0.00  0.00    +0.010 A 
ATOM      7  C   LIG    1       -7.052   0.400   0.030  0.00  0.00    +0.030 A 
ATOM      8  C   LIG    1       -8.358   0.846   0.044  0.00  0.00    +0.000 A 
ATOM      9  C   LIG    1       -8.629   2.202   0.053  0.00  0.00    +0.000 A 
ATOM     10  C   LIG    1       -7.594   3.120   0.054  0.00  0.00    +0.010 A 
ATOM     11  C   LIG    1       -6.283   2.686   0.046  0.00  0.00    -0.020 A 
ATOM     12 CL   LIG    1       -4.985   3.838   0.047  0.00  0.00    -0.020 Cl
ENDBRANCH   3   6
BRANCH   1  15
ATOM     13  O   LIG    1        0.002  -0.004   0.002  0.00  0.00    -0.610 OA
ATOM     14  C   LIG    1       -0.014   1.209   0.009  0.00  0.00    +0.460 C 
ATOM     15  N   LIG    1       -1.191   1.867   0.018  0.00  0.00    -0.660 NA
BRANCH  14  16
ATOM     16  C   LIG    1        1.280   1.980   0.001  0.00  0.00    +0.040 C 
BRANCH  16  17
ATOM     17  C   LIG    1        2.457   1.002  -0.016  0.00  0.00    +0.310 C 
BRANCH  17  18
ATOM     18  N   LIG    1        3.715   1.751  -0.024  0.00  0.00    -0.620 N 
ATOM     19  C   LIG    1        4.418   2.176  -1.240  0.00  0.00    +0.250 C 
ATOM     20  C   LIG    1        5.406   3.274  -0.780  0.00  0.00    +0.040 C 
ATOM     21  C   LIG    1        5.629   2.894   0.702  0.00  0.00    +0.040 C 
ATOM     22  C   LIG    1        4.378   2.133   1.082  0.00  0.00    +0.510 C 
ATOM     23  O   LIG    1        4.024   1.901   2.218  0.00  0.00    -0.530 OA
ENDBRANCH  17  18
ENDBRANCH  16  17
ENDBRANCH  14  16
ENDBRANCH   1  15
TORSDOF 5
