REMARK  Name = ZINCrH000004jl1M.0
REMARK                            x       y       z     vdW  Elec       q    Type
REMARK                         _______ _______ _______ _____ _____    ______ ____
ROOT
ATOM      1  C   LIG    1        1.180   2.089  -0.004  0.00  0.00    +0.110 A 
ATOM      2  C   LIG    1       -0.010   1.373   0.005  0.00  0.00    +0.030 A 
ATOM      3  C   LIG    1        0.013  -0.008  -0.009  0.00  0.00    -0.030 A 
ATOM      4  C   LIG    1        1.226  -0.681  -0.033  0.00  0.00    +0.180 A 
ATOM      5  C   LIG    1        2.419   0.034  -0.043  0.00  0.00    +0.040 A 
ATOM      6  F   LIG    1        3.600  -0.621  -0.067  0.00  0.00    -0.140 F 
ATOM      7  C   LIG    1        2.395   1.416  -0.029  0.00  0.00    +0.050 A 
ENDROOT
BRANCH   1   9
ATOM      8  C   LIG    1        2.108   4.174   0.673  0.00  0.00    +0.510 C 
ATOM      9  N   LIG    1        1.155   3.490   0.009  0.00  0.00    -0.670 N 
ATOM     10  H   LIG    1        0.452   3.967  -0.459  0.00  0.00    +0.410 HD
ATOM     11  O   LIG    1        3.032   3.582   1.188  0.00  0.00    -0.510 OA
BRANCH   8  12
ATOM     12  C   LIG    1        2.023   5.675   0.776  0.00  0.00    +0.160 C 
BRANCH  12  17
ATOM     13  C   LIG    1        3.292   6.398   2.958  0.00  0.00    +0.040 A 
ATOM     14  N   LIG    1        4.492   6.850   3.185  0.00  0.00    -0.360 NA
ATOM     15  O   LIG    1        5.128   6.955   2.163  0.00  0.00    +0.100 OA
ATOM     16  C   LIG    1        4.414   6.571   1.096  0.00  0.00    -0.010 A 
ATOM     17  C   LIG    1        3.201   6.191   1.563  0.00  0.00    -0.190 A 
BRANCH  13  19
ATOM     18  C   LIG    1        2.331   4.706   4.496  0.00  0.00    +0.030 C 
ATOM     19  C   LIG    1        2.215   6.143   3.981  0.00  0.00    +0.110 C 
ENDBRANCH  13  19
BRANCH  16  20
ATOM     20  C   LIG    1        4.872   6.561  -0.340  0.00  0.00    +0.130 C 
ATOM     21  C   LIG    1        4.542   7.907  -0.989  0.00  0.00    +0.040 C 
ENDBRANCH  16  20
ENDBRANCH  12  17
ENDBRANCH   8  12
ENDBRANCH   1   9
BRANCH   4  22
ATOM     22  N   LIG    1        1.250  -2.082  -0.047  0.00  0.00    -0.740 N 
ATOM     23  H   LIG    1        2.098  -2.553  -0.064  0.00  0.00    +0.410 HD
BRANCH  22  24
ATOM     24  C   LIG    1       -0.007  -2.836  -0.035  0.00  0.00    +0.280 C 
BRANCH  24  25
ATOM     25  C   LIG    1        0.298  -4.335  -0.054  0.00  0.00    +0.140 C 
ATOM     26  C   LIG    1       -1.010  -5.148  -0.169  0.00  0.00    +0.010 C 
ATOM     27  C   LIG    1       -0.764  -6.385   0.723  0.00  0.00    +0.000 C 
ATOM     28  C   LIG    1        0.665  -6.172   1.272  0.00  0.00    +0.190 C 
ATOM     29  O   LIG    1        0.879  -4.746   1.202  0.00  0.00    -0.370 OA
ENDBRANCH  24  25
ENDBRANCH  22  24
ENDBRANCH   4  22
TORSDOF 8
