REMARK  Name = ZINCrD000000BztT.0
REMARK                            x       y       z     vdW  Elec       q    Type
REMARK                         _______ _______ _______ _____ _____    ______ ____
ROOT
ATOM      1  C   LIG    1       -3.138   6.607   0.230  0.00  0.00    -0.110 A 
ATOM      2  C   LIG    1       -4.416   6.056   0.333  0.00  0.00    +0.030 A 
ATOM      3  C   LIG    1       -4.578   4.685   0.333  0.00  0.00    +0.040 A 
ATOM      4  C   LIG    1       -3.479   3.854   0.227  0.00  0.00    +0.030 A 
ATOM      5  C   LIG    1       -2.201   4.394   0.129  0.00  0.00    +0.140 A 
ATOM      6  C   LIG    1       -2.028   5.769   0.128  0.00  0.00    +0.090 A 
ENDROOT
BRANCH   1   9
ATOM      7  N   LIG    1       -4.036   8.883   0.329  0.00  0.00    -0.520 N 
ATOM      8  H   LIG    1       -4.925   8.502   0.400  0.00  0.00    +0.430 HD
ATOM      9  C   LIG    1       -2.961   8.075   0.230  0.00  0.00    +0.560 C 
ATOM     10  O   LIG    1       -1.847   8.554   0.141  0.00  0.00    -0.530 OA
BRANCH   7  13
ATOM     11  O   LIG    1       -6.057  10.604   0.517  0.00  0.00    -0.530 OA
ATOM     12  C   LIG    1       -4.943  11.082   0.428  0.00  0.00    +0.560 C 
ATOM     13  N   LIG    1       -3.868  10.274   0.329  0.00  0.00    -0.520 N 
ATOM     14  H   LIG    1       -2.979  10.656   0.258  0.00  0.00    +0.430 HD
BRANCH  12  15
ATOM     15  C   LIG    1       -4.766  12.550   0.428  0.00  0.00    -0.130 A 
ATOM     16  C   LIG    1       -3.488  13.102   0.332  0.00  0.00    +0.040 A 
ATOM     17  C   LIG    1       -3.330  14.473   0.327  0.00  0.00    +0.010 A 
ATOM     18  C   LIG    1       -4.435  15.300   0.428  0.00  0.00    +0.040 A 
ATOM     19  C   LIG    1       -5.705  14.758   0.530  0.00  0.00    +0.000 A 
ATOM     20  C   LIG    1       -5.877  13.390   0.530  0.00  0.00    +0.090 A 
ENDBRANCH  12  15
ENDBRANCH   7  13
ENDBRANCH   1   9
BRANCH   5  21
ATOM     21  N   LIG    1       -1.091   3.549   0.027  0.00  0.00    -0.660 N 
ATOM     22  H   LIG    1       -1.090   2.692   0.482  0.00  0.00    +0.420 HD
ATOM     23  C   LIG    1       -0.024   3.925  -0.705  0.00  0.00    +0.610 C 
ATOM     24  O   LIG    1       -0.062   4.954  -1.354  0.00  0.00    -0.480 OA
BRANCH  23  25
ATOM     25  C   LIG    1        1.183   3.094  -0.720  0.00  0.00    -0.060 A 
ATOM     26  C   LIG    1        2.330   3.357  -1.414  0.00  0.00    +0.070 A 
ATOM     27  C   LIG    1        3.220   2.309  -1.135  0.00  0.00    +0.010 A 
ATOM     28  C   LIG    1        2.586   1.462  -0.292  0.00  0.00    +0.000 A 
ATOM     29 BR   LIG    1        3.313  -0.133   0.419  0.00  0.00    +0.070 Br
ATOM     30  O   LIG    1        1.359   1.939  -0.044  0.00  0.00    -0.150 OA
ENDBRANCH  23  25
ENDBRANCH   5  21
TORSDOF 5
