REMARK  Name = ZINCvU0000000ITN.0
REMARK                            x       y       z     vdW  Elec       q    Type
REMARK                         _______ _______ _______ _____ _____    ______ ____
ROOT
ATOM      1  C   LIG    1       -0.637  -4.005  -2.017  0.00  0.00    +0.040 A 
ATOM      2  N   LIG    1       -0.375  -4.904  -1.086  0.00  0.00    -0.240 NA
ATOM      3  N   LIG    1        0.095  -6.065  -1.711  0.00  0.00    -0.310 N 
ATOM      4  C   LIG    1        0.117  -5.838  -3.061  0.00  0.00    +0.160 A 
ATOM      5  C   LIG    1       -0.333  -4.566  -3.271  0.00  0.00    -0.010 A 
ENDROOT
BRANCH   1  11
ATOM      6  C   LIG    1       -1.922  -0.899  -0.151  0.00  0.00    +0.280 C 
ATOM      7  C   LIG    1       -2.080  -0.883   1.384  0.00  0.00    +0.050 C 
ATOM      8  C   LIG    1       -2.177  -2.393   1.737  0.00  0.00    +0.040 C 
ATOM      9  C   LIG    1       -1.212  -3.020   0.700  0.00  0.00    +0.260 C 
ATOM     10  N   LIG    1       -1.407  -2.224  -0.526  0.00  0.00    -0.600 N 
ATOM     11  C   LIG    1       -1.155  -2.642  -1.782  0.00  0.00    +0.610 C 
ATOM     12  O   LIG    1       -1.355  -1.897  -2.722  0.00  0.00    -0.510 OA
BRANCH   6  18
ATOM     13  C   LIG    1       -1.365   1.488  -0.680  0.00  0.00    +0.140 A 
ATOM     14  C   LIG    1       -0.466   2.469  -1.072  0.00  0.00    -0.080 A 
ATOM     15  C   LIG    1        0.842   2.130  -1.360  0.00  0.00    +0.040 A 
ATOM     16  C   LIG    1        1.256   0.815  -1.257  0.00  0.00    -0.030 A 
ATOM     17  C   LIG    1        0.361  -0.165  -0.865  0.00  0.00    +0.060 A 
ATOM     18  C   LIG    1       -0.948   0.169  -0.577  0.00  0.00    -0.120 A 
BRANCH  13  20
ATOM     19  C   LIG    1       -3.013   3.196  -0.529  0.00  0.00    +0.250 C 
ATOM     20  O   LIG    1       -2.654   1.818  -0.402  0.00  0.00    -0.310 OA
ENDBRANCH  13  20
ENDBRANCH   6  18
ENDBRANCH   1  11
BRANCH   3  21
ATOM     21  C   LIG    1        0.480  -7.248  -1.069  0.00  0.00    +0.130 A 
ATOM     22  C   LIG    1       -0.310  -7.779  -0.056  0.00  0.00    +0.030 A 
ATOM     23  C   LIG    1        0.070  -8.948   0.573  0.00  0.00    +0.040 A 
ATOM     24  C   LIG    1        1.241  -9.585   0.202  0.00  0.00    +0.020 A 
ATOM     25  C   LIG    1        2.031  -9.057  -0.802  0.00  0.00    +0.040 A 
ATOM     26  C   LIG    1        1.655  -7.891  -1.438  0.00  0.00    +0.020 A 
ENDBRANCH   3  21
BRANCH   4  27
ATOM     27  C   LIG    1        0.548  -6.793  -4.098  0.00  0.00    -0.160 A 
ATOM     28  C   LIG    1        0.966  -6.461  -5.338  0.00  0.00    +0.060 A 
ATOM     29  C   LIG    1        1.322  -7.531  -6.131  0.00  0.00    +0.010 A 
ATOM     30  C   LIG    1        1.190  -8.730  -5.556  0.00  0.00    -0.040 A 
ATOM     31  S   LIG    1        0.590  -8.541  -3.914  0.00  0.00    +0.150 S 
ENDBRANCH   4  27
TORSDOF 5
