REMARK  Name = ZINCpk000004KU8e.0
REMARK                            x       y       z     vdW  Elec       q    Type
REMARK                         _______ _______ _______ _____ _____    ______ ____
ROOT
ATOM      1  C   LIG    1        0.016   0.021   0.070  0.00  0.00    +0.250 C 
ENDROOT
BRANCH   1   2
ATOM      2  C   LIG    1        0.094   1.505   0.318  0.00  0.00    +0.510 C 
ATOM      3  N   LIG    1        1.293   2.119   0.363  0.00  0.00    -0.720 N 
ATOM      4  H   LIG    1        2.106   1.605   0.235  0.00  0.00    +0.400 HD
ATOM      5  O   LIG    1       -0.923   2.148   0.473  0.00  0.00    -0.500 OA
BRANCH   3   6
ATOM      6  C   LIG    1        1.369   3.562   0.605  0.00  0.00    +0.350 C 
ATOM      7  C   LIG    1        2.696   4.133   0.057  0.00  0.00    +0.080 C 
ATOM      8  C   LIG    1        3.601   4.076   1.310  0.00  0.00    +0.290 C 
ATOM      9  N   LIG    1        2.686   4.138   2.460  0.00  0.00    -0.480 N 
ATOM     10  C   LIG    1        2.669   4.391   3.808  0.00  0.00    +0.140 A 
ATOM     11  C   LIG    1        1.395   4.244   4.216  0.00  0.00    +0.150 A 
ATOM     12  N   LIG    1        0.654   3.911   3.150  0.00  0.00    -0.460 NA
ATOM     13  C   LIG    1        1.422   3.848   2.092  0.00  0.00    +0.170 A 
ENDBRANCH   3   6
ENDBRANCH   1   2
BRANCH   1  15
ATOM     14  C   LIG    1        0.675  -1.820  -1.486  0.00  0.00    +0.030 C 
ATOM     15  C   LIG    1        0.648  -0.303  -1.286  0.00  0.00    -0.010 C 
ATOM     16  C   LIG    1       -0.177   0.344  -2.400  0.00  0.00    +0.040 C 
ENDBRANCH   1  15
BRANCH   1  17
ATOM     17  N   LIG    1       -1.387  -0.401   0.068  0.00  0.00    -1.090 NA
ATOM     18  H   LIG    1       -1.999  -0.047  -0.596  0.00  0.00    +0.430 HD
BRANCH  17  19
ATOM     19  S   LIG    1       -1.928  -1.482   1.200  0.00  0.00    +2.690 S 
ATOM     20  O   LIG    1       -1.000  -2.559   1.202  0.00  0.00    -0.950 OA
ATOM     21  O   LIG    1       -3.318  -1.654   0.959  0.00  0.00    -0.950 OA
BRANCH  19  22
ATOM     22  C   LIG    1       -1.789  -0.703   2.774  0.00  0.00    -0.680 A 
ATOM     23  C   LIG    1       -0.626  -0.835   3.510  0.00  0.00    +0.100 A 
ATOM     24  C   LIG    1       -0.516  -0.221   4.744  0.00  0.00    -0.010 A 
ATOM     25  C   LIG    1       -1.571   0.519   5.244  0.00  0.00    +0.080 A 
ATOM     26  C   LIG    1       -2.735   0.648   4.510  0.00  0.00    +0.000 A 
ATOM     27  C   LIG    1       -2.844   0.036   3.275  0.00  0.00    +0.130 A 
ENDBRANCH  19  22
ENDBRANCH  17  19
ENDBRANCH   1  17
TORSDOF 6
