REMARK  Name = ZINCvU0000000I2i.0
REMARK                            x       y       z     vdW  Elec       q    Type
REMARK                         _______ _______ _______ _____ _____    ______ ____
ROOT
ATOM      1  N   LIG    1        0.575   3.652   1.675  0.00  0.00    -0.630 N 
ATOM      2  H   LIG    1        1.271   3.438   1.034  0.00  0.00    +0.410 HD
ATOM      3  C   LIG    1        0.578   4.845   2.301  0.00  0.00    +0.570 C 
ATOM      4  O   LIG    1       -0.295   5.112   3.105  0.00  0.00    -0.510 OA
ENDROOT
BRANCH   3   5
ATOM      5  C   LIG    1        1.642   5.830   2.011  0.00  0.00    -0.070 A 
ATOM      6  C   LIG    1        2.715   5.505   1.191  0.00  0.00    +0.020 A 
ATOM      7  C   LIG    1        3.699   6.458   0.939  0.00  0.00    +0.180 A 
ATOM      8  N   LIG    1        3.647   7.660   1.455  0.00  0.00    -0.440 NA
ATOM      9  C   LIG    1        2.646   8.042   2.252  0.00  0.00    +0.120 A 
ATOM     10  C   LIG    1        2.610   9.339   2.797  0.00  0.00    +0.090 A 
ATOM     11  C   LIG    1        1.579   9.703   3.606  0.00  0.00    +0.020 A 
ATOM     12  C   LIG    1        0.551   8.809   3.908  0.00  0.00    +0.110 A 
ATOM     13  C   LIG    1        0.554   7.543   3.397  0.00  0.00    +0.040 A 
ATOM     14  F   LIG    1       -0.459   9.200   4.715  0.00  0.00    -0.130 F 
ATOM     15  C   LIG    1        1.598   7.138   2.556  0.00  0.00    -0.040 A 
BRANCH   7  16
ATOM     16  C   LIG    1        4.858   6.093   0.047  0.00  0.00    +0.020 C 
ATOM     17  C   LIG    1        5.099   4.608  -0.227  0.00  0.00    +0.040 C 
ATOM     18  C   LIG    1        6.049   5.381   0.692  0.00  0.00    +0.050 C 
ENDBRANCH   7  16
ENDBRANCH   3   5
BRANCH   1  20
ATOM     19  C   LIG    1       -0.560   1.482   1.395  0.00  0.00    +0.060 A 
ATOM     20  C   LIG    1       -0.438   2.715   1.951  0.00  0.00    +0.010 A 
ATOM     21  C   LIG    1       -1.503   2.890   2.848  0.00  0.00    +0.280 A 
ATOM     22  N   LIG    1       -2.232   1.804   2.839  0.00  0.00    -0.270 NA
ATOM     23  N   LIG    1       -1.664   0.898   1.934  0.00  0.00    -0.320 N 
BRANCH  23  24
ATOM     24  C   LIG    1       -2.148  -0.384   1.636  0.00  0.00    +0.160 A 
ATOM     25  C   LIG    1       -2.211  -0.814   0.317  0.00  0.00    +0.030 A 
ATOM     26  C   LIG    1       -2.683  -2.079   0.027  0.00  0.00    +0.060 A 
ATOM     27  C   LIG    1       -3.103  -2.914   1.048  0.00  0.00    -0.040 A 
ATOM     28  C   LIG    1       -3.045  -2.485   2.362  0.00  0.00    +0.060 A 
ATOM     29 CL   LIG    1       -3.702  -4.501   0.679  0.00  0.00    -0.060 Cl
ATOM     30  C   LIG    1       -2.570  -1.223   2.659  0.00  0.00    +0.050 A 
ENDBRANCH  23  24
BRANCH  19  32
ATOM     31  C   LIG    1        1.409   0.007   1.082  0.00  0.00    +0.040 C 
ATOM     32  C   LIG    1        0.363   0.871   0.373  0.00  0.00    +0.110 C 
ENDBRANCH  19  32
ENDBRANCH   1  20
TORSDOF 5
