REMARK  Name = ZINCpk00000KfKtU.0
REMARK                            x       y       z     vdW  Elec       q    Type
REMARK                         _______ _______ _______ _____ _____    ______ ____
ROOT
ATOM      1  C   LIG    1       -0.184   3.001   4.862  0.00  0.00    +0.560 C 
ATOM      2  N   LIG    1        1.161   2.944   4.929  0.00  0.00    -0.600 N 
ATOM      3  C   LIG    1        1.958   2.643   3.732  0.00  0.00    +0.280 C 
ATOM      4  C   LIG    1        3.009   3.750   3.554  0.00  0.00    +0.020 C 
ATOM      5  C   LIG    1        3.829   3.880   4.839  0.00  0.00    +0.280 C 
ATOM      6  C   LIG    1        2.908   4.272   5.997  0.00  0.00    +0.020 C 
ATOM      7  C   LIG    1        1.857   3.176   6.202  0.00  0.00    +0.300 C 
ATOM      8  O   LIG    1       -0.829   3.316   5.843  0.00  0.00    -0.510 OA
ENDROOT
BRANCH   1  12
ATOM      9  C   LIG    1       -0.922   3.776  -0.021  0.00  0.00    +0.160 C 
ATOM     10  C   LIG    1       -1.247   3.035   1.250  0.00  0.00    +0.210 A 
ATOM     11  C   LIG    1       -0.575   3.366   2.416  0.00  0.00    -0.020 A 
ATOM     12  C   LIG    1       -0.875   2.681   3.593  0.00  0.00    +0.010 A 
ATOM     13  C   LIG    1       -1.859   1.675   3.534  0.00  0.00    -0.220 A 
ATOM     14  C   LIG    1       -2.438   0.760   4.517  0.00  0.00    +0.150 A 
ATOM     15  N   LIG    1       -3.320   0.036   3.899  0.00  0.00    -0.270 NA
ATOM     16  O   LIG    1       -3.374   0.409   2.537  0.00  0.00    -0.080 OA
ATOM     17  C   LIG    1       -2.077   0.674   5.978  0.00  0.00    +0.200 C 
ATOM     18  C   LIG    1       -2.491   1.403   2.309  0.00  0.00    +0.300 A 
ATOM     19  N   LIG    1       -2.166   2.093   1.227  0.00  0.00    -0.470 NA
ENDBRANCH   1  12
BRANCH   5  20
ATOM     20  N   LIG    1        4.856   4.909   4.661  0.00  0.00    -0.630 N 
ATOM     21  C   LIG    1        6.306   4.695   4.772  0.00  0.00    +0.250 C 
ATOM     22  C   LIG    1        6.908   6.086   4.494  0.00  0.00    +0.250 C 
ATOM     23  N   LIG    1        5.732   6.939   4.265  0.00  0.00    -0.740 N 
ATOM     24  H   LIG    1        5.756   7.887   4.064  0.00  0.00    +0.430 HD
ATOM     25  C   LIG    1        4.622   6.197   4.378  0.00  0.00    +0.700 C 
ATOM     26  O   LIG    1        3.503   6.653   4.235  0.00  0.00    -0.580 OA
ENDBRANCH   5  20
TORSDOF 2
