REMARK  Name = ZINCpk00000KfKTU.2
REMARK                            x       y       z     vdW  Elec       q    Type
REMARK                         _______ _______ _______ _____ _____    ______ ____
ROOT
ATOM      1  N   LIG    1       -0.766   1.593   1.183  0.00  0.00    -0.510 NA
ATOM      2  C   LIG    1       -1.197   2.963   0.823  0.00  0.00    +0.170 C 
ATOM      3  C   LIG    1       -1.265   3.028  -0.714  0.00  0.00    +0.020 C 
ATOM      4  C   LIG    1       -0.821   1.628  -1.197  0.00  0.00    +0.150 C 
ATOM      5  C   LIG    1       -0.013   1.086   0.008  0.00  0.00    +0.190 C 
ENDROOT
BRANCH   4   6
ATOM      6  N   LIG    1        0.030   1.732  -2.390  0.00  0.00    -0.530 NA
ATOM      7  C   LIG    1        0.651   0.439  -2.707  0.00  0.00    +0.210 C 
BRANCH   6   8
ATOM      8  C   LIG    1       -0.731   2.246  -3.537  0.00  0.00    +0.350 C 
BRANCH   8   9
ATOM      9  C   LIG    1        0.216   2.570  -4.663  0.00  0.00    +0.170 A 
ATOM     10  N   LIG    1        0.600   1.756  -5.605  0.00  0.00    -0.280 NA
ATOM     11  N   LIG    1        1.407   2.370  -6.398  0.00  0.00    -0.290 NA
ATOM     12  C   LIG    1        1.572   3.594  -5.983  0.00  0.00    +0.170 A 
ATOM     13  C   LIG    1        2.442   4.644  -6.624  0.00  0.00    +0.240 C 
ATOM     14  O   LIG    1        0.823   3.749  -4.877  0.00  0.00    -0.220 OA
ENDBRANCH   8   9
ENDBRANCH   6   8
ENDBRANCH   4   6
BRANCH   1  15
ATOM     15  C   LIG    1        0.079   1.602   2.386  0.00  0.00    +0.230 C 
BRANCH  15  20
ATOM     16  C   LIG    1       -2.110   2.350   5.381  0.00  0.00    -0.140 A 
ATOM     17  C   LIG    1       -1.921   3.726   5.519  0.00  0.00    +0.040 A 
ATOM     18  C   LIG    1       -1.090   4.396   4.646  0.00  0.00    +0.000 A 
ATOM     19  C   LIG    1       -0.441   3.707   3.637  0.00  0.00    +0.040 A 
ATOM     20  C   LIG    1       -0.628   2.344   3.491  0.00  0.00    -0.090 A 
ATOM     21  C   LIG    1       -1.457   1.661   4.357  0.00  0.00    +0.100 A 
BRANCH  16  25
ATOM     22  C   LIG    1       -4.511   1.575   8.224  0.00  0.00    +0.290 C 
ATOM     23  N   LIG    1       -3.630   2.293   7.300  0.00  0.00    -0.730 N 
ATOM     24  H   LIG    1       -3.499   3.249   7.398  0.00  0.00    +0.400 HD
ATOM     25  C   LIG    1       -3.000   1.625   6.313  0.00  0.00    +0.560 C 
ATOM     26  O   LIG    1       -3.163   0.427   6.189  0.00  0.00    -0.530 OA
ENDBRANCH  16  25
ENDBRANCH  15  20
ENDBRANCH   1  15
TORSDOF 6
