REMARK  Name = ZINCrD000000CL2s.1
REMARK                            x       y       z     vdW  Elec       q    Type
REMARK                         _______ _______ _______ _____ _____    ______ ____
ROOT
ATOM      1  C   LIG    1       -6.257   5.753   1.250  0.00  0.00    +0.200 C 
ENDROOT
BRANCH   1   2
ATOM      2  C   LIG    1       -6.311   6.528   2.542  0.00  0.00    -0.120 A 
ATOM      3  C   LIG    1       -5.925   5.926   3.725  0.00  0.00    +0.000 A 
ATOM      4  C   LIG    1       -5.971   6.638   4.909  0.00  0.00    +0.000 A 
ATOM      5  C   LIG    1       -6.411   7.948   4.912  0.00  0.00    +0.000 A 
ATOM      6  C   LIG    1       -6.803   8.548   3.730  0.00  0.00    +0.000 A 
ATOM      7  C   LIG    1       -6.753   7.838   2.545  0.00  0.00    +0.010 A 
ENDBRANCH   1   2
BRANCH   1   8
ATOM      8  N   LIG    1       -5.036   4.937   1.220  0.00  0.00    -0.670 NA
ATOM      9  H   LIG    1       -4.873   4.497   2.113  0.00  0.00    +0.340 HD
BRANCH   8  10
ATOM     10  C   LIG    1       -3.877   5.740   0.809  0.00  0.00    +0.220 C 
BRANCH  10  11
ATOM     11  C   LIG    1       -2.672   4.846   0.665  0.00  0.00    -0.090 A 
ATOM     12  C   LIG    1       -2.454   4.167  -0.519  0.00  0.00    +0.060 A 
ATOM     13  C   LIG    1       -1.350   3.347  -0.653  0.00  0.00    +0.000 A 
ATOM     14  C   LIG    1       -0.460   3.204   0.402  0.00  0.00    +0.140 A 
ATOM     15  C   LIG    1       -0.685   3.883   1.592  0.00  0.00    +0.000 A 
ATOM     16  C   LIG    1       -1.787   4.706   1.719  0.00  0.00    +0.050 A 
BRANCH  14  17
ATOM     17  N   LIG    1        0.661   2.372   0.269  0.00  0.00    -0.410 N 
ATOM     18  C   LIG    1        1.622   2.141   1.219  0.00  0.00    +0.130 A 
ATOM     19  C   LIG    1        2.511   1.290   0.675  0.00  0.00    +0.160 A 
ATOM     20  N   LIG    1        2.110   1.005  -0.573  0.00  0.00    -0.480 NA
ATOM     21  C   LIG    1        1.002   1.648  -0.828  0.00  0.00    +0.400 A 
ENDBRANCH  14  17
ENDBRANCH  10  11
ENDBRANCH   8  10
ENDBRANCH   1   8
BRANCH   1  22
ATOM     22  C   LIG    1       -7.482   4.843   1.150  0.00  0.00    +0.320 C 
BRANCH  22  28
ATOM     23  O   LIG    1       -8.270   5.500  -1.534  0.00  0.00    -0.540 OA
ATOM     24  C   LIG    1       -7.778   4.421  -1.281  0.00  0.00    +0.520 C 
ATOM     25  C   LIG    1       -7.516   3.329  -2.295  0.00  0.00    +0.040 C 
ATOM     26  C   LIG    1       -6.535   2.372  -1.579  0.00  0.00    +0.040 C 
ATOM     27  C   LIG    1       -6.845   2.657  -0.092  0.00  0.00    +0.260 C 
ATOM     28  N   LIG    1       -7.383   4.022  -0.060  0.00  0.00    -0.600 N 
ENDBRANCH  22  28
ENDBRANCH   1  22
TORSDOF 7
