REMARK  Name = ZINCrD00000l0z7N.0
REMARK                            x       y       z     vdW  Elec       q    Type
REMARK                         _______ _______ _______ _____ _____    ______ ____
ROOT
ATOM      1  C   LIG    1        0.292  -8.120   0.283  0.00  0.00    +0.510 C 
ATOM      2  N   LIG    1        1.426  -7.392   0.304  0.00  0.00    -0.720 N 
ATOM      3  H   LIG    1        2.267  -7.795   0.038  0.00  0.00    +0.410 HD
ATOM      4  O   LIG    1       -0.759  -7.615   0.615  0.00  0.00    -0.510 OA
ENDROOT
BRANCH   1   5
ATOM      5  C   LIG    1        0.331  -9.562  -0.153  0.00  0.00    +0.340 C 
BRANCH   5  11
ATOM      6  C   LIG    1       -1.818 -10.188  -1.196  0.00  0.00    +0.130 A 
ATOM      7  C   LIG    1       -3.039 -10.721  -1.050  0.00  0.00    -0.010 A 
ATOM      8  S   LIG    1       -3.150 -11.180   0.659  0.00  0.00    +0.160 S 
ATOM      9  C   LIG    1       -1.517 -10.617   1.061  0.00  0.00    +0.240 A 
ATOM     10  S   LIG    1       -0.742 -10.679   2.587  0.00  0.00    -0.460 S 
ATOM     11  N   LIG    1       -1.018 -10.129  -0.088  0.00  0.00    -0.430 N 
BRANCH   6  16
ATOM     12  C   LIG    1       -0.011  -8.215  -6.291  0.00  0.00    +0.100 C 
ATOM     13  C   LIG    1       -0.485  -8.731  -4.957  0.00  0.00    -0.060 A 
ATOM     14  C   LIG    1       -1.016 -10.005  -4.861  0.00  0.00    +0.010 A 
ATOM     15  C   LIG    1       -1.451 -10.484  -3.642  0.00  0.00    +0.050 A 
ATOM     16  C   LIG    1       -1.354  -9.680  -2.505  0.00  0.00    -0.070 A 
ATOM     17  C   LIG    1       -0.822  -8.395  -2.610  0.00  0.00    +0.030 A 
ATOM     18  C   LIG    1       -0.386  -7.930  -3.833  0.00  0.00    +0.010 A 
ENDBRANCH   6  16
ENDBRANCH   5  11
ENDBRANCH   1   5
BRANCH   2  19
ATOM     19  C   LIG    1        1.388  -5.990   0.727  0.00  0.00    +0.270 C 
BRANCH  19  20
ATOM     20  C   LIG    1        2.797  -5.398   0.659  0.00  0.00    +0.270 C 
BRANCH  20  21
ATOM     21  N   LIG    1        2.759  -3.996   1.083  0.00  0.00    -0.720 N 
ATOM     22  H   LIG    1        1.918  -3.592   1.348  0.00  0.00    +0.410 HD
ATOM     23  C   LIG    1        3.892  -3.267   1.103  0.00  0.00    +0.610 C 
ATOM     24  O   LIG    1        4.948  -3.774   0.771  0.00  0.00    -0.520 OA
BRANCH  23  25
ATOM     25  C   LIG    1        3.854  -1.864   1.527  0.00  0.00    -0.090 A 
ATOM     26  C   LIG    1        4.923  -1.017   1.595  0.00  0.00    +0.050 A 
ATOM     27  C   LIG    1        4.432   0.218   2.047  0.00  0.00    -0.070 A 
ATOM     28  C   LIG    1        3.101   0.072   2.234  0.00  0.00    +0.210 A 
ATOM     29  O   LIG    1        2.757  -1.183   1.919  0.00  0.00    -0.170 OA
ENDBRANCH  23  25
ENDBRANCH  20  21
ENDBRANCH  19  20
ENDBRANCH   2  19
TORSDOF 7
