REMARK  Name = ZINCrD00000F5LlF.1
REMARK                            x       y       z     vdW  Elec       q    Type
REMARK                         _______ _______ _______ _____ _____    ______ ____
ROOT
ATOM      1  C   LIG    1       -2.451   1.236   0.020  0.00  0.00    +0.120 C 
ATOM      2  C   LIG    1       -1.290   1.928   0.019  0.00  0.00    -0.060 C 
ENDROOT
BRANCH   1   5
ATOM      3  C   LIG    1       -6.139   1.918   0.042  0.00  0.00    +0.110 A 
ATOM      4  C   LIG    1       -4.938   1.239   0.026  0.00  0.00    +0.030 A 
ATOM      5  C   LIG    1       -3.734   1.953   0.030  0.00  0.00    -0.040 A 
ATOM      6  C   LIG    1       -3.755   3.353   0.038  0.00  0.00    +0.110 A 
ATOM      7  C   LIG    1       -4.959   4.023   0.047  0.00  0.00    -0.040 A 
ATOM      8  C   LIG    1       -6.152   3.313   0.049  0.00  0.00    +0.160 A 
BRANCH   7   9
ATOM      9  N   LIG    1       -4.980   5.503   0.055  0.00  0.00    +0.030 N 
ATOM     10  O   LIG    1       -6.043   6.097   0.063  0.00  0.00    -0.130 OA
ATOM     11  O   LIG    1       -3.934   6.127   0.054  0.00  0.00    -0.160 OA
ENDBRANCH   7   9
BRANCH   3  13
ATOM     12  C   LIG    1       -7.223  -0.199   0.036  0.00  0.00    +0.250 C 
ATOM     13  O   LIG    1       -7.311   1.228   0.043  0.00  0.00    -0.300 OA
ENDBRANCH   3  13
BRANCH   8  14
ATOM     14  O   LIG    1       -7.336   3.979   0.058  0.00  0.00    -0.460 OA
ATOM     15  H   LIG    1       -7.683   4.177  -0.823  0.00  0.00    +0.410 HD
ENDBRANCH   8  14
ENDBRANCH   1   5
BRANCH   2  16
ATOM     16  C   LIG    1       -0.014   1.214   0.009  0.00  0.00    +0.450 C 
ATOM     17  O   LIG    1        0.002  -0.004   0.002  0.00  0.00    -0.450 OA
BRANCH  16  18
ATOM     18  C   LIG    1        1.252   1.968   0.001  0.00  0.00    -0.300 A 
ATOM     19  C   LIG    1        2.480   1.320  -0.015  0.00  0.00    +0.250 A 
ATOM     20  C   LIG    1        3.652   2.118   0.009  0.00  0.00    -0.180 A 
ATOM     21  C   LIG    1        4.913   1.538  -0.195  0.00  0.00    +0.100 A 
ATOM     22  C   LIG    1        6.029   2.325  -0.203  0.00  0.00    +0.000 A 
ATOM     23  C   LIG    1        5.928   3.694   0.002  0.00  0.00    +0.100 A 
ATOM     24  C   LIG    1        4.701   4.282   0.233  0.00  0.00    +0.010 A 
ATOM     25  C   LIG    1        3.553   3.501   0.253  0.00  0.00    +0.150 A 
ATOM     26  O   LIG    1        2.351   4.061   0.529  0.00  0.00    -0.270 OA
ATOM     27  C   LIG    1        1.267   3.443   0.002  0.00  0.00    +0.530 A 
ATOM     28  O   LIG    1        0.336   4.081  -0.451  0.00  0.00    -0.430 OA
ENDBRANCH  16  18
ENDBRANCH   2  16
TORSDOF 6
