REMARK  Name = ZINCrg00001JduRB.0
REMARK                            x       y       z     vdW  Elec       q    Type
REMARK                         _______ _______ _______ _____ _____    ______ ____
ROOT
ATOM      1  C   LIG    1        0.025   8.669  -1.093  0.00  0.00    +0.250 C 
ATOM      2  C   LIG    1       -1.168   7.808  -1.576  0.00  0.00    -0.010 C 
ATOM      3  C   LIG    1       -0.682   6.364  -1.297  0.00  0.00    +0.160 C 
ATOM      4  C   LIG    1        0.083   6.474   0.038  0.00  0.00    +0.000 C 
ATOM      5  C   LIG    1        0.532   7.940   0.168  0.00  0.00    +0.040 C 
ENDROOT
BRANCH   1   8
ATOM      6  O   LIG    1       -0.053  10.731  -2.827  0.00  0.00    -0.530 OA
ATOM      7  C   LIG    1       -0.421  10.987  -1.700  0.00  0.00    +0.520 C 
ATOM      8  N   LIG    1       -0.420  10.024  -0.757  0.00  0.00    -0.730 N 
ATOM      9  H   LIG    1       -0.714  10.228   0.145  0.00  0.00    +0.400 HD
BRANCH   7  10
ATOM     10  C   LIG    1       -0.879  12.380  -1.354  0.00  0.00    +0.090 C 
BRANCH  10  11
ATOM     11  C   LIG    1       -0.782  13.271  -2.594  0.00  0.00    +0.030 C 
ATOM     12  C   LIG    1       -2.084  13.851  -3.151  0.00  0.00    +0.080 C 
ATOM     13  C   LIG    1       -1.092  14.759  -2.421  0.00  0.00    -0.230 C 
ATOM     14  C   LIG    1       -0.401  16.108  -2.632  0.00  0.00    +0.070 C 
ATOM     15  C   LIG    1       -1.102  15.807  -1.306  0.00  0.00    +0.070 C 
ENDBRANCH  10  11
ENDBRANCH   7  10
ENDBRANCH   1   8
BRANCH   3  16
ATOM     16  O   LIG    1        0.190   5.920  -2.338  0.00  0.00    -0.550 OA
ATOM     17  H   LIG    1       -0.238   5.833  -3.200  0.00  0.00    +0.380 HD
ENDBRANCH   3  16
BRANCH   4  18
ATOM     18  C   LIG    1        1.303   5.551   0.021  0.00  0.00    +0.280 C 
BRANCH  18  19
ATOM     19  N   LIG    1        0.859   4.155   0.017  0.00  0.00    -0.720 N 
ATOM     20  H   LIG    1       -0.088   3.947   0.026  0.00  0.00    +0.390 HD
ATOM     21  C   LIG    1        1.768   3.159   0.002  0.00  0.00    +0.600 C 
ATOM     22  O   LIG    1        2.955   3.420  -0.008  0.00  0.00    -0.550 OA
BRANCH  21  23
ATOM     23  C   LIG    1        1.321   1.754  -0.001  0.00  0.00    -0.280 A 
ATOM     24  C   LIG    1        2.132   0.635  -0.016  0.00  0.00    +0.140 A 
ATOM     25  C   LIG    1        3.587   0.216  -0.036  0.00  0.00    +0.140 C 
ATOM     26  C   LIG    1        3.546  -1.268  -0.468  0.00  0.00    +0.070 C 
ATOM     27  C   LIG    1        2.129  -1.685  -0.020  0.00  0.00    +0.320 C 
ATOM     28  N   LIG    1        1.337  -0.444  -0.011  0.00  0.00    -0.380 N 
ATOM     29  N   LIG    1        0.002  -0.004   0.002  0.00  0.00    -0.270 NA
ATOM     30  C   LIG    1       -0.016   1.299   0.009  0.00  0.00    +0.270 A 
ENDBRANCH  21  23
ENDBRANCH  18  19
ENDBRANCH   4  18
TORSDOF 7
