REMARK  Name = ZINCrg000000rx9O.0
REMARK                            x       y       z     vdW  Elec       q    Type
REMARK                         _______ _______ _______ _____ _____    ______ ____
ROOT
ATOM      1  C   LIG    1       -0.417   1.501  -2.677  0.00  0.00    +0.540 C 
ATOM      2  N   LIG    1       -0.647   2.169  -3.825  0.00  0.00    -0.600 N 
ATOM      3  C   LIG    1       -1.493   3.372  -3.841  0.00  0.00    +0.290 C 
ATOM      4  C   LIG    1       -0.721   4.494  -4.555  0.00  0.00    +0.170 C 
ATOM      5  N   LIG    1       -0.290   4.020  -5.877  0.00  0.00    -0.530 NA
ATOM      6  C   LIG    1        0.646   2.894  -5.760  0.00  0.00    +0.170 C 
ATOM      7  C   LIG    1       -0.064   1.710  -5.095  0.00  0.00    +0.290 C 
ATOM      8  O   LIG    1        0.279   0.508  -2.682  0.00  0.00    -0.520 OA
ENDROOT
BRANCH   1  10
ATOM      9  C   LIG    1       -2.445   1.437  -1.251  0.00  0.00    +0.120 C 
ATOM     10  C   LIG    1       -1.024   1.989  -1.387  0.00  0.00    -0.460 C 
BRANCH  10  11
ATOM     11  S   LIG    1       -0.017   1.417   0.010  0.00  0.00    +2.440 S 
ATOM     12  O   LIG    1        1.213   2.127   0.002  0.00  0.00    -0.920 OA
ATOM     13  O   LIG    1        0.002  -0.004   0.002  0.00  0.00    -0.900 OA
BRANCH  11  14
ATOM     14  C   LIG    1       -0.997   1.974   1.431  0.00  0.00    -0.440 C 
ATOM     15  C   LIG    1       -1.250   3.480   1.321  0.00  0.00    +0.030 C 
ATOM     16  C   LIG    1       -2.007   3.955   2.564  0.00  0.00    +0.230 C 
ATOM     17  O   LIG    1       -1.254   3.631   3.734  0.00  0.00    -0.380 OA
ATOM     18  C   LIG    1       -1.028   2.232   3.914  0.00  0.00    +0.240 C 
ATOM     19  C   LIG    1       -0.230   1.688   2.726  0.00  0.00    +0.040 C 
ENDBRANCH  11  14
ENDBRANCH  10  11
ENDBRANCH   1  10
BRANCH   5  20
ATOM     20  C   LIG    1        0.298   5.114  -6.662  0.00  0.00    +0.230 C 
BRANCH  20  21
ATOM     21  C   LIG    1       -0.579   6.335  -6.556  0.00  0.00    -0.070 A 
ATOM     22  C   LIG    1       -0.364   7.254  -5.546  0.00  0.00    -0.010 A 
ATOM     23  C   LIG    1       -1.166   8.376  -5.447  0.00  0.00    +0.030 A 
ATOM     24  C   LIG    1       -2.184   8.581  -6.357  0.00  0.00    -0.010 A 
ATOM     25  C   LIG    1       -2.402   7.660  -7.372  0.00  0.00    +0.110 A 
ATOM     26  C   LIG    1       -1.593   6.538  -7.473  0.00  0.00    +0.010 A 
BRANCH  25  27
ATOM     27  O   LIG    1       -3.403   7.860  -8.269  0.00  0.00    -0.500 OA
ATOM     28  H   LIG    1       -3.135   8.363  -9.051  0.00  0.00    +0.390 HD
ENDBRANCH  25  27
ENDBRANCH  20  21
ENDBRANCH   5  20
TORSDOF 6
