REMARK  Name = ZINCpk00000y6yCF.1
REMARK                            x       y       z     vdW  Elec       q    Type
REMARK                         _______ _______ _______ _____ _____    ______ ____
ROOT
ATOM      1  N   LIG    1       -0.700   1.560   1.217  0.00  0.00    -0.530 NA
ATOM      2  C   LIG    1       -0.620   3.022   1.329  0.00  0.00    +0.170 C 
ATOM      3  C   LIG    1       -1.466   3.491   2.514  0.00  0.00    +0.050 C 
ATOM      4  C   LIG    1       -0.950   2.833   3.797  0.00  0.00    +0.050 C 
ATOM      5  C   LIG    1       -0.998   1.311   3.635  0.00  0.00    +0.050 C 
ATOM      6  C   LIG    1       -0.165   0.905   2.417  0.00  0.00    +0.180 C 
ENDROOT
BRANCH   4   7
ATOM      7  C   LIG    1       -1.816   3.244   4.959  0.00  0.00    +0.090 A 
ATOM      8  C   LIG    1       -2.982   2.664   5.329  0.00  0.00    -0.110 A 
ATOM      9  C   LIG    1       -3.462   3.345   6.453  0.00  0.00    +0.230 A 
ATOM     10  N   LIG    1       -2.620   4.303   6.742  0.00  0.00    -0.300 NA
ATOM     11  N   LIG    1       -1.572   4.260   5.813  0.00  0.00    -0.370 N 
BRANCH  11  12
ATOM     12  C   LIG    1       -0.416   5.159   5.775  0.00  0.00    +0.330 C 
BRANCH  12  13
ATOM     13  C   LIG    1       -0.742   6.371   4.900  0.00  0.00    +0.170 C 
BRANCH  13  14
ATOM     14  O   LIG    1        0.386   7.248   4.863  0.00  0.00    -0.570 OA
ATOM     15  H   LIG    1        0.250   8.040   4.325  0.00  0.00    +0.390 HD
ENDBRANCH  13  14
ENDBRANCH  12  13
ENDBRANCH  11  12
ENDBRANCH   4   7
BRANCH   1  16
ATOM     16  C   LIG    1       -0.013   1.086   0.008  0.00  0.00    +0.260 C 
BRANCH  16  20
ATOM     17  C   LIG    1       -0.631   4.438  -3.680  0.00  0.00    +0.130 C 
ATOM     18  C   LIG    1       -1.035   3.176  -2.962  0.00  0.00    +0.220 A 
ATOM     19  C   LIG    1       -0.341   2.754  -1.840  0.00  0.00    -0.150 A 
ATOM     20  C   LIG    1       -0.742   1.585  -1.213  0.00  0.00    +0.230 A 
ATOM     21  N   LIG    1       -1.775   0.916  -1.696  0.00  0.00    -0.550 NA
ATOM     22  C   LIG    1       -2.421   1.349  -2.769  0.00  0.00    +0.570 A 
ATOM     23  N   LIG    1       -2.061   2.460  -3.394  0.00  0.00    -0.570 NA
BRANCH  22  24
ATOM     24  N   LIG    1       -3.498   0.624  -3.247  0.00  0.00    -0.590 N 
ATOM     25  C   LIG    1       -4.225   1.087  -4.432  0.00  0.00    +0.300 C 
ATOM     26  C   LIG    1       -3.912  -0.607  -2.569  0.00  0.00    +0.300 C 
ENDBRANCH  22  24
ENDBRANCH  16  20
ENDBRANCH   1  16
TORSDOF 7
