REMARK  Name = ZINCtV000002wzyT.0
REMARK                            x       y       z     vdW  Elec       q    Type
REMARK                         _______ _______ _______ _____ _____    ______ ____
ROOT
ATOM      1  C   LIG    1       -0.752  -0.824   0.936  0.00  0.00    -0.180 A 
ATOM      2  C   LIG    1       -0.575  -2.166   0.726  0.00  0.00    +0.040 A 
ATOM      3  S   LIG    1        0.495  -2.445  -0.570  0.00  0.00    +0.340 S 
ATOM      4  C   LIG    1        0.721  -0.730  -0.862  0.00  0.00    -0.080 A 
ATOM      5  C   LIG    1        0.002  -0.004   0.002  0.00  0.00    -0.010 A 
ENDROOT
BRANCH   5   6
ATOM      6  C   LIG    1       -0.018   1.478   0.010  0.00  0.00    -0.030 A 
ATOM      7  C   LIG    1       -1.233   2.161   0.020  0.00  0.00    +0.050 A 
ATOM      8  C   LIG    1       -1.246   3.541   0.033  0.00  0.00    +0.030 A 
ATOM      9  C   LIG    1       -0.056   4.247   0.025  0.00  0.00    -0.030 A 
ATOM     10  C   LIG    1        1.154   3.574   0.010  0.00  0.00    +0.030 A 
ATOM     11 CL   LIG    1       -0.079   5.983   0.036  0.00  0.00    -0.070 Cl
ATOM     12  C   LIG    1        1.178   2.194   0.003  0.00  0.00    +0.050 A 
ENDBRANCH   5   6
BRANCH   2  13
ATOM     13  N   LIG    1       -1.182  -3.164   1.472  0.00  0.00    -0.630 N 
ATOM     14  H   LIG    1       -1.782  -2.930   2.198  0.00  0.00    +0.420 HD
ATOM     15  C   LIG    1       -0.938  -4.459   1.190  0.00  0.00    +0.530 C 
ATOM     16  O   LIG    1       -0.188  -4.751   0.283  0.00  0.00    -0.480 OA
BRANCH  15  17
ATOM     17  C   LIG    1       -1.598  -5.544   2.001  0.00  0.00    +0.100 C 
BRANCH  17  18
ATOM     18  S   LIG    1       -1.073  -7.166   1.382  0.00  0.00    -0.010 S 
BRANCH  18  19
ATOM     19  C   LIG    1       -1.931  -8.289   2.434  0.00  0.00    -0.090 A 
ATOM     20  C   LIG    1       -2.758  -7.806   3.441  0.00  0.00    +0.000 A 
ATOM     21  C   LIG    1       -3.433  -8.689   4.261  0.00  0.00    +0.070 A 
ATOM     22  C   LIG    1       -3.279 -10.053   4.087  0.00  0.00    -0.100 A 
ATOM     23  C   LIG    1       -2.452 -10.537   3.089  0.00  0.00    +0.070 A 
ATOM     24 BR   LIG    1       -4.199 -11.258   5.217  0.00  0.00    -0.040 Br
ATOM     25  C   LIG    1       -1.778  -9.660   2.263  0.00  0.00    +0.050 A 
ENDBRANCH  18  19
ENDBRANCH  17  18
ENDBRANCH  15  17
ENDBRANCH   2  13
BRANCH   1  26
ATOM     26  C   LIG    1       -1.611  -0.275   1.985  0.00  0.00    +0.540 C 
ATOM     27  O   LIG    1       -2.785  -0.053   1.756  0.00  0.00    -0.490 OA
BRANCH  26  28
ATOM     28  O   LIG    1       -1.101  -0.014   3.206  0.00  0.00    -0.350 OA
BRANCH  28  30
ATOM     29  C   LIG    1       -1.259   0.758   5.510  0.00  0.00    +0.070 C 
ATOM     30  C   LIG    1       -2.012   0.530   4.198  0.00  0.00    +0.200 C 
ENDBRANCH  28  30
ENDBRANCH  26  28
ENDBRANCH   1  26
TORSDOF 8
