REMARK  Name = ZINCrH00000No4E1.0
REMARK                            x       y       z     vdW  Elec       q    Type
REMARK                         _______ _______ _______ _____ _____    ______ ____
ROOT
ATOM      1  C   LIG    1       -0.893   3.508   9.469  0.00  0.00    +0.110 A 
ATOM      2  C   LIG    1       -1.452   3.162   8.256  0.00  0.00    +0.010 A 
ATOM      3  C   LIG    1       -0.632   2.699   7.218  0.00  0.00    -0.090 A 
ATOM      4  C   LIG    1        0.749   2.586   7.420  0.00  0.00    +0.040 A 
ATOM      5  C   LIG    1        1.298   2.939   8.633  0.00  0.00    -0.040 A 
ATOM      6  C   LIG    1        0.484   3.397   9.661  0.00  0.00    +0.130 A 
ENDROOT
BRANCH   3   7
ATOM      7  C   LIG    1       -1.219   2.329   5.925  0.00  0.00    +0.170 C 
ATOM      8  C   LIG    1       -0.501   2.494   4.777  0.00  0.00    +0.010 C 
BRANCH   8   9
ATOM      9  C   LIG    1       -1.034   1.996   3.496  0.00  0.00    +0.110 A 
ATOM     10  N   LIG    1       -0.440   2.095   2.339  0.00  0.00    -0.450 NA
ATOM     11  C   LIG    1       -1.067   1.591   1.302  0.00  0.00    +0.070 A 
ATOM     12  C   LIG    1       -2.256   1.034   1.554  0.00  0.00    -0.060 A 
ATOM     13  C   LIG    1       -0.486   1.643  -0.088  0.00  0.00    +0.160 C 
ATOM     14  S   LIG    1       -2.575   1.170   3.282  0.00  0.00    +0.110 S 
ENDBRANCH   8   9
BRANCH   8  15
ATOM     15  C   LIG    1        0.771   3.151   4.817  0.00  0.00    +0.260 C 
ATOM     16  N   LIG    1        1.780   3.673   4.848  0.00  0.00    -0.400 NA
ENDBRANCH   8  15
ENDBRANCH   3   7
BRANCH   1  17
ATOM     17  O   LIG    1       -1.685   3.957  10.479  0.00  0.00    -0.300 OA
BRANCH  17  19
ATOM     18  C   LIG    1       -3.809   4.566  11.458  0.00  0.00    +0.070 C 
ATOM     19  C   LIG    1       -3.087   4.045  10.214  0.00  0.00    +0.170 C 
ENDBRANCH  17  19
ENDBRANCH   1  17
BRANCH   6  20
ATOM     20  O   LIG    1        1.032   3.738  10.856  0.00  0.00    -0.270 OA
BRANCH  20  21
ATOM     21  C   LIG    1        2.457   3.716  10.947  0.00  0.00    +0.160 C 
ATOM     22  C   LIG    1        2.921   2.317  11.356  0.00  0.00    +0.060 C 
BRANCH  21  23
ATOM     23  C   LIG    1        2.910   4.717  11.979  0.00  0.00    +0.520 C 
ATOM     24  N   LIG    1        4.222   4.990  12.123  0.00  0.00    -0.620 N 
ATOM     25  C   LIG    1        5.198   4.402  11.201  0.00  0.00    +0.290 C 
ATOM     26  C   LIG    1        4.673   5.875  13.200  0.00  0.00    +0.290 C 
ATOM     27  O   LIG    1        2.094   5.276  12.681  0.00  0.00    -0.510 OA
ENDBRANCH  21  23
ENDBRANCH  20  21
ENDBRANCH   6  20
TORSDOF 8
