REMARK  Name = ZINCqH0000004IjW.0
REMARK                            x       y       z     vdW  Elec       q    Type
REMARK                         _______ _______ _______ _____ _____    ______ ____
ROOT
ATOM      1  C   LIG    1        3.417   7.359   2.647  0.00  0.00    +0.510 C 
ATOM      2  N   LIG    1        3.189   7.046   1.356  0.00  0.00    -0.670 N 
ATOM      3  H   LIG    1        3.342   7.707   0.662  0.00  0.00    +0.410 HD
ATOM      4  O   LIG    1        3.318   6.506   3.504  0.00  0.00    -0.490 OA
ENDROOT
BRANCH   2   5
ATOM      5  C   LIG    1        2.731   5.767   1.015  0.00  0.00    +0.160 A 
ATOM      6  C   LIG    1        1.886   5.080   1.876  0.00  0.00    +0.020 A 
ATOM      7  C   LIG    1        1.431   3.821   1.538  0.00  0.00    +0.050 A 
ATOM      8  C   LIG    1        1.826   3.238   0.342  0.00  0.00    +0.130 A 
ATOM      9  C   LIG    1        2.671   3.925  -0.520  0.00  0.00    -0.060 A 
ATOM     10  C   LIG    1        3.096   3.295  -1.821  0.00  0.00    +0.100 C 
ATOM     11  C   LIG    1        3.122   5.186  -0.184  0.00  0.00    -0.010 A 
BRANCH   8  12
ATOM     12  N   LIG    1        1.368   1.959   0.001  0.00  0.00    -0.580 N 
ATOM     13  C   LIG    1        0.137   1.693  -0.752  0.00  0.00    +0.260 C 
ATOM     14  C   LIG    1       -0.180   0.201  -0.510  0.00  0.00    +0.040 C 
ATOM     15  C   LIG    1        1.221  -0.372  -0.196  0.00  0.00    +0.070 C 
ATOM     16  C   LIG    1        2.001   0.817   0.321  0.00  0.00    +0.520 C 
ATOM     17  O   LIG    1        3.044   0.749   0.936  0.00  0.00    -0.520 OA
ENDBRANCH   8  12
ENDBRANCH   2   5
BRANCH   1  18
ATOM     18  C   LIG    1        3.794   8.768   3.025  0.00  0.00    +0.240 C 
BRANCH  18  19
ATOM     19  O   LIG    1        3.981   8.847   4.440  0.00  0.00    -0.290 OA
BRANCH  19  24
ATOM     20  C   LIG    1        4.877  11.439   6.830  0.00  0.00    -0.040 A 
ATOM     21  C   LIG    1        5.032  12.524   5.987  0.00  0.00    -0.030 A 
ATOM     22  C   LIG    1        4.835  12.378   4.626  0.00  0.00    +0.050 A 
ATOM     23  C   LIG    1        4.489  11.147   4.105  0.00  0.00    -0.090 A 
ATOM     24  C   LIG    1        4.327  10.058   4.950  0.00  0.00    +0.130 A 
ATOM     25  C   LIG    1        4.525  10.207   6.314  0.00  0.00    -0.010 A 
BRANCH  20  27
ATOM     26  C   LIG    1        6.560  11.327   8.648  0.00  0.00    +0.030 C 
ATOM     27  C   LIG    1        5.093  11.601   8.313  0.00  0.00    +0.070 C 
ENDBRANCH  20  27
ENDBRANCH  19  24
ENDBRANCH  18  19
ENDBRANCH   1  18
TORSDOF 6
