REMARK  Name = ZINCpk00000xJD8U.0
REMARK                            x       y       z     vdW  Elec       q    Type
REMARK                         _______ _______ _______ _____ _____    ______ ____
ROOT
ATOM      1  N   LIG    1        6.129   1.035   2.767  0.00  0.00    -0.530 NA
ATOM      2  C   LIG    1        5.898  -0.206   3.529  0.00  0.00    +0.200 C 
ATOM      3  C   LIG    1        7.268  -0.681   4.056  0.00  0.00    +0.030 C 
ATOM      4  C   LIG    1        8.117   0.617   4.045  0.00  0.00    +0.060 C 
ATOM      5  C   LIG    1        7.578   1.332   2.780  0.00  0.00    +0.270 C 
ENDROOT
BRANCH   5   6
ATOM      6  C   LIG    1        7.808   2.818   2.879  0.00  0.00    +0.210 A 
ATOM      7  N   LIG    1        8.663   3.521   2.180  0.00  0.00    -0.440 NA
ATOM      8  C   LIG    1        8.517   4.797   2.604  0.00  0.00    +0.130 A 
ATOM      9  N   LIG    1        7.598   4.792   3.533  0.00  0.00    -0.350 NA
ATOM     10  O   LIG    1        7.182   3.665   3.702  0.00  0.00    +0.120 OA
BRANCH   8  11
ATOM     11  C   LIG    1        9.266   5.980   2.112  0.00  0.00    +0.620 C 
ATOM     12  N   LIG    1        9.020   7.198   2.633  0.00  0.00    -0.680 N 
ATOM     13  H   LIG    1        8.353   7.302   3.330  0.00  0.00    +0.410 HD
ATOM     14  O   LIG    1       10.102   5.850   1.239  0.00  0.00    -0.490 OA
BRANCH  12  15
ATOM     15  C   LIG    1        9.759   8.366   2.147  0.00  0.00    +0.210 C 
ATOM     16  C   LIG    1       10.279   9.357   3.190  0.00  0.00    +0.020 C 
ATOM     17  C   LIG    1        9.095   9.736   2.299  0.00  0.00    +0.030 C 
ENDBRANCH  12  15
ENDBRANCH   8  11
ENDBRANCH   5   6
BRANCH   1  18
ATOM     18  C   LIG    1        5.630   0.909   1.391  0.00  0.00    +0.180 C 
BRANCH  18  19
ATOM     19  C   LIG    1        4.101   0.870   1.405  0.00  0.00    +0.030 C 
BRANCH  19  20
ATOM     20  C   LIG    1        3.581   0.739  -0.028  0.00  0.00    +0.120 C 
BRANCH  20  26
ATOM     21  C   LIG    1        1.751  -1.809  -0.024  0.00  0.00    +0.320 C 
ATOM     22  N   LIG    1        1.287  -0.420  -0.013  0.00  0.00    -0.460 N 
ATOM     23  C   LIG    1        0.002  -0.004   0.002  0.00  0.00    +0.380 A 
ATOM     24  N   LIG    1       -0.016   1.301   0.009  0.00  0.00    -0.490 NA
ATOM     25  C   LIG    1        1.244   1.760  -0.000  0.00  0.00    +0.150 A 
ATOM     26  C   LIG    1        2.075   0.700  -0.014  0.00  0.00    -0.020 A 
ENDBRANCH  20  26
ENDBRANCH  19  20
ENDBRANCH  18  19
ENDBRANCH   1  18
TORSDOF 7
