REMARK  Name = ZINCrg000000qZIC.0
REMARK                            x       y       z     vdW  Elec       q    Type
REMARK                         _______ _______ _______ _____ _____    ______ ____
ROOT
ATOM      1  N   LIG    1       -2.016   2.009  -0.784  0.00  0.00    -0.560 N 
ATOM      2  C   LIG    1       -2.209   1.800   0.655  0.00  0.00    +0.310 C 
ATOM      3  C   LIG    1       -0.787   1.610   1.239  0.00  0.00    +0.010 C 
ATOM      4  C   LIG    1       -0.013   1.086   0.008  0.00  0.00    +0.080 C 
ATOM      5  C   LIG    1       -0.793   1.611  -1.176  0.00  0.00    +0.520 C 
ATOM      6  O   LIG    1       -0.377   1.667  -2.314  0.00  0.00    -0.520 OA
ENDROOT
BRANCH   3   7
ATOM      7  C   LIG    1       -0.219   2.922   1.716  0.00  0.00    +0.530 C 
ATOM      8  N   LIG    1        1.058   2.988   2.140  0.00  0.00    -0.620 N 
ATOM      9  C   LIG    1        1.916   1.792   2.153  0.00  0.00    +0.250 C 
ATOM     10  C   LIG    1        2.562   1.670   3.533  0.00  0.00    +0.230 C 
ATOM     11  O   LIG    1        3.193   2.908   3.870  0.00  0.00    -0.370 OA
ATOM     12  C   LIG    1        2.294   4.015   3.973  0.00  0.00    +0.280 C 
ATOM     13  C   LIG    1        1.635   4.258   2.610  0.00  0.00    +0.280 C 
ATOM     14  O   LIG    1       -0.911   3.917   1.718  0.00  0.00    -0.510 OA
BRANCH  12  15
ATOM     15  C   LIG    1        3.055   5.246   4.391  0.00  0.00    +0.170 A 
ATOM     16  N   LIG    1        4.198   5.642   3.916  0.00  0.00    -0.350 NA
ATOM     17  O   LIG    1        4.544   6.671   4.458  0.00  0.00    +0.090 OA
ATOM     18  C   LIG    1        3.631   7.035   5.363  0.00  0.00    +0.440 A 
ATOM     19  N   LIG    1        2.679   6.135   5.328  0.00  0.00    -0.480 NA
ENDBRANCH  12  15
ENDBRANCH   3   7
BRANCH   1  25
ATOM     20  C   LIG    1       -3.035   3.930  -1.850  0.00  0.00    +0.140 A 
ATOM     21  C   LIG    1       -3.992   4.462  -2.697  0.00  0.00    -0.080 A 
ATOM     22  C   LIG    1       -4.893   3.628  -3.334  0.00  0.00    +0.060 A 
ATOM     23  C   LIG    1       -4.842   2.263  -3.127  0.00  0.00    -0.020 A 
ATOM     24  C   LIG    1       -3.886   1.723  -2.287  0.00  0.00    +0.060 A 
ATOM     25  C   LIG    1       -2.983   2.553  -1.641  0.00  0.00    +0.100 A 
BRANCH  20  27
ATOM     26  C   LIG    1       -2.262   6.149  -1.484  0.00  0.00    +0.240 C 
ATOM     27  O   LIG    1       -2.149   4.748  -1.223  0.00  0.00    -0.300 OA
ENDBRANCH  20  27
ENDBRANCH   1  25
TORSDOF 4
