REMARK  Name = ZINCqH0000032fL0.1
REMARK                            x       y       z     vdW  Elec       q    Type
REMARK                         _______ _______ _______ _____ _____    ______ ____
ROOT
ATOM      1  N   LIG    1       -4.668   0.051   0.438  0.00  0.00    -0.660 NA
ATOM      2  H   LIG    1       -4.470   0.679   1.202  0.00  0.00    +0.350 HD
ENDROOT
BRANCH   1   3
ATOM      3  C   LIG    1       -3.559  -0.889   0.228  0.00  0.00    +0.220 C 
BRANCH   3   5
ATOM      4  N   LIG    1       -1.095  -0.788   0.031  0.00  0.00    -0.550 N 
ATOM      5  C   LIG    1       -2.265  -0.125   0.124  0.00  0.00    +0.510 C 
ATOM      6  O   LIG    1       -2.275   1.088   0.124  0.00  0.00    -0.500 OA
BRANCH   4   7
ATOM      7  C   LIG    1        0.113  -0.082   0.041  0.00  0.00    +0.150 A 
ATOM      8  C   LIG    1        0.108   1.305  -0.014  0.00  0.00    +0.010 A 
ATOM      9  C   LIG    1        1.302   1.999  -0.004  0.00  0.00    +0.020 A 
ATOM     10  C   LIG    1        2.501   1.314   0.061  0.00  0.00    -0.030 A 
ATOM     11  C   LIG    1        2.509  -0.068   0.116  0.00  0.00    +0.020 A 
ATOM     12  C   LIG    1        1.319  -0.768   0.106  0.00  0.00    -0.030 A 
ENDBRANCH   4   7
BRANCH   4  14
ATOM     13  C   LIG    1       -0.290  -2.663  -1.317  0.00  0.00    +0.040 C 
ATOM     14  C   LIG    1       -1.089  -2.249  -0.080  0.00  0.00    +0.220 C 
ATOM     15  C   LIG    1       -0.445  -2.853   1.170  0.00  0.00    +0.040 C 
ENDBRANCH   4  14
ENDBRANCH   3   5
ENDBRANCH   1   3
BRANCH   1  16
ATOM     16  C   LIG    1       -5.931  -0.665   0.660  0.00  0.00    +0.230 C 
BRANCH  16  17
ATOM     17  C   LIG    1       -6.104  -0.935   2.133  0.00  0.00    -0.110 A 
ATOM     18  C   LIG    1       -5.745   0.027   3.058  0.00  0.00    +0.000 A 
ATOM     19  C   LIG    1       -5.908  -0.218   4.409  0.00  0.00    +0.010 A 
ATOM     20  C   LIG    1       -6.420  -1.429   4.834  0.00  0.00    +0.000 A 
ATOM     21  C   LIG    1       -6.774  -2.394   3.909  0.00  0.00    +0.000 A 
ATOM     22  C   LIG    1       -6.615  -2.147   2.558  0.00  0.00    +0.010 A 
ENDBRANCH  16  17
BRANCH  16  23
ATOM     23  C   LIG    1       -7.097   0.189   0.158  0.00  0.00    -0.040 C 
ATOM     24  C   LIG    1       -8.419  -0.499   0.503  0.00  0.00    +0.030 C 
ATOM     25  C   LIG    1       -6.990   0.356  -1.359  0.00  0.00    +0.050 C 
BRANCH  23  26
ATOM     26  C   LIG    1       -7.047   1.564   0.827  0.00  0.00    +0.170 C 
BRANCH  26  27
ATOM     27  O   LIG    1       -8.136   2.361   0.358  0.00  0.00    -0.570 OA
ATOM     28  H   LIG    1       -8.167   3.249   0.741  0.00  0.00    +0.380 HD
ENDBRANCH  26  27
ENDBRANCH  23  26
ENDBRANCH  16  23
ENDBRANCH   1  16
TORSDOF 9
