REMARK  Name = ZINCpk00000e8VhC.0
REMARK                            x       y       z     vdW  Elec       q    Type
REMARK                         _______ _______ _______ _____ _____    ______ ____
ROOT
ATOM      1  C   LIG    1        0.599   6.463   2.272  0.00  0.00    +0.520 C 
ATOM      2  O   LIG    1        0.178   6.930   1.232  0.00  0.00    -0.500 OA
ENDROOT
BRANCH   1   5
ATOM      3  C   LIG    1        1.359   2.938   1.235  0.00  0.00    -0.070 A 
ATOM      4  C   LIG    1        0.961   4.255   1.181  0.00  0.00    +0.080 A 
ATOM      5  C   LIG    1        1.030   5.054   2.326  0.00  0.00    -0.090 A 
ATOM      6  C   LIG    1        1.513   4.515   3.522  0.00  0.00    +0.010 A 
ATOM      7  C   LIG    1        1.916   3.195   3.568  0.00  0.00    +0.100 A 
ATOM      8  C   LIG    1        1.839   2.402   2.423  0.00  0.00    +0.110 A 
BRANCH   7   9
ATOM      9  O   LIG    1        2.386   2.667   4.730  0.00  0.00    -0.300 OA
ATOM     10  C   LIG    1        2.437   3.536   5.863  0.00  0.00    +0.250 C 
ENDBRANCH   7   9
BRANCH   8  11
ATOM     11  O   LIG    1        2.235   1.104   2.470  0.00  0.00    -0.320 OA
ATOM     12  C   LIG    1        3.606   0.833   2.172  0.00  0.00    +0.230 C 
ENDBRANCH   8  11
BRANCH   3  13
ATOM     13  C   LIG    1        1.279   2.077   0.001  0.00  0.00    +0.120 C 
BRANCH  13  15
ATOM     14  C   LIG    1        0.002  -0.004   0.002  0.00  0.00    +0.020 C 
ATOM     15  C   LIG    1       -0.016   1.306   0.009  0.00  0.00    -0.040 C 
ENDBRANCH  13  15
ENDBRANCH   3  13
ENDBRANCH   1   5
BRANCH   1  16
ATOM     16  O   LIG    1        0.671   7.233   3.375  0.00  0.00    -0.320 OA
BRANCH  16  17
ATOM     17  C   LIG    1        0.230   8.611   3.248  0.00  0.00    +0.200 C 
ATOM     18  C   LIG    1        1.413   9.490   2.840  0.00  0.00    +0.070 C 
BRANCH  17  19
ATOM     19  C   LIG    1       -0.318   9.087   4.569  0.00  0.00    +0.520 C 
ATOM     20  N   LIG    1       -0.881  10.308   4.664  0.00  0.00    -0.690 N 
ATOM     21  H   LIG    1       -0.933  10.880   3.883  0.00  0.00    +0.410 HD
ATOM     22  C   LIG    1       -1.370  10.733   5.845  0.00  0.00    +0.690 C 
ATOM     23  N   LIG    1       -1.933  11.954   5.941  0.00  0.00    -0.740 N 
ATOM     24  H   LIG    1       -1.986  12.527   5.159  0.00  0.00    +0.400 HD
ATOM     25  C   LIG    1       -2.465  12.417   7.225  0.00  0.00    +0.300 C 
ATOM     26  O   LIG    1       -1.304  10.017   6.825  0.00  0.00    -0.530 OA
ATOM     27  O   LIG    1       -0.252   8.372   5.545  0.00  0.00    -0.440 OA
ENDBRANCH  17  19
ENDBRANCH  16  17
ENDBRANCH   1  16
TORSDOF 8
