REMARK  Name = ZINCpk00000KfLFa.0
REMARK                            x       y       z     vdW  Elec       q    Type
REMARK                         _______ _______ _______ _____ _____    ______ ____
ROOT
ATOM      1  C   LIG    1       -2.845  -2.671   2.905  0.00  0.00    +0.010 C 
ATOM      2  C   LIG    1       -3.336  -1.442   3.675  0.00  0.00    +0.040 C 
ATOM      3  C   LIG    1       -2.291  -0.329   3.566  0.00  0.00    +0.040 C 
ATOM      4  C   LIG    1       -2.046  -0.008   2.090  0.00  0.00    +0.160 C 
ATOM      5  N   LIG    1       -1.577  -1.215   1.397  0.00  0.00    -0.530 NA
ATOM      6  C   LIG    1       -2.584  -2.282   1.448  0.00  0.00    +0.190 C 
ENDROOT
BRANCH   1  11
ATOM      7  N   LIG    1       -3.913  -5.418   4.539  0.00  0.00    -0.580 N 
ATOM      8  C   LIG    1       -3.425  -5.931   3.404  0.00  0.00    +0.700 C 
ATOM      9  N   LIG    1       -3.386  -5.027   2.404  0.00  0.00    -0.720 N 
ATOM     10  H   LIG    1       -3.074  -5.175   1.498  0.00  0.00    +0.440 HD
ATOM     11  C   LIG    1       -3.910  -3.768   2.959  0.00  0.00    +0.130 C 
ATOM     12  C   LIG    1       -5.169  -3.331   2.208  0.00  0.00    +0.090 C 
ATOM     13  O   LIG    1       -3.061  -7.085   3.286  0.00  0.00    -0.540 OA
ATOM     14  C   LIG    1       -4.241  -4.118   4.397  0.00  0.00    +0.530 C 
ATOM     15  O   LIG    1       -4.704  -3.383   5.242  0.00  0.00    -0.460 OA
BRANCH   7  17
ATOM     16  C   LIG    1       -5.458  -6.819   5.816  0.00  0.00    +0.030 C 
ATOM     17  C   LIG    1       -4.071  -6.175   5.784  0.00  0.00    +0.310 C 
ENDBRANCH   7  17
ENDBRANCH   1  11
BRANCH   5  18
ATOM     18  C   LIG    1       -1.200  -0.912   0.009  0.00  0.00    +0.350 C 
BRANCH  18  19
ATOM     19  C   LIG    1        0.002  -0.004   0.002  0.00  0.00    +0.170 A 
ATOM     20  N   LIG    1        1.250  -0.378  -0.012  0.00  0.00    -0.260 NA
ATOM     21  N   LIG    1        2.007   0.663  -0.013  0.00  0.00    -0.290 NA
ATOM     22  C   LIG    1        1.268   1.736  -0.001  0.00  0.00    +0.200 A 
ATOM     23  O   LIG    1       -0.016   1.339   0.009  0.00  0.00    -0.220 OA
BRANCH  22  24
ATOM     24  C   LIG    1        1.762   3.159   0.002  0.00  0.00    +0.050 C 
ATOM     25  C   LIG    1        3.259   3.388  -0.218  0.00  0.00    +0.080 C 
ATOM     26  C   LIG    1        2.647   3.598   1.170  0.00  0.00    +0.060 C 
ENDBRANCH  22  24
ENDBRANCH  18  19
ENDBRANCH   5  18
TORSDOF 5
