REMARK  Name = ZINCrH000004v8GM.0
REMARK                            x       y       z     vdW  Elec       q    Type
REMARK                         _______ _______ _______ _____ _____    ______ ____
ROOT
ATOM      1  C   LIG    1       -2.357   2.644   3.688  0.00  0.00    +0.200 A 
ATOM      2  C   LIG    1       -2.672   1.468   3.019  0.00  0.00    -0.030 A 
ATOM      3  C   LIG    1       -1.949   1.097   1.901  0.00  0.00    +0.150 A 
ATOM      4  C   LIG    1       -0.914   1.895   1.449  0.00  0.00    -0.690 A 
ATOM      5  C   LIG    1       -0.595   3.063   2.117  0.00  0.00    +0.140 A 
ATOM      6  C   LIG    1       -1.317   3.442   3.232  0.00  0.00    +0.010 A 
ENDROOT
BRANCH   1   9
ATOM      7  O   LIG    1       -2.940   5.173   4.280  0.00  0.00    -0.490 OA
ATOM      8  C   LIG    1       -3.299   4.328   5.079  0.00  0.00    +0.560 C 
ATOM      9  N   LIG    1       -3.087   3.023   4.820  0.00  0.00    -0.670 N 
ATOM     10  H   LIG    1       -3.440   2.346   5.418  0.00  0.00    +0.410 HD
BRANCH   8  11
ATOM     11  C   LIG    1       -3.967   4.733   6.330  0.00  0.00    -0.190 A 
ATOM     12  C   LIG    1       -4.385   3.765   7.247  0.00  0.00    +0.120 A 
ATOM     13  C   LIG    1       -5.002   4.149   8.417  0.00  0.00    -0.020 A 
ATOM     14  C   LIG    1       -5.220   5.493   8.683  0.00  0.00    +0.170 A 
ATOM     15  C   LIG    1       -4.814   6.459   7.777  0.00  0.00    -0.040 A 
ATOM     16  F   LIG    1       -5.831   5.861   9.830  0.00  0.00    -0.120 F 
ATOM     17  C   LIG    1       -4.188   6.088   6.602  0.00  0.00    +0.200 A 
ATOM     18  F   LIG    1       -3.792   7.030   5.719  0.00  0.00    -0.100 F 
ENDBRANCH   8  11
ENDBRANCH   1   9
BRANCH   4  19
ATOM     19  S   LIG    1        0.005   1.418   0.024  0.00  0.00    +2.690 S 
ATOM     20  O   LIG    1        1.267   2.062   0.125  0.00  0.00    -0.950 OA
ATOM     21  O   LIG    1       -0.141   0.009  -0.095  0.00  0.00    -0.950 OA
BRANCH  19  22
ATOM     22  N   LIG    1       -0.753   2.079  -1.292  0.00  0.00    -0.990 NA
ATOM     23  C   LIG    1       -1.781   1.311  -1.958  0.00  0.00    +0.280 C 
ATOM     24  C   LIG    1       -1.150   0.431  -3.057  0.00  0.00    +0.010 C 
ATOM     25  C   LIG    1       -0.701   1.264  -4.183  0.00  0.00    +0.000 C 
ATOM     26  C   LIG    1        0.392   2.267  -3.826  0.00  0.00    +0.010 C 
ATOM     27  C   LIG    1       -0.240   3.520  -3.273  0.00  0.00    +0.020 C 
ATOM     28  C   LIG    1       -0.347   3.426  -1.740  0.00  0.00    +0.270 C 
ENDBRANCH  19  22
ENDBRANCH   4  19
TORSDOF 4
