REMARK  Name = ZINCtV00000L6jcK.0
REMARK                            x       y       z     vdW  Elec       q    Type
REMARK                         _______ _______ _______ _____ _____    ______ ____
ROOT
ATOM      1  C   LIG    1       -4.700   3.998   0.257  0.00  0.00    -0.260 A 
ATOM      2  C   LIG    1       -4.061   5.204   0.318  0.00  0.00    +0.080 A 
ATOM      3  O   LIG    1       -2.739   5.009   0.329  0.00  0.00    -0.160 OA
ATOM      4  C   LIG    1       -2.436   3.696   0.289  0.00  0.00    +0.030 A 
ATOM      5  C   LIG    1       -1.213   2.991   0.270  0.00  0.00    +0.010 A 
ATOM      6  C   LIG    1        0.016   3.667   0.311  0.00  0.00    +0.020 A 
ATOM      7  C   LIG    1        1.178   2.955   0.291  0.00  0.00    +0.030 A 
ATOM      8  C   LIG    1        1.163   1.565   0.230  0.00  0.00    +0.010 A 
ATOM      9  C   LIG    1       -0.013   0.878   0.189  0.00  0.00    +0.060 A 
ATOM     10  C   LIG    1       -1.229   1.579   0.202  0.00  0.00    -0.040 A 
ATOM     11  C   LIG    1       -2.463   0.884   0.151  0.00  0.00    +0.150 A 
ATOM     12  O   LIG    1       -2.447  -0.473   0.082  0.00  0.00    -0.300 OA
ATOM     13  C   LIG    1       -3.661  -1.161   0.395  0.00  0.00    +0.390 C 
ATOM     14  N   LIG    1       -4.760  -0.522  -0.350  0.00  0.00    -0.550 NA
ATOM     15  C   LIG    1       -4.957   0.853   0.128  0.00  0.00    +0.250 C 
ATOM     16  C   LIG    1       -3.634   1.576   0.168  0.00  0.00    -0.140 A 
ATOM     17  C   LIG    1       -4.742   6.547   0.366  0.00  0.00    +0.180 C 
ATOM     18  C   LIG    1       -3.627   2.981   0.229  0.00  0.00    -0.060 A 
ENDROOT
BRANCH   1  20
ATOM     19  C   LIG    1       -6.888   3.479   1.504  0.00  0.00    +0.070 C 
ATOM     20  C   LIG    1       -6.143   3.762   0.225  0.00  0.00    +0.430 C 
ATOM     21  O   LIG    1       -6.740   3.794  -0.831  0.00  0.00    -0.440 OA
ENDBRANCH   1  20
BRANCH  14  22
ATOM     22  C   LIG    1       -5.998  -1.303  -0.233  0.00  0.00    +0.190 C 
ATOM     23  C   LIG    1       -5.785  -2.691  -0.841  0.00  0.00    +0.050 C 
BRANCH  22  24
ATOM     24  C   LIG    1       -7.108  -0.598  -0.969  0.00  0.00    -0.090 A 
ATOM     25  C   LIG    1       -6.888  -0.101  -2.240  0.00  0.00    +0.040 A 
ATOM     26  C   LIG    1       -7.908   0.542  -2.917  0.00  0.00    +0.000 A 
ATOM     27  C   LIG    1       -9.144   0.697  -2.318  0.00  0.00    +0.010 A 
ATOM     28  C   LIG    1       -9.363   0.205  -1.045  0.00  0.00    +0.000 A 
ATOM     29  C   LIG    1       -8.345  -0.442  -0.370  0.00  0.00    +0.000 A 
ENDBRANCH  22  24
ENDBRANCH  14  22
TORSDOF 3
