REMARK  Name = ZINCtV00000vpZly.0
REMARK                            x       y       z     vdW  Elec       q    Type
REMARK                         _______ _______ _______ _____ _____    ______ ____
ROOT
ATOM      1  N   LIG    1       -4.697   5.689   2.008  0.00  0.00    -0.740 N 
ATOM      2  H   LIG    1       -4.461   5.451   2.918  0.00  0.00    +0.390 HD
ATOM      3  C   LIG    1       -3.748   5.718   1.052  0.00  0.00    +0.700 C 
ATOM      4  N   LIG    1       -2.471   5.417   1.360  0.00  0.00    -0.740 N 
ATOM      5  H   LIG    1       -2.235   5.179   2.270  0.00  0.00    +0.400 HD
ATOM      6  O   LIG    1       -4.044   6.016  -0.089  0.00  0.00    -0.580 OA
ENDROOT
BRANCH   4   7
ATOM      7  C   LIG    1       -1.439   5.448   0.321  0.00  0.00    +0.270 C 
ATOM      8  C   LIG    1       -0.763   6.832   0.291  0.00  0.00    +0.010 C 
ATOM      9  C   LIG    1        0.732   6.599   0.594  0.00  0.00    +0.020 C 
ATOM     10  C   LIG    1        0.758   5.257   1.367  0.00  0.00    +0.010 C 
ATOM     11  C   LIG    1       -0.331   4.426   0.645  0.00  0.00    +0.030 C 
BRANCH  11  12
ATOM     12  C   LIG    1       -0.859   3.346   1.553  0.00  0.00    -0.030 A 
ATOM     13  C   LIG    1       -2.218   3.101   1.619  0.00  0.00    +0.030 A 
ATOM     14  C   LIG    1       -2.703   2.110   2.452  0.00  0.00    +0.040 A 
ATOM     15  C   LIG    1       -1.828   1.364   3.220  0.00  0.00    +0.010 A 
ATOM     16  C   LIG    1       -0.469   1.605   3.151  0.00  0.00    +0.070 A 
ATOM     17  C   LIG    1        0.015   2.599   2.322  0.00  0.00    -0.180 A 
BRANCH  17  18
ATOM     18  C   LIG    1        1.497   2.866   2.250  0.00  0.00    +0.510 C 
ATOM     19  F   LIG    1        1.881   3.006   0.912  0.00  0.00    -0.170 F 
ATOM     20  F   LIG    1        1.793   4.043   2.946  0.00  0.00    -0.170 F 
ATOM     21  F   LIG    1        2.191   1.797   2.825  0.00  0.00    -0.180 F 
ENDBRANCH  17  18
ENDBRANCH  11  12
ENDBRANCH   4   7
BRANCH   1  23
ATOM     22  C   LIG    1       -6.172   7.480   1.234  0.00  0.00    +0.050 C 
ATOM     23  C   LIG    1       -6.085   6.017   1.673  0.00  0.00    +0.240 C 
ATOM     24  C   LIG    1       -6.562   5.113   0.534  0.00  0.00    +0.050 C 
BRANCH  23  25
ATOM     25  C   LIG    1       -6.958   5.803   2.882  0.00  0.00    -0.080 A 
ATOM     26  C   LIG    1       -8.254   5.347   2.728  0.00  0.00    +0.040 A 
ATOM     27  C   LIG    1       -9.053   5.146   3.837  0.00  0.00    +0.030 A 
ATOM     28  C   LIG    1       -8.560   5.411   5.102  0.00  0.00    -0.030 A 
ATOM     29  C   LIG    1       -7.264   5.872   5.256  0.00  0.00    +0.030 A 
ATOM     30 CL   LIG    1       -9.565   5.164   6.496  0.00  0.00    -0.070 Cl
ATOM     31  C   LIG    1       -6.464   6.068   4.146  0.00  0.00    +0.030 A 
ENDBRANCH  23  25
ENDBRANCH   1  23
TORSDOF 5
