REMARK  Name = ZINCrH000004tRdO.0
REMARK                            x       y       z     vdW  Elec       q    Type
REMARK                         _______ _______ _______ _____ _____    ______ ____
ROOT
ATOM      1  C   LIG    1        8.956   0.901  -0.412  0.00  0.00    +0.140 A 
ATOM      2  C   LIG    1        9.210   2.266  -0.407  0.00  0.00    +0.000 A 
ATOM      3  C   LIG    1       10.508   2.727  -0.509  0.00  0.00    +0.020 A 
ATOM      4  C   LIG    1       11.557   1.825  -0.629  0.00  0.00    +0.150 A 
ATOM      5  C   LIG    1       11.302   0.460  -0.640  0.00  0.00    +0.030 A 
ATOM      6  C   LIG    1       10.005  -0.001  -0.532  0.00  0.00    +0.040 A 
ENDROOT
BRANCH   4   7
ATOM      7  N   LIG    1       12.872   2.292  -0.739  0.00  0.00    -0.580 N 
ATOM      8  C   LIG    1       13.925   2.075   0.257  0.00  0.00    +0.260 C 
ATOM      9  C   LIG    1       15.171   2.770  -0.318  0.00  0.00    +0.100 C 
ATOM     10  C   LIG    1       14.708   3.354  -1.633  0.00  0.00    -0.170 A 
ATOM     11  C   LIG    1       15.385   4.089  -2.587  0.00  0.00    +0.060 A 
ATOM     12  C   LIG    1       14.731   4.517  -3.728  0.00  0.00    -0.050 A 
ATOM     13  C   LIG    1       13.396   4.206  -3.913  0.00  0.00    +0.040 A 
ATOM     14  C   LIG    1       12.716   3.472  -2.964  0.00  0.00    -0.050 A 
ATOM     15  C   LIG    1       13.369   3.037  -1.809  0.00  0.00    +0.190 A 
ENDBRANCH   4   7
BRANCH   1  18
ATOM     16  O   LIG    1        8.280  -1.293   0.936  0.00  0.00    -0.490 OA
ATOM     17  C   LIG    1        7.385  -0.714   0.357  0.00  0.00    +0.540 C 
ATOM     18  N   LIG    1        7.640   0.433  -0.302  0.00  0.00    -0.670 N 
ATOM     19  H   LIG    1        6.912   0.935  -0.702  0.00  0.00    +0.410 HD
BRANCH  17  20
ATOM     20  C   LIG    1        5.988  -1.278   0.376  0.00  0.00    +0.070 C 
BRANCH  20  21
ATOM     21  S   LIG    1        5.969  -2.816   1.338  0.00  0.00    +0.110 S 
BRANCH  21  22
ATOM     22  C   LIG    1        4.283  -3.320   1.248  0.00  0.00    +0.050 C 
ATOM     23  C   LIG    1        3.444  -2.753   0.295  0.00  0.00    +0.020 C 
ATOM     24  C   LIG    1        2.122  -3.157   0.236  0.00  0.00    +0.100 C 
ATOM     25  C   LIG    1        1.682  -4.118   1.136  0.00  0.00    +0.040 C 
ATOM     26  C   LIG    1        2.569  -4.639   2.058  0.00  0.00    +0.290 C 
ATOM     27  N   LIG    1        3.825  -4.235   2.091  0.00  0.00    -0.110 NA
ATOM     28  O   LIG    1        4.705  -4.793   3.050  0.00  0.00    -0.530 OA
ENDBRANCH  21  22
ENDBRANCH  20  21
ENDBRANCH  17  20
ENDBRANCH   1  18
TORSDOF 5
