REMARK  Name = ZINCrH00000No4R4.0
REMARK                            x       y       z     vdW  Elec       q    Type
REMARK                         _______ _______ _______ _____ _____    ______ ____
ROOT
ATOM      1  N   LIG    1       -1.340  -0.655  -0.080  0.00  0.00    -0.670 N 
ATOM      2  H   LIG    1       -2.188  -0.191   0.000  0.00  0.00    +0.410 HD
ATOM      3  C   LIG    1       -1.316  -1.995  -0.218  0.00  0.00    +0.550 C 
ATOM      4  O   LIG    1       -0.260  -2.568  -0.416  0.00  0.00    -0.520 OA
ENDROOT
BRANCH   1  12
ATOM      5  C   LIG    1        5.329   3.704  -0.214  0.00  0.00    +0.110 C 
ATOM      6  C   LIG    1        3.890   3.268  -0.313  0.00  0.00    +0.520 C 
ATOM      7  N   LIG    1        3.522   2.051   0.135  0.00  0.00    -0.560 N 
ATOM      8  C   LIG    1        4.404   1.109   0.830  0.00  0.00    +0.280 C 
ATOM      9  C   LIG    1        3.529  -0.118   1.130  0.00  0.00    +0.090 C 
ATOM     10  C   LIG    1        2.171   0.234   0.563  0.00  0.00    -0.120 A 
ATOM     11  C   LIG    1        0.990  -0.480   0.537  0.00  0.00    +0.060 A 
ATOM     12  C   LIG    1       -0.142   0.068  -0.052  0.00  0.00    +0.130 A 
ATOM     13  C   LIG    1       -0.079   1.336  -0.614  0.00  0.00    +0.010 A 
ATOM     14  C   LIG    1        1.101   2.047  -0.587  0.00  0.00    +0.030 A 
ATOM     15  C   LIG    1        2.242   1.500   0.004  0.00  0.00    +0.130 A 
ATOM     16  O   LIG    1        3.063   4.011  -0.796  0.00  0.00    -0.520 OA
ENDBRANCH   1  12
BRANCH   3  17
ATOM     17  C   LIG    1       -2.558  -2.762  -0.129  0.00  0.00    -0.090 C 
ATOM     18  C   LIG    1       -2.533  -4.106  -0.268  0.00  0.00    +0.160 C 
BRANCH  18  19
ATOM     19  C   LIG    1       -3.780  -4.875  -0.179  0.00  0.00    -0.060 A 
ATOM     20  C   LIG    1       -4.994  -4.236   0.052  0.00  0.00    +0.060 A 
ATOM     21  C   LIG    1       -6.172  -4.964   0.130  0.00  0.00    +0.010 A 
ATOM     22  C   LIG    1       -6.188  -6.319  -0.004  0.00  0.00    +0.050 A 
ATOM     23  C   LIG    1       -4.999  -7.030  -0.234  0.00  0.00    -0.110 A 
ATOM     24  C   LIG    1       -4.996  -8.430  -0.374  0.00  0.00    +0.090 A 
ATOM     25  C   LIG    1       -3.800  -9.054  -0.595  0.00  0.00    -0.040 A 
ATOM     26  C   LIG    1       -2.630  -8.304  -0.675  0.00  0.00    +0.300 A 
ATOM     27  N   LIG    1       -2.638  -6.998  -0.544  0.00  0.00    -0.470 NA
ATOM     28  C   LIG    1       -3.770  -6.332  -0.327  0.00  0.00    +0.150 A 
ENDBRANCH  18  19
ENDBRANCH   3  17
TORSDOF 3
