REMARK  Name = ZINCAx0000000g0E.0
REMARK                            x       y       z     vdW  Elec       q    Type
REMARK                         _______ _______ _______ _____ _____    ______ ____
ROOT
ATOM      1  C   LIG    1       -0.821   1.961   3.917  0.00  0.00    +0.120 A 
ATOM      2  C   LIG    1       -1.569   3.131   3.882  0.00  0.00    +0.100 A 
ATOM      3  C   LIG    1       -1.767   3.788   2.684  0.00  0.00    -0.010 A 
ATOM      4  C   LIG    1       -1.218   3.279   1.514  0.00  0.00    +0.180 A 
ATOM      5  C   LIG    1       -0.470   2.109   1.549  0.00  0.00    -0.640 A 
ATOM      6  C   LIG    1       -0.277   1.449   2.745  0.00  0.00    +0.120 A 
ENDROOT
BRANCH   4   7
ATOM      7  N   LIG    1       -1.419   3.945   0.300  0.00  0.00    -0.500 N 
ATOM      8  C   LIG    1       -2.864   4.184   0.056  0.00  0.00    +0.200 C 
ATOM      9  C   LIG    1       -2.863   5.335  -0.981  0.00  0.00    +0.040 C 
ATOM     10  C   LIG    1       -1.680   6.216  -0.519  0.00  0.00    +0.020 C 
ATOM     11  C   LIG    1       -0.787   5.282   0.319  0.00  0.00    +0.190 C 
ENDBRANCH   4   7
BRANCH   1  13
ATOM     12  C   LIG    1       -1.586   1.301   6.071  0.00  0.00    +0.570 C 
ATOM     13  N   LIG    1       -0.620   1.295   5.131  0.00  0.00    -0.660 N 
ATOM     14  H   LIG    1        0.214   0.828   5.296  0.00  0.00    +0.410 HD
ATOM     15  O   LIG    1       -2.665   1.807   5.830  0.00  0.00    -0.480 OA
BRANCH  12  19
ATOM     16  O   LIG    1       -2.846   0.061  10.531  0.00  0.00    -0.480 OA
ATOM     17  C   LIG    1       -2.007   0.080   9.650  0.00  0.00    +0.550 A 
ATOM     18  C   LIG    1       -2.303   0.695   8.351  0.00  0.00    +0.010 A 
ATOM     19  C   LIG    1       -1.333   0.692   7.398  0.00  0.00    +0.130 A 
ATOM     20  N   LIG    1       -0.114   0.112   7.676  0.00  0.00    -0.640 N 
ATOM     21  H   LIG    1        0.577   0.106   6.995  0.00  0.00    +0.430 HD
ATOM     22  C   LIG    1        0.136  -0.441   8.875  0.00  0.00    +0.710 A 
ATOM     23  O   LIG    1        1.226  -0.938   9.081  0.00  0.00    -0.530 OA
ATOM     24  N   LIG    1       -0.789  -0.463   9.850  0.00  0.00    -0.650 N 
ATOM     25  H   LIG    1       -0.579  -0.873  10.704  0.00  0.00    +0.440 HD
ENDBRANCH  12  19
ENDBRANCH   1  13
BRANCH   5  26
ATOM     26  S   LIG    1        0.226   1.464   0.064  0.00  0.00    +2.700 S 
ATOM     27  O   LIG    1        0.960   0.306   0.436  0.00  0.00    -0.950 OA
ATOM     28  O   LIG    1       -0.821   1.446  -0.895  0.00  0.00    -0.920 OA
BRANCH  26  29
ATOM     29  N   LIG    1        1.337   2.568  -0.476  0.00  0.00    -1.050 N 
ATOM     30  H   LIG    1        1.179   3.050  -1.303  0.00  0.00    +0.430 HD
BRANCH  29  31
ATOM     31  C   LIG    1        2.501   2.805   0.259  0.00  0.00    +0.170 A 
ATOM     32  C   LIG    1        2.432   2.975   1.635  0.00  0.00    +0.000 A 
ATOM     33  C   LIG    1        3.586   3.205   2.359  0.00  0.00    +0.050 A 
ATOM     34  C   LIG    1        4.806   3.275   1.714  0.00  0.00    +0.060 A 
ATOM     35  C   LIG    1        4.878   3.111   0.343  0.00  0.00    -0.160 A 
ATOM     36  C   LIG    1        3.729   2.876  -0.387  0.00  0.00    +0.070 A 
BRANCH  35  37
ATOM     37  C   LIG    1        6.210   3.188  -0.356  0.00  0.00    +0.510 C 
ATOM     38  F   LIG    1        6.189   2.372  -1.493  0.00  0.00    -0.170 F 
ATOM     39  F   LIG    1        7.218   2.753   0.511  0.00  0.00    -0.170 F 
ATOM     40  F   LIG    1        6.462   4.510  -0.737  0.00  0.00    -0.170 F 
ENDBRANCH  35  37
ENDBRANCH  29  31
ENDBRANCH  26  29
ENDBRANCH   5  26
TORSDOF 7
