REMARK  Name = ZINCrH000004rKti.0
REMARK                            x       y       z     vdW  Elec       q    Type
REMARK                         _______ _______ _______ _____ _____    ______ ____
ROOT
ATOM      1  C   LIG    1       -3.259  -0.827   3.288  0.00  0.00    +0.030 C 
ATOM      2  C   LIG    1       -3.355  -2.106   2.453  0.00  0.00    +0.090 C 
ENDROOT
BRANCH   1   3
ATOM      3  C   LIG    1       -2.807  -1.171   4.684  0.00  0.00    +0.530 C 
ATOM      4  N   LIG    1       -3.693  -1.649   5.580  0.00  0.00    -0.610 N 
ATOM      5  H   LIG    1       -4.621  -1.772   5.327  0.00  0.00    +0.440 HD
ATOM      6  O   LIG    1       -1.647  -1.017   5.001  0.00  0.00    -0.490 OA
BRANCH   4   7
ATOM      7  C   LIG    1       -3.277  -1.965   6.865  0.00  0.00    +0.080 A 
ATOM      8  C   LIG    1       -4.096  -2.451   7.851  0.00  0.00    -0.240 A 
ATOM      9  C   LIG    1       -3.394  -2.697   9.091  0.00  0.00    +0.060 A 
ATOM     10  C   LIG    1       -2.105  -2.394   9.030  0.00  0.00    -0.110 A 
ATOM     11  S   LIG    1       -1.681  -1.796   7.436  0.00  0.00    +0.300 S 
BRANCH   8  12
ATOM     12  C   LIG    1       -5.529  -2.700   7.667  0.00  0.00    +0.590 C 
ATOM     13  O   LIG    1       -6.053  -2.473   6.592  0.00  0.00    -0.560 OA
ATOM     14  N   LIG    1       -6.266  -3.179   8.688  0.00  0.00    -0.850 N 
ATOM     15  H   LIG    1       -7.215  -3.344   8.566  0.00  0.00    +0.410 HD
ATOM     16  H   LIG    1       -5.849  -3.360   9.545  0.00  0.00    +0.400 HD
ENDBRANCH   8  12
ENDBRANCH   4   7
ENDBRANCH   1   3
BRANCH   1  17
ATOM     17  S   LIG    1       -2.065   0.301   2.528  0.00  0.00    +0.070 S 
BRANCH  17  22
ATOM     18  N   LIG    1       -2.435   1.466   0.021  0.00  0.00    -0.390 N 
ATOM     19  C   LIG    1       -3.387   1.460  -0.976  0.00  0.00    +0.140 A 
ATOM     20  C   LIG    1       -4.374   0.643  -0.571  0.00  0.00    +0.170 A 
ATOM     21  N   LIG    1       -4.055   0.162   0.643  0.00  0.00    -0.480 NA
ATOM     22  C   LIG    1       -2.893   0.647   1.012  0.00  0.00    +0.180 A 
BRANCH  18  28
ATOM     23  C   LIG    1        2.483   1.475  -0.014  0.00  0.00    +0.090 C 
ATOM     24  C   LIG    1        1.168   2.210   0.003  0.00  0.00    -0.070 A 
ATOM     25  C   LIG    1        1.150   3.593   0.011  0.00  0.00    +0.030 A 
ATOM     26  C   LIG    1       -0.055   4.271   0.026  0.00  0.00    +0.020 A 
ATOM     27  C   LIG    1       -1.244   3.569   0.033  0.00  0.00    +0.030 A 
ATOM     28  C   LIG    1       -1.229   2.181   0.020  0.00  0.00    +0.100 A 
ATOM     29  C   LIG    1       -0.018   1.503   0.010  0.00  0.00    -0.060 A 
ATOM     30  C   LIG    1        0.002  -0.004   0.002  0.00  0.00    +0.100 C 
ENDBRANCH  18  28
ENDBRANCH  17  22
ENDBRANCH   1  17
TORSDOF 6
