REMARK  Name = ZINCpe000000XniY.0
REMARK                            x       y       z     vdW  Elec       q    Type
REMARK                         _______ _______ _______ _____ _____    ______ ____
ROOT
ATOM      1  N   LIG    1        1.375  -3.892  -1.698  0.00  0.00    -0.720 N 
ATOM      2  H   LIG    1        1.416  -4.525  -0.964  0.00  0.00    +0.410 HD
ATOM      3  C   LIG    1        1.305  -2.570  -1.444  0.00  0.00    +0.500 C 
ATOM      4  O   LIG    1        1.253  -1.779  -2.362  0.00  0.00    -0.530 OA
ENDROOT
BRANCH   1   5
ATOM      5  C   LIG    1        1.388  -4.373  -3.082  0.00  0.00    +0.290 C 
BRANCH   5   6
ATOM      6  C   LIG    1        1.471  -5.900  -3.090  0.00  0.00    +0.180 C 
BRANCH   6   7
ATOM      7  O   LIG    1        0.284  -6.446  -2.512  0.00  0.00    -0.380 OA
BRANCH   7  14
ATOM      8  C   LIG    1       -1.799  -7.880  -3.886  0.00  0.00    +0.020 C 
ATOM      9  C   LIG    1       -1.187  -8.363  -2.570  0.00  0.00    -0.010 C 
ATOM     10  C   LIG    1       -1.212  -9.892  -2.527  0.00  0.00    +0.020 C 
ATOM     11  C   LIG    1       -0.599 -10.375  -1.211  0.00  0.00    +0.000 C 
ATOM     12  C   LIG    1        0.847  -9.886  -1.112  0.00  0.00    +0.010 C 
ATOM     13  C   LIG    1        0.873  -8.357  -1.155  0.00  0.00    -0.010 C 
ATOM     14  C   LIG    1        0.260  -7.874  -2.471  0.00  0.00    +0.160 C 
ENDBRANCH   7  14
ENDBRANCH   6   7
ENDBRANCH   5   6
ENDBRANCH   1   5
BRANCH   3  15
ATOM     15  C   LIG    1        1.291  -2.076  -0.021  0.00  0.00    +0.340 C 
BRANCH  15  16
ATOM     16  N   LIG    1        1.211  -0.613  -0.013  0.00  0.00    -0.530 N 
ATOM     17  C   LIG    1        2.349   0.126  -0.020  0.00  0.00    +0.630 A 
ATOM     18  N   LIG    1        2.350   1.427  -0.013  0.00  0.00    -0.530 NA
ATOM     19  C   LIG    1        1.211   2.137   0.002  0.00  0.00    +0.330 A 
ATOM     20  C   LIG    1       -0.018   1.459   0.010  0.00  0.00    -0.340 A 
ATOM     21  C   LIG    1       -1.033   2.433   0.019  0.00  0.00    +0.330 A 
ATOM     22  N   LIG    1       -0.471   3.611   0.025  0.00  0.00    -0.270 NA
ATOM     23  N   LIG    1        0.922   3.464   0.011  0.00  0.00    -0.350 N 
ATOM     24  C   LIG    1        1.900   4.555   0.009  0.00  0.00    +0.360 C 
ATOM     25  C   LIG    1        0.002  -0.004   0.002  0.00  0.00    +0.580 A 
ATOM     26  O   LIG    1       -1.031  -0.650   0.009  0.00  0.00    -0.510 OA
ENDBRANCH  15  16
ENDBRANCH   3  15
TORSDOF 6
