REMARK  Name = ZINCrH00000tj13a.0
REMARK                            x       y       z     vdW  Elec       q    Type
REMARK                         _______ _______ _______ _____ _____    ______ ____
ROOT
ATOM      1  C   LIG    1        6.294   0.435  -0.035  0.00  0.00    +0.180 A 
ATOM      2  C   LIG    1        5.548  -0.696  -0.348  0.00  0.00    -0.010 A 
ATOM      3  C   LIG    1        4.171  -0.642  -0.330  0.00  0.00    +0.090 A 
ATOM      4  C   LIG    1        3.526   0.550   0.003  0.00  0.00    -0.030 A 
ATOM      5  C   LIG    1        4.277   1.685   0.312  0.00  0.00    +0.040 A 
ATOM      6  C   LIG    1        5.654   1.623   0.297  0.00  0.00    +0.030 A 
ENDROOT
BRANCH   4   7
ATOM      7  C   LIG    1        2.049   0.612   0.024  0.00  0.00    +0.220 A 
ATOM      8  N   LIG    1        1.218  -0.412   0.024  0.00  0.00    -0.280 NA
ATOM      9  N   LIG    1        0.002   0.013   0.045  0.00  0.00    -0.290 NA
ATOM     10  C   LIG    1       -0.013   1.312   0.061  0.00  0.00    +0.180 A 
ATOM     11  C   LIG    1       -1.202   2.239   0.095  0.00  0.00    +0.170 C 
ATOM     12  C   LIG    1       -0.709   3.634   0.501  0.00  0.00    +0.030 C 
ATOM     13  C   LIG    1        0.509   4.010  -0.348  0.00  0.00    +0.040 C 
ATOM     14  C   LIG    1        1.704   3.137   0.051  0.00  0.00    +0.290 C 
ATOM     15  N   LIG    1        1.283   1.736   0.045  0.00  0.00    -0.470 N 
ENDBRANCH   4   7
BRANCH   1  18
ATOM     16  N   LIG    1        9.745   1.362  -0.563  0.00  0.00    -0.620 N 
ATOM     17  C   LIG    1        8.404   1.447  -0.456  0.00  0.00    +0.710 C 
ATOM     18  N   LIG    1        7.691   0.376  -0.055  0.00  0.00    -0.680 N 
ATOM     19  H   LIG    1        8.146  -0.435   0.220  0.00  0.00    +0.410 HD
ATOM     20  O   LIG    1        7.838   2.490  -0.721  0.00  0.00    -0.560 OA
ATOM     21  C   LIG    1       10.427   0.105  -0.243  0.00  0.00    +0.290 C 
BRANCH  16  22
ATOM     22  C   LIG    1       10.521   2.526  -0.998  0.00  0.00    +0.410 C 
BRANCH  22  27
ATOM     23  C   LIG    1       11.163   5.914   3.199  0.00  0.00    +0.180 C 
ATOM     24  C   LIG    1       11.206   4.879   2.104  0.00  0.00    +0.040 A 
ATOM     25  N   LIG    1       12.162   4.031   1.927  0.00  0.00    -0.480 NA
ATOM     26  C   LIG    1       12.041   3.192   0.918  0.00  0.00    +0.220 A 
ATOM     27  C   LIG    1       10.921   3.341   0.204  0.00  0.00    -0.260 A 
ATOM     28  S   LIG    1        9.999   4.665   0.912  0.00  0.00    +0.160 S 
ENDBRANCH  22  27
ENDBRANCH  16  22
ENDBRANCH   1  18
TORSDOF 4
