REMARK  Name = ZINCpe000000V3gK.0
REMARK                            x       y       z     vdW  Elec       q    Type
REMARK                         _______ _______ _______ _____ _____    ______ ____
ROOT
ATOM      1  C   LIG    1        0.442  -6.434  -0.537  0.00  0.00    +0.010 C 
ATOM      2  C   LIG    1        1.944  -6.105  -0.709  0.00  0.00    +0.100 C 
ATOM      3  C   LIG    1        1.990  -4.593  -0.745  0.00  0.00    +0.520 C 
ATOM      4  N   LIG    1        0.839  -4.084  -0.273  0.00  0.00    -0.550 N 
ATOM      5  O   LIG    1        2.930  -3.937  -1.141  0.00  0.00    -0.500 OA
ATOM      6  C   LIG    1       -0.085  -5.146   0.139  0.00  0.00    +0.310 C 
ENDROOT
BRANCH   4   7
ATOM      7  C   LIG    1        0.560  -2.714  -0.182  0.00  0.00    +0.180 A 
ATOM      8  C   LIG    1        1.546  -1.783  -0.481  0.00  0.00    +0.030 A 
ATOM      9  C   LIG    1        1.271  -0.431  -0.393  0.00  0.00    +0.070 A 
ATOM     10  C   LIG    1        0.013  -0.001  -0.004  0.00  0.00    +0.010 A 
ATOM     11  O   LIG    1       -0.503   1.252   0.161  0.00  0.00    -0.310 OA
ATOM     12  C   LIG    1       -1.933   1.081   0.169  0.00  0.00    +0.430 C 
ATOM     13  O   LIG    1       -2.114  -0.263   0.650  0.00  0.00    -0.310 OA
ATOM     14  C   LIG    1       -0.978  -0.933   0.298  0.00  0.00    +0.060 A 
ATOM     15  C   LIG    1       -0.702  -2.287   0.208  0.00  0.00    +0.000 A 
ENDBRANCH   4   7
BRANCH   1  18
ATOM     16  N   LIG    1        0.761  -8.825   0.011  0.00  0.00    -0.720 N 
ATOM     17  H   LIG    1        1.252  -8.918  -0.821  0.00  0.00    +0.410 HD
ATOM     18  C   LIG    1        0.251  -7.628   0.363  0.00  0.00    +0.540 C 
ATOM     19  O   LIG    1       -0.361  -7.511   1.403  0.00  0.00    -0.520 OA
BRANCH  16  20
ATOM     20  C   LIG    1        0.576  -9.985   0.886  0.00  0.00    +0.190 C 
ATOM     21  C   LIG    1       -0.919 -10.258   1.061  0.00  0.00    +0.080 C 
ATOM     22  C   LIG    1        1.206  -9.702   2.251  0.00  0.00    +0.080 C 
BRANCH  20  23
ATOM     23  C   LIG    1        1.237 -11.191   0.268  0.00  0.00    +0.460 C 
ATOM     24  O   LIG    1        1.764 -12.018   0.973  0.00  0.00    -0.490 OA
BRANCH  23  26
ATOM     25  C   LIG    1        1.895 -12.529  -1.591  0.00  0.00    +0.280 C 
ATOM     26  O   LIG    1        1.240 -11.345  -1.065  0.00  0.00    -0.360 OA
ENDBRANCH  23  26
ENDBRANCH  20  23
ENDBRANCH  16  20
ENDBRANCH   1  18
TORSDOF 5
