REMARK  Name = ZINCrD000000ByGs.0
REMARK                            x       y       z     vdW  Elec       q    Type
REMARK                         _______ _______ _______ _____ _____    ______ ____
ROOT
ATOM      1  N   LIG    1       -3.969   3.527  -0.501  0.00  0.00    -0.520 N 
ATOM      2  H   LIG    1       -3.668   4.424  -0.288  0.00  0.00    +0.440 HD
ATOM      3  C   LIG    1       -3.072   2.569  -0.804  0.00  0.00    +0.530 C 
ATOM      4  O   LIG    1       -3.451   1.473  -1.159  0.00  0.00    -0.520 OA
ENDROOT
BRANCH   3   5
ATOM      5  C   LIG    1       -1.596   2.859  -0.703  0.00  0.00    -0.030 C 
ATOM      6  C   LIG    1       -0.788   1.572  -0.948  0.00  0.00    +0.070 C 
ATOM      7  C   LIG    1        0.024   1.310   0.337  0.00  0.00    +0.020 C 
ATOM      8  C   LIG    1       -0.765   2.049   1.446  0.00  0.00    +0.020 C 
ATOM      9  C   LIG    1       -1.247   3.333   0.723  0.00  0.00    +0.040 C 
BRANCH   5  10
ATOM     10  C   LIG    1       -1.207   3.912  -1.708  0.00  0.00    -0.060 A 
ATOM     11  C   LIG    1       -2.126   4.344  -2.646  0.00  0.00    +0.010 A 
ATOM     12  C   LIG    1       -1.771   5.315  -3.565  0.00  0.00    +0.040 A 
ATOM     13  C   LIG    1       -0.495   5.846  -3.552  0.00  0.00    +0.030 A 
ATOM     14  C   LIG    1        0.426   5.410  -2.616  0.00  0.00    -0.030 A 
ATOM     15 CL   LIG    1        2.029   6.076  -2.599  0.00  0.00    -0.060 Cl
ATOM     16  C   LIG    1        0.069   4.442  -1.694  0.00  0.00    +0.040 A 
ENDBRANCH   5  10
ENDBRANCH   3   5
BRANCH   1  19
ATOM     17  O   LIG    1       -5.859   5.308   0.075  0.00  0.00    -0.510 OA
ATOM     18  C   LIG    1       -6.236   4.187  -0.191  0.00  0.00    +0.520 C 
ATOM     19  N   LIG    1       -5.338   3.228  -0.494  0.00  0.00    -0.520 N 
ATOM     20  H   LIG    1       -5.640   2.332  -0.708  0.00  0.00    +0.430 HD
BRANCH  18  21
ATOM     21  C   LIG    1       -7.708   3.865  -0.184  0.00  0.00    +0.200 C 
ATOM     22  C   LIG    1       -8.224   3.625  -1.623  0.00  0.00    +0.110 C 
ATOM     23  C   LIG    1       -9.613   4.231  -1.563  0.00  0.00    -0.170 A 
ATOM     24  C   LIG    1      -10.708   4.115  -2.389  0.00  0.00    +0.060 A 
ATOM     25  C   LIG    1      -11.882   4.778  -2.077  0.00  0.00    -0.010 A 
ATOM     26  C   LIG    1      -11.950   5.555  -0.936  0.00  0.00    +0.050 A 
ATOM     27  C   LIG    1      -10.852   5.676  -0.110  0.00  0.00    +0.000 A 
ATOM     28  C   LIG    1       -9.665   5.016  -0.418  0.00  0.00    +0.100 A 
ATOM     29  O   LIG    1       -8.476   5.003   0.243  0.00  0.00    -0.270 OA
ENDBRANCH  18  21
ENDBRANCH   1  19
TORSDOF 4
