REMARK  Name = ZINCrD000006OIxl.0
REMARK                            x       y       z     vdW  Elec       q    Type
REMARK                         _______ _______ _______ _____ _____    ______ ____
ROOT
ATOM      1  N   LIG    1       -4.950   3.934   0.077  0.00  0.00    -0.490 N 
ATOM      2  C   LIG    1       -5.791   3.524  -1.055  0.00  0.00    +0.220 C 
ATOM      3  C   LIG    1       -7.175   4.169  -0.919  0.00  0.00    +0.290 C 
ATOM      4  N   LIG    1       -7.001   5.621  -0.767  0.00  0.00    -0.530 N 
ATOM      5  C   LIG    1       -6.066   6.107   0.259  0.00  0.00    +0.330 C 
ATOM      6  C   LIG    1       -4.726   5.386   0.076  0.00  0.00    +0.210 C 
ENDROOT
BRANCH   1  10
ATOM      7  C   LIG    1       -1.347   1.873   0.077  0.00  0.00    -0.200 A 
ATOM      8  C   LIG    1       -1.354   3.274   0.082  0.00  0.00    +0.100 A 
ATOM      9  C   LIG    1       -2.542   3.948   0.077  0.00  0.00    -0.040 A 
ATOM     10  C   LIG    1       -3.744   3.245   0.077  0.00  0.00    +0.140 A 
ATOM     11  C   LIG    1       -3.741   1.851   0.078  0.00  0.00    -0.020 A 
ATOM     12  C   LIG    1       -2.558   1.169   0.078  0.00  0.00    +0.110 A 
BRANCH   7  14
ATOM     13  C   LIG    1        1.229   1.902   0.070  0.00  0.00    +0.070 C 
ATOM     14  C   LIG    1       -0.073   1.144   0.078  0.00  0.00    +0.390 C 
ATOM     15  O   LIG    1       -0.068  -0.070   0.079  0.00  0.00    -0.460 OA
ENDBRANCH   7  14
ENDBRANCH   1  10
BRANCH   4  16
ATOM     16  C   LIG    1       -7.680   6.485  -1.548  0.00  0.00    +0.550 C 
ATOM     17  S   LIG    1       -7.558   8.169  -1.269  0.00  0.00    -0.530 S 
BRANCH  16  18
ATOM     18  N   LIG    1       -8.456   6.021  -2.548  0.00  0.00    -0.690 N 
ATOM     19  H   LIG    1       -8.131   6.041  -3.462  0.00  0.00    +0.430 HD
BRANCH  18  20
ATOM     20  C   LIG    1       -9.728   5.513  -2.269  0.00  0.00    +0.240 A 
ATOM     21  C   LIG    1      -10.234   5.576  -0.977  0.00  0.00    -0.040 A 
ATOM     22  C   LIG    1      -11.493   5.077  -0.705  0.00  0.00    +0.160 A 
ATOM     23  C   LIG    1      -12.246   4.508  -1.715  0.00  0.00    -0.080 A 
ATOM     24  C   LIG    1      -11.743   4.439  -3.002  0.00  0.00    +0.150 A 
ATOM     25  C   LIG    1      -10.487   4.940  -3.281  0.00  0.00    -0.020 A 
BRANCH  23  26
ATOM     26  N   LIG    1      -13.593   3.970  -1.419  0.00  0.00    +0.030 N 
ATOM     27  O   LIG    1      -14.037   4.030  -0.287  0.00  0.00    -0.160 OA
ATOM     28  O   LIG    1      -14.257   3.467  -2.308  0.00  0.00    -0.160 OA
ENDBRANCH  23  26
ENDBRANCH  18  20
ENDBRANCH  16  18
ENDBRANCH   4  16
TORSDOF 6
