REMARK  Name = ZINCpk00000eawFZ.2
REMARK                            x       y       z     vdW  Elec       q    Type
REMARK                         _______ _______ _______ _____ _____    ______ ____
ROOT
ATOM      1  N   LIG    1       -2.714   1.144   0.017  0.00  0.00    -0.490 N 
ATOM      2  C   LIG    1       -2.801   0.338   1.242  0.00  0.00    +0.180 C 
ATOM      3  C   LIG    1       -4.184  -0.316   1.323  0.00  0.00    +0.280 C 
ATOM      4  N   LIG    1       -4.424  -1.055   0.074  0.00  0.00    -0.610 N 
ATOM      5  C   LIG    1       -4.223  -0.351  -1.201  0.00  0.00    +0.300 C 
ATOM      6  C   LIG    1       -4.818  -2.344   0.098  0.00  0.00    +0.500 C 
ATOM      7  O   LIG    1       -5.118  -2.905  -0.935  0.00  0.00    -0.520 OA
ATOM      8  C   LIG    1       -2.838   0.305  -1.182  0.00  0.00    +0.180 C 
ENDROOT
BRANCH   6   9
ATOM      9  C   LIG    1       -4.887  -3.087   1.407  0.00  0.00    +0.080 C 
ATOM     10  C   LIG    1       -3.538  -2.971   2.148  0.00  0.00    +0.040 C 
ATOM     11  C   LIG    1       -3.365  -4.378   2.779  0.00  0.00    +0.160 C 
ATOM     12  C   LIG    1       -3.982  -5.289   1.689  0.00  0.00    +0.170 C 
ATOM     13  C   LIG    1       -6.011  -2.513   2.272  0.00  0.00    +0.070 C 
ATOM     14  N   LIG    1       -5.128  -4.520   1.158  0.00  0.00    -0.510 NA
ATOM     15  C   LIG    1       -5.319  -4.781  -0.275  0.00  0.00    +0.220 C 
BRANCH  11  16
ATOM     16  O   LIG    1       -1.984  -4.682   2.979  0.00  0.00    -0.380 OA
ATOM     17  C   LIG    1       -1.745  -5.656   3.998  0.00  0.00    +0.210 C 
ENDBRANCH  11  16
ENDBRANCH   6   9
BRANCH   1  23
ATOM     18  C   LIG    1       -1.576   3.280   0.021  0.00  0.00    +0.150 A 
ATOM     19  C   LIG    1       -0.400   4.011  -0.013  0.00  0.00    -0.080 A 
ATOM     20  C   LIG    1        0.818   3.358  -0.075  0.00  0.00    +0.050 A 
ATOM     21  C   LIG    1        0.866   1.977  -0.101  0.00  0.00    -0.030 A 
ATOM     22  C   LIG    1       -0.303   1.240  -0.067  0.00  0.00    +0.010 A 
ATOM     23  C   LIG    1       -1.528   1.888  -0.011  0.00  0.00    +0.050 A 
BRANCH  18  25
ATOM     24  C   LIG    1       -2.747   5.348   0.105  0.00  0.00    +0.220 C 
ATOM     25  O   LIG    1       -2.775   3.920   0.081  0.00  0.00    -0.300 OA
ENDBRANCH  18  25
ENDBRANCH   1  23
TORSDOF 4
