REMARK  Name = ZINCrH000004t4AZ.0
REMARK                            x       y       z     vdW  Elec       q    Type
REMARK                         _______ _______ _______ _____ _____    ______ ____
ROOT
ATOM      1  C   LIG    1        1.369   1.541   2.550  0.00  0.00    +0.320 C 
ATOM      2  C   LIG    1        2.154   2.467   1.588  0.00  0.00    +0.010 C 
ATOM      3  C   LIG    1        3.577   2.096   1.571  0.00  0.00    +0.000 C 
ATOM      4  C   LIG    1        4.285   2.258   2.912  0.00  0.00    +0.010 C 
ATOM      5  C   LIG    1        4.069   1.018   3.744  0.00  0.00    +0.020 C 
ATOM      6  C   LIG    1        2.823   1.187   4.632  0.00  0.00    +0.250 C 
ATOM      7  N   LIG    1        1.718   1.855   3.917  0.00  0.00    -0.590 N 
ATOM      8  C   LIG    1        1.003   2.795   4.567  0.00  0.00    +0.550 C 
ATOM      9  O   LIG    1        0.039   3.303   4.031  0.00  0.00    -0.480 OA
ENDROOT
BRANCH   8  10
ATOM     10  C   LIG    1        1.395   3.209   5.936  0.00  0.00    -0.030 A 
ATOM     11  C   LIG    1        1.056   2.450   7.019  0.00  0.00    +0.010 A 
ATOM     12  C   LIG    1        1.459   2.883   8.355  0.00  0.00    +0.540 A 
ATOM     13  N   LIG    1        2.151   4.021   8.534  0.00  0.00    -0.630 N 
ATOM     14  H   LIG    1        2.405   4.287   9.432  0.00  0.00    +0.420 HD
ATOM     15  C   LIG    1        2.510   4.818   7.467  0.00  0.00    +0.180 A 
ATOM     16  C   LIG    1        3.226   5.994   7.677  0.00  0.00    +0.020 A 
ATOM     17  C   LIG    1        3.580   6.785   6.607  0.00  0.00    +0.050 A 
ATOM     18  C   LIG    1        3.227   6.423   5.311  0.00  0.00    +0.080 A 
ATOM     19  C   LIG    1        2.518   5.264   5.082  0.00  0.00    +0.050 A 
ATOM     20  F   LIG    1        3.582   7.211   4.273  0.00  0.00    -0.130 F 
ATOM     21  O   LIG    1        1.160   2.204   9.321  0.00  0.00    -0.520 OA
ATOM     22  C   LIG    1        2.152   4.450   6.158  0.00  0.00    -0.080 A 
ENDBRANCH   8  10
BRANCH   1  28
ATOM     23  C   LIG    1        0.023   3.925   1.095  0.00  0.00    +0.300 C 
ATOM     24  N   LIG    1       -0.690   2.801   1.707  0.00  0.00    -0.420 N 
ATOM     25  C   LIG    1       -2.044   2.640   1.734  0.00  0.00    +0.150 A 
ATOM     26  C   LIG    1       -2.318   1.488   2.380  0.00  0.00    -0.070 A 
ATOM     27  C   LIG    1       -1.089   0.923   2.774  0.00  0.00    -0.080 A 
ATOM     28  C   LIG    1       -0.110   1.748   2.349  0.00  0.00    +0.040 A 
ENDBRANCH   1  28
TORSDOF 2
