REMARK  Name = ZINCrH00000tj15i.0
REMARK                            x       y       z     vdW  Elec       q    Type
REMARK                         _______ _______ _______ _____ _____    ______ ____
ROOT
ATOM      1  N   LIG    1        3.395   2.336  -0.017  0.00  0.00    -0.480 N 
ATOM      2  C   LIG    1        2.404   1.375  -0.013  0.00  0.00    +0.050 A 
ATOM      3  C   LIG    1        2.403  -0.013  -0.021  0.00  0.00    +0.010 A 
ATOM      4  C   LIG    1        1.205  -0.695  -0.014  0.00  0.00    +0.030 A 
ATOM      5  C   LIG    1        0.002  -0.004   0.002  0.00  0.00    +0.000 A 
ATOM      6  C   LIG    1       -0.017   1.362   0.009  0.00  0.00    +0.070 A 
ATOM      7  C   LIG    1        1.185   2.075   0.002  0.00  0.00    +0.050 A 
ATOM      8  N   LIG    1        1.489   3.398   0.007  0.00  0.00    -0.480 NA
ATOM      9  C   LIG    1        2.781   3.550  -0.004  0.00  0.00    +0.290 A 
ENDROOT
BRANCH   1  10
ATOM     10  C   LIG    1        4.840   2.093  -0.033  0.00  0.00    +0.330 C 
BRANCH  10  11
ATOM     11  C   LIG    1        5.329   2.017  -1.480  0.00  0.00    +0.180 C 
BRANCH  11  12
ATOM     12  O   LIG    1        6.738   1.780  -1.495  0.00  0.00    -0.310 OA
BRANCH  12  17
ATOM     13  C   LIG    1        9.211   1.385  -6.540  0.00  0.00    +0.100 C 
ATOM     14  C   LIG    1        8.549   1.491  -5.190  0.00  0.00    -0.120 A 
ATOM     15  C   LIG    1        9.304   1.359  -4.039  0.00  0.00    +0.050 A 
ATOM     16  C   LIG    1        8.700   1.456  -2.801  0.00  0.00    -0.010 A 
ATOM     17  C   LIG    1        7.335   1.685  -2.712  0.00  0.00    +0.120 A 
ATOM     18  C   LIG    1        6.578   1.810  -3.869  0.00  0.00    -0.080 A 
ATOM     19  C   LIG    1        7.189   1.719  -5.105  0.00  0.00    +0.050 A 
ENDBRANCH  12  17
ENDBRANCH  11  12
ENDBRANCH  10  11
ENDBRANCH   1  10
BRANCH   9  20
ATOM     20  C   LIG    1        3.494   4.878  -0.004  0.00  0.00    +0.140 C 
BRANCH  20  21
ATOM     21  C   LIG    1        3.721   5.335  -1.446  0.00  0.00    +0.270 C 
BRANCH  21  22
ATOM     22  N   LIG    1        4.414   6.626  -1.446  0.00  0.00    -0.730 N 
ATOM     23  H   LIG    1        4.652   7.048  -0.606  0.00  0.00    +0.400 HD
ATOM     24  C   LIG    1        4.721   7.226  -2.613  0.00  0.00    +0.520 C 
ATOM     25  O   LIG    1        4.424   6.698  -3.663  0.00  0.00    -0.530 OA
BRANCH  24  26
ATOM     26  C   LIG    1        5.434   8.554  -2.612  0.00  0.00    -0.010 C 
ATOM     27  C   LIG    1        4.583   9.590  -1.877  0.00  0.00    +0.040 C 
ATOM     28  C   LIG    1        5.661   9.011  -4.055  0.00  0.00    +0.050 C 
ENDBRANCH  24  26
ENDBRANCH  21  22
ENDBRANCH  20  21
ENDBRANCH   9  20
TORSDOF 8
