REMARK  Name = ZINCpe00000WFrzk.0
REMARK                            x       y       z     vdW  Elec       q    Type
REMARK                         _______ _______ _______ _____ _____    ______ ____
ROOT
ATOM      1  C   LIG    1        1.250   1.720   0.002  0.00  0.00    +0.230 C 
ATOM      2  C   LIG    1        1.611   2.098  -1.437  0.00  0.00    +0.040 C 
ENDROOT
BRANCH   1   4
ATOM      3  C   LIG    1       -1.185   1.631   0.018  0.00  0.00    +0.510 C 
ATOM      4  N   LIG    1       -0.009   0.972   0.009  0.00  0.00    -0.730 N 
ATOM      5  H   LIG    1        0.003   0.002   0.002  0.00  0.00    +0.400 HD
ATOM      6  O   LIG    1       -1.200   2.844   0.026  0.00  0.00    -0.520 OA
BRANCH   3   7
ATOM      7  C   LIG    1       -2.480   0.862   0.019  0.00  0.00    +0.160 C 
BRANCH   7  10
ATOM      8  C   LIG    1       -3.778   2.238  -2.475  0.00  0.00    +0.130 C 
ATOM      9  C   LIG    1       -4.199   2.420  -1.040  0.00  0.00    +0.030 A 
ATOM     10  C   LIG    1       -3.638   1.827   0.031  0.00  0.00    -0.020 A 
ATOM     11  N   LIG    1       -4.324   2.264   1.131  0.00  0.00    -0.560 N 
ATOM     12  H   LIG    1       -4.157   2.010   2.052  0.00  0.00    +0.420 HD
ATOM     13  C   LIG    1       -5.277   3.116   0.695  0.00  0.00    +0.400 A 
ATOM     14  N   LIG    1       -5.198   3.203  -0.605  0.00  0.00    -0.490 NA
ENDBRANCH   7  10
ENDBRANCH   3   7
ENDBRANCH   1   4
BRANCH   1  15
ATOM     15  C   LIG    1        2.362   0.853   0.595  0.00  0.00    +0.280 C 
BRANCH  15  16
ATOM     16  N   LIG    1        1.964   0.393   1.927  0.00  0.00    -0.720 N 
ATOM     17  H   LIG    1        1.103   0.652   2.293  0.00  0.00    +0.400 HD
ATOM     18  C   LIG    1        2.792  -0.392   2.645  0.00  0.00    +0.600 C 
ATOM     19  O   LIG    1        3.831  -0.793   2.152  0.00  0.00    -0.560 OA
BRANCH  18  20
ATOM     20  C   LIG    1        2.455  -0.748   3.973  0.00  0.00    -0.110 A 
ATOM     21  C   LIG    1        1.265  -0.446   4.622  0.00  0.00    +0.090 A 
ATOM     22  C   LIG    1        1.337  -0.973   5.899  0.00  0.00    -0.030 A 
ATOM     23  C   LIG    1        2.575  -1.600   6.031  0.00  0.00    +0.230 A 
ATOM     24  N   LIG    1        3.133  -2.257   7.057  0.00  0.00    -0.450 NA
ATOM     25  C   LIG    1        4.335  -2.775   6.952  0.00  0.00    +0.340 A 
ATOM     26  C   LIG    1        5.057  -2.649   5.758  0.00  0.00    -0.030 A 
ATOM     27  C   LIG    1        4.503  -1.986   4.713  0.00  0.00    +0.310 A 
ATOM     28  N   LIG    1        3.249  -1.462   4.846  0.00  0.00    -0.340 N 
ENDBRANCH  18  20
ENDBRANCH  15  16
ENDBRANCH   1  15
TORSDOF 6
