REMARK  Name = ZINCpk00000y6xbh.0
REMARK                            x       y       z     vdW  Elec       q    Type
REMARK                         _______ _______ _______ _____ _____    ______ ____
ROOT
ATOM      1  C   LIG    1       -3.616   5.298   3.845  0.00  0.00    +0.270 C 
ATOM      2  C   LIG    1       -3.517   4.016   3.013  0.00  0.00    +0.200 C 
ATOM      3  N   LIG    1       -3.326   4.370   1.599  0.00  0.00    -0.520 NA
ATOM      4  C   LIG    1       -4.439   5.200   1.115  0.00  0.00    +0.160 C 
ATOM      5  C   LIG    1       -4.529   6.470   1.966  0.00  0.00    +0.240 C 
ATOM      6  O   LIG    1       -4.682   6.106   3.341  0.00  0.00    -0.370 OA
ENDROOT
BRANCH   1  11
ATOM      7  C   LIG    1       -3.334   4.926   8.875  0.00  0.00    +0.200 C 
ATOM      8  C   LIG    1       -3.769   4.784   7.439  0.00  0.00    +0.190 A 
ATOM      9  N   LIG    1       -4.801   4.112   7.006  0.00  0.00    -0.290 NA
ATOM     10  N   LIG    1       -4.873   4.207   5.726  0.00  0.00    -0.260 NA
ATOM     11  C   LIG    1       -3.890   4.944   5.284  0.00  0.00    +0.180 A 
ATOM     12  N   LIG    1       -3.159   5.327   6.358  0.00  0.00    -0.570 N 
ATOM     13  H   LIG    1       -2.362   5.880   6.355  0.00  0.00    +0.430 HD
ENDBRANCH   1  11
BRANCH   3  14
ATOM     14  C   LIG    1       -3.170   3.166   0.772  0.00  0.00    +0.140 C 
ATOM     15  C   LIG    1       -2.978   3.550  -0.713  0.00  0.00    +0.080 C 
ATOM     16  C   LIG    1       -1.966   2.484  -1.187  0.00  0.00    +0.280 C 
ATOM     17  N   LIG    1       -1.238   2.072   0.019  0.00  0.00    -0.580 N 
ATOM     18  C   LIG    1       -1.897   2.432   1.134  0.00  0.00    +0.540 C 
ATOM     19  O   LIG    1       -1.524   2.204   2.266  0.00  0.00    -0.510 OA
BRANCH  17  20
ATOM     20  C   LIG    1       -0.017   1.387   0.010  0.00  0.00    +0.110 A 
ATOM     21  C   LIG    1        1.177   2.094   0.002  0.00  0.00    +0.060 A 
ATOM     22  C   LIG    1        2.381   1.415  -0.013  0.00  0.00    +0.020 A 
ATOM     23  C   LIG    1        2.397   0.033  -0.021  0.00  0.00    +0.060 A 
ATOM     24  C   LIG    1        1.210  -0.677  -0.013  0.00  0.00    -0.010 A 
ATOM     25  C   LIG    1        0.002  -0.004   0.002  0.00  0.00    +0.110 A 
ATOM     26  F   LIG    1       -1.158  -0.697   0.010  0.00  0.00    -0.130 F 
ENDBRANCH  17  20
ENDBRANCH   3  14
TORSDOF 3
