REMARK  Name = ZINCpk00000y6xbh.1
REMARK                            x       y       z     vdW  Elec       q    Type
REMARK                         _______ _______ _______ _____ _____    ______ ____
ROOT
ATOM      1  C   LIG    1        0.813  -0.493  -1.200  0.00  0.00    +0.290 C 
ATOM      2  C   LIG    1        0.068  -0.001   0.044  0.00  0.00    +0.170 C 
ATOM      3  N   LIG    1       -0.018   1.466   0.010  0.00  0.00    -0.500 NA
ATOM      4  C   LIG    1        1.323   2.065  -0.044  0.00  0.00    +0.170 C 
ATOM      5  C   LIG    1        2.056   1.553  -1.287  0.00  0.00    +0.250 C 
ATOM      6  O   LIG    1        2.102   0.124  -1.252  0.00  0.00    -0.370 OA
ENDROOT
BRANCH   1  10
ATOM      7  C   LIG    1        0.121  -5.364  -2.130  0.00  0.00    +0.200 C 
ATOM      8  C   LIG    1        0.667  -4.089  -1.541  0.00  0.00    +0.290 A 
ATOM      9  N   LIG    1        0.278  -2.876  -1.842  0.00  0.00    -0.530 NA
ATOM     10  C   LIG    1        0.974  -1.990  -1.131  0.00  0.00    +0.230 A 
ATOM     11  N   LIG    1        1.823  -2.628  -0.370  0.00  0.00    -0.280 NA
ATOM     12  N   LIG    1        1.637  -3.998  -0.616  0.00  0.00    -0.480 N 
ATOM     13  H   LIG    1        2.116  -4.734  -0.202  0.00  0.00    +0.440 HD
ENDBRANCH   1  10
BRANCH   3  14
ATOM     14  C   LIG    1       -0.776   1.976   1.160  0.00  0.00    +0.190 C 
ATOM     15  C   LIG    1       -2.201   1.375   1.178  0.00  0.00    +0.080 C 
ATOM     16  C   LIG    1       -2.015   0.153   2.106  0.00  0.00    +0.270 C 
ATOM     17  N   LIG    1       -0.873   0.484   2.966  0.00  0.00    -0.580 N 
ATOM     18  C   LIG    1       -0.157   1.501   2.456  0.00  0.00    +0.490 C 
ATOM     19  O   LIG    1        0.842   1.969   2.961  0.00  0.00    -0.510 OA
BRANCH  17  20
ATOM     20  C   LIG    1       -0.569  -0.174   4.163  0.00  0.00    +0.110 A 
ATOM     21  C   LIG    1        0.259  -1.288   4.154  0.00  0.00    +0.050 A 
ATOM     22  C   LIG    1        0.563  -1.932   5.338  0.00  0.00    +0.020 A 
ATOM     23  C   LIG    1        0.033  -1.476   6.531  0.00  0.00    +0.060 A 
ATOM     24  C   LIG    1       -0.798  -0.371   6.545  0.00  0.00    -0.010 A 
ATOM     25  C   LIG    1       -1.101   0.282   5.365  0.00  0.00    +0.110 A 
ATOM     26  F   LIG    1       -1.912   1.363   5.378  0.00  0.00    -0.130 F 
ENDBRANCH  17  20
ENDBRANCH   3  14
TORSDOF 3
