REMARK  Name = ZINCrD0000074rbb.0
REMARK                            x       y       z     vdW  Elec       q    Type
REMARK                         _______ _______ _______ _____ _____    ______ ____
ROOT
ATOM      1  C   LIG    1       -4.016   6.752   1.550  0.00  0.00    +0.510 C 
ATOM      2  O   LIG    1       -3.010   7.387   1.796  0.00  0.00    -0.490 OA
ENDROOT
BRANCH   1   3
ATOM      3  C   LIG    1       -5.318   7.194   2.089  0.00  0.00    -0.140 A 
ATOM      4  C   LIG    1       -6.477   6.469   1.803  0.00  0.00    +0.170 A 
ATOM      5  C   LIG    1       -7.689   6.885   2.313  0.00  0.00    +0.020 A 
ATOM      6  C   LIG    1       -7.760   8.022   3.100  0.00  0.00    +0.080 A 
ATOM      7  C   LIG    1       -6.614   8.748   3.383  0.00  0.00    -0.680 A 
ATOM      8 CL   LIG    1       -9.290   8.542   3.733  0.00  0.00    -0.020 Cl
ATOM      9  C   LIG    1       -5.396   8.340   2.883  0.00  0.00    +0.230 A 
BRANCH   7  10
ATOM     10  S   LIG    1       -6.714  10.194   4.385  0.00  0.00    +2.700 S 
ATOM     11  O   LIG    1       -5.397  10.722   4.459  0.00  0.00    -0.950 OA
ATOM     12  O   LIG    1       -7.474   9.837   5.531  0.00  0.00    -0.940 OA
BRANCH  10  13
ATOM     13  N   LIG    1       -7.617  11.305   3.552  0.00  0.00    -1.250 NA
ATOM     14  H   LIG    1       -7.790  12.178   3.939  0.00  0.00    +0.430 HD
ATOM     15  H   LIG    1       -7.973  11.083   2.678  0.00  0.00    +0.420 HD
ENDBRANCH  10  13
ENDBRANCH   7  10
ENDBRANCH   1   3
BRANCH   1  16
ATOM     16  O   LIG    1       -3.944   5.646   0.784  0.00  0.00    -0.330 OA
BRANCH  16  17
ATOM     17  C   LIG    1       -2.632   5.271   0.288  0.00  0.00    +0.170 C 
ATOM     18  C   LIG    1       -2.388   5.941  -1.065  0.00  0.00    +0.080 C 
BRANCH  17  19
ATOM     19  C   LIG    1       -2.564   3.775   0.128  0.00  0.00    +0.400 C 
ATOM     20  O   LIG    1       -3.586   3.127   0.045  0.00  0.00    -0.420 OA
BRANCH  19  25
ATOM     21  C   LIG    1        2.539   1.137  -0.100  0.00  0.00    +0.100 C 
ATOM     22  C   LIG    1        1.201   1.828  -0.040  0.00  0.00    -0.040 A 
ATOM     23  C   LIG    1        0.042   1.104  -0.258  0.00  0.00    +0.000 A 
ATOM     24  C   LIG    1       -1.186   1.731  -0.210  0.00  0.00    -0.020 A 
ATOM     25  C   LIG    1       -1.258   3.099   0.070  0.00  0.00    -0.180 A 
ATOM     26  C   LIG    1       -0.082   3.824   0.289  0.00  0.00    +0.060 A 
ATOM     27  C   LIG    1       -2.446   0.942  -0.453  0.00  0.00    +0.110 C 
ATOM     28  C   LIG    1        1.138   3.184   0.233  0.00  0.00    -0.100 A 
ATOM     29  C   LIG    1        2.407   3.963   0.468  0.00  0.00    +0.090 C 
ENDBRANCH  19  25
ENDBRANCH  17  19
ENDBRANCH  16  17
ENDBRANCH   1  16
TORSDOF 7
