REMARK  Name = ZINCqH0000038A7o.1
REMARK                            x       y       z     vdW  Elec       q    Type
REMARK                         _______ _______ _______ _____ _____    ______ ____
ROOT
ATOM      1  C   LIG    1       -0.753   1.593  -1.232  0.00  0.00    +0.170 C 
ENDROOT
BRANCH   1   2
ATOM      2  C   LIG    1       -0.121   1.007  -2.468  0.00  0.00    -0.090 A 
ATOM      3  C   LIG    1        1.037   1.562  -2.981  0.00  0.00    +0.090 A 
ATOM      4  C   LIG    1        1.619   1.023  -4.112  0.00  0.00    -0.020 A 
ATOM      5  C   LIG    1        1.038  -0.067  -4.738  0.00  0.00    +0.100 A 
ATOM      6  C   LIG    1       -0.125  -0.619  -4.226  0.00  0.00    -0.020 A 
ATOM      7  F   LIG    1        1.604  -0.592  -5.846  0.00  0.00    -0.140 F 
ATOM      8  C   LIG    1       -0.703  -0.081  -3.092  0.00  0.00    +0.050 A 
ENDBRANCH   1   2
BRANCH   1   9
ATOM      9  N   LIG    1       -0.669   3.058  -1.286  0.00  0.00    -0.670 NA
ATOM     10  H   LIG    1       -0.629   3.453  -0.359  0.00  0.00    +0.340 HD
BRANCH   9  11
ATOM     11  C   LIG    1       -1.792   3.621  -2.049  0.00  0.00    +0.260 C 
BRANCH  11  18
ATOM     12  C   LIG    1        0.092   5.297  -3.970  0.00  0.00    +0.150 C 
ATOM     13  C   LIG    1       -0.842   5.863  -2.931  0.00  0.00    +0.100 A 
ATOM     14  N   LIG    1       -1.015   7.133  -2.666  0.00  0.00    -0.300 NA
ATOM     15  N   LIG    1       -1.963   7.241  -1.641  0.00  0.00    -0.480 N 
ATOM     16  H   LIG    1       -2.284   8.066  -1.245  0.00  0.00    +0.440 HD
ATOM     17  C   LIG    1       -2.355   5.994  -1.305  0.00  0.00    +0.240 A 
ATOM     18  C   LIG    1       -1.672   5.123  -2.084  0.00  0.00    -0.240 A 
ENDBRANCH  11  18
ENDBRANCH   9  11
ENDBRANCH   1   9
BRANCH   1  19
ATOM     19  C   LIG    1       -0.013   1.086   0.008  0.00  0.00    +0.320 C 
BRANCH  19  20
ATOM     20  N   LIG    1       -0.698   1.558   1.213  0.00  0.00    -0.490 N 
ATOM     21  C   LIG    1       -0.389   2.670   1.933  0.00  0.00    +0.470 A 
ATOM     22  N   LIG    1       -1.204   2.792   2.940  0.00  0.00    -0.490 NA
ATOM     23  C   LIG    1       -2.087   1.760   2.941  0.00  0.00    +0.040 A 
ATOM     24  C   LIG    1       -3.148   1.401   3.775  0.00  0.00    +0.070 A 
ATOM     25  C   LIG    1       -3.871   0.272   3.508  0.00  0.00    +0.000 A 
ATOM     26  C   LIG    1       -3.563  -0.524   2.415  0.00  0.00    +0.030 A 
ATOM     27  C   LIG    1       -2.520  -0.188   1.578  0.00  0.00    +0.010 A 
ATOM     28  C   LIG    1       -1.774   0.954   1.833  0.00  0.00    +0.050 A 
ENDBRANCH  19  20
ENDBRANCH   1  19
TORSDOF 6
