REMARK  Name = ZINCnE00000dSRJ4.0
REMARK                            x       y       z     vdW  Elec       q    Type
REMARK                         _______ _______ _______ _____ _____    ______ ____
ROOT
ATOM      1  C   LIG    1        1.556   0.016   6.095  0.00  0.00    +0.560 C 
ATOM      2  N   LIG    1        2.667  -0.747   6.110  0.00  0.00    -0.720 N 
ATOM      3  H   LIG    1        3.074  -1.027   5.275  0.00  0.00    +0.400 HD
ATOM      4  O   LIG    1        1.046   0.368   7.141  0.00  0.00    -0.530 OA
ENDROOT
BRANCH   1  11
ATOM      5  C   LIG    1       -0.150   1.183   2.377  0.00  0.00    +0.200 A 
ATOM      6  C   LIG    1       -0.763   1.613   3.579  0.00  0.00    -0.110 A 
ATOM      7  C   LIG    1       -1.955   2.425   3.764  0.00  0.00    +0.050 A 
ATOM      8  C   LIG    1       -2.282   2.652   5.020  0.00  0.00    -0.060 A 
ATOM      9  S   LIG    1       -1.158   1.881   6.122  0.00  0.00    +0.180 S 
ATOM     10  C   LIG    1       -0.205   1.224   4.797  0.00  0.00    -0.070 A 
ATOM     11  C   LIG    1        0.960   0.423   4.812  0.00  0.00    -0.140 A 
ATOM     12  C   LIG    1        1.545   0.020   3.614  0.00  0.00    +0.120 A 
ATOM     13  C   LIG    1        0.988   0.401   2.410  0.00  0.00    -0.090 A 
BRANCH   5  15
ATOM     14  C   LIG    1       -0.013   1.086   0.008  0.00  0.00    +0.240 C 
ATOM     15  O   LIG    1       -0.682   1.547   1.184  0.00  0.00    -0.310 OA
ENDBRANCH   5  15
ENDBRANCH   1  11
BRANCH   2  16
ATOM     16  C   LIG    1        3.260  -1.152   7.386  0.00  0.00    +0.280 C 
BRANCH  16  17
ATOM     17  C   LIG    1        4.503  -2.005   7.124  0.00  0.00    +0.100 C 
BRANCH  17  18
ATOM     18  S   LIG    1        5.237  -2.507   8.705  0.00  0.00    -0.120 S 
BRANCH  18  19
ATOM     19  S   LIG    1        3.871  -3.845   9.444  0.00  0.00    -0.170 S 
BRANCH  19  20
ATOM     20  C   LIG    1        4.359  -5.404   8.655  0.00  0.00    +0.150 C 
BRANCH  20  21
ATOM     21  C   LIG    1        5.690  -5.878   9.243  0.00  0.00    -0.040 C 
BRANCH  21  22
ATOM     22  C   LIG    1        6.095  -7.173   8.588  0.00  0.00    +0.500 C 
ATOM     23  O   LIG    1        7.133  -7.723   8.915  0.00  0.00    -0.700 OA
ATOM     24  O   LIG    1        5.385  -7.671   7.731  0.00  0.00    -0.700 OA
ENDBRANCH  21  22
ENDBRANCH  20  21
ENDBRANCH  19  20
ENDBRANCH  18  19
ENDBRANCH  17  18
ENDBRANCH  16  17
ENDBRANCH   2  16
TORSDOF 9
