REMARK  Name = ZINCtV000002MgJI.0
REMARK                            x       y       z     vdW  Elec       q    Type
REMARK                         _______ _______ _______ _____ _____    ______ ____
ROOT
ATOM      1  O   LIG    1        6.565  -0.785   2.245  0.00  0.00    -0.510 OA
ATOM      2  C   LIG    1        5.842  -1.166   1.349  0.00  0.00    +0.490 C 
ATOM      3  N   LIG    1        4.946  -2.147   1.577  0.00  0.00    -0.680 N 
ATOM      4  H   LIG    1        4.413  -2.496   0.846  0.00  0.00    +0.420 HD
ENDROOT
BRANCH   3   5
ATOM      5  C   LIG    1        4.784  -2.660   2.869  0.00  0.00    +0.200 A 
ATOM      6  C   LIG    1        5.877  -2.764   3.718  0.00  0.00    +0.050 A 
ATOM      7  C   LIG    1        5.715  -3.271   4.992  0.00  0.00    +0.090 A 
ATOM      8  C   LIG    1        4.463  -3.675   5.423  0.00  0.00    -0.050 A 
ATOM      9  C   LIG    1        3.372  -3.572   4.579  0.00  0.00    +0.110 A 
ATOM     10 CL   LIG    1        4.261  -4.305   7.028  0.00  0.00    -0.050 Cl
ATOM     11  C   LIG    1        3.529  -3.066   3.304  0.00  0.00    -0.200 A 
BRANCH  11  12
ATOM     12  C   LIG    1        2.339  -2.954   2.385  0.00  0.00    +0.510 C 
ATOM     13  F   LIG    1        2.563  -3.722   1.237  0.00  0.00    -0.180 F 
ATOM     14  F   LIG    1        2.155  -1.615   2.022  0.00  0.00    -0.170 F 
ATOM     15  F   LIG    1        1.196  -3.421   3.043  0.00  0.00    -0.170 F 
ENDBRANCH  11  12
ENDBRANCH   3   5
BRANCH   2  16
ATOM     16  C   LIG    1        5.946  -0.544  -0.020  0.00  0.00    +0.270 C 
BRANCH  16  17
ATOM     17  N   LIG    1        7.062   0.411  -0.040  0.00  0.00    -0.500 NA
ATOM     18  C   LIG    1        6.854   1.485   0.943  0.00  0.00    +0.200 C 
ATOM     19  C   LIG    1        7.801   2.648   0.623  0.00  0.00    +0.130 C 
ATOM     20  C   LIG    1        9.191   2.081   0.426  0.00  0.00    -0.170 A 
ATOM     21  C   LIG    1        9.450   0.773   0.227  0.00  0.00    -0.100 A 
ATOM     22  C   LIG    1       10.802   0.489   0.074  0.00  0.00    +0.020 A 
ATOM     23  C   LIG    1       11.622   1.534   0.145  0.00  0.00    -0.060 A 
ATOM     24  S   LIG    1       10.689   2.998   0.421  0.00  0.00    +0.110 S 
ATOM     25  C   LIG    1        8.344  -0.272   0.180  0.00  0.00    +0.300 C 
BRANCH  25  26
ATOM     26  C   LIG    1        8.604  -1.234  -0.951  0.00  0.00    -0.170 A 
ATOM     27  C   LIG    1        9.129  -2.453  -0.818  0.00  0.00    +0.000 A 
ATOM     28  C   LIG    1        9.275  -3.157  -2.001  0.00  0.00    +0.000 A 
ATOM     29  C   LIG    1        8.869  -2.510  -3.094  0.00  0.00    -0.060 A 
ATOM     30  S   LIG    1        8.256  -0.923  -2.647  0.00  0.00    +0.150 S 
ENDBRANCH  25  26
ENDBRANCH  16  17
ENDBRANCH   2  16
TORSDOF 5
