REMARK  Name = ZINCrD00000F5Lpn.0
REMARK                            x       y       z     vdW  Elec       q    Type
REMARK                         _______ _______ _______ _____ _____    ______ ____
ROOT
ATOM      1  N   LIG    1       -2.323   1.426  -0.096  0.00  0.00    -0.670 N 
ATOM      2  H   LIG    1       -2.281   0.457  -0.105  0.00  0.00    +0.410 HD
ATOM      3  C   LIG    1       -1.187   2.148  -0.037  0.00  0.00    +0.580 C 
ATOM      4  O   LIG    1       -1.241   3.359   0.068  0.00  0.00    -0.500 OA
ENDROOT
BRANCH   1   8
ATOM      5  C   LIG    1       -6.011   3.354  -0.244  0.00  0.00    -0.140 A 
ATOM      6  C   LIG    1       -4.969   3.892   0.517  0.00  0.00    +0.110 A 
ATOM      7  C   LIG    1       -3.751   3.252   0.564  0.00  0.00    +0.020 A 
ATOM      8  C   LIG    1       -3.557   2.071  -0.145  0.00  0.00    +0.180 A 
ATOM      9  C   LIG    1       -4.590   1.534  -0.908  0.00  0.00    -0.010 A 
ATOM     10  C   LIG    1       -5.812   2.166  -0.954  0.00  0.00    +0.100 A 
BRANCH   5  11
ATOM     11  C   LIG    1       -7.317   4.037  -0.296  0.00  0.00    +0.510 C 
ATOM     12  O   LIG    1       -7.488   5.069   0.321  0.00  0.00    -0.500 OA
BRANCH  11  13
ATOM     13  O   LIG    1       -8.320   3.516  -1.030  0.00  0.00    -0.360 OA
BRANCH  13  15
ATOM     14  C   LIG    1      -10.588   3.504  -1.916  0.00  0.00    +0.070 C 
ATOM     15  C   LIG    1       -9.578   4.242  -1.036  0.00  0.00    +0.200 C 
ENDBRANCH  13  15
ENDBRANCH  11  13
ENDBRANCH   5  11
ENDBRANCH   1   8
BRANCH   3  16
ATOM     16  C   LIG    1        0.119   1.472  -0.099  0.00  0.00    -0.110 C 
ATOM     17  C   LIG    1        1.271   2.205  -0.044  0.00  0.00    +0.260 C 
BRANCH  17  18
ATOM     18  C   LIG    1        2.569   1.527   0.046  0.00  0.00    -0.100 A 
ATOM     19  C   LIG    1        2.668   0.277   0.670  0.00  0.00    +0.100 A 
ATOM     20  C   LIG    1        3.891  -0.356   0.745  0.00  0.00    +0.050 A 
ATOM     21  C   LIG    1        5.020   0.245   0.217  0.00  0.00    +0.130 A 
ATOM     22  C   LIG    1        4.932   1.484  -0.396  0.00  0.00    -0.050 A 
ATOM     23  C   LIG    1        3.717   2.128  -0.486  0.00  0.00    +0.150 A 
BRANCH  22  24
ATOM     24  N   LIG    1        6.146   2.118  -0.957  0.00  0.00    +0.020 N 
ATOM     25  O   LIG    1        7.221   1.550  -0.879  0.00  0.00    -0.150 OA
ATOM     26  O   LIG    1        6.071   3.207  -1.496  0.00  0.00    -0.150 OA
ENDBRANCH  22  24
ENDBRANCH  17  18
BRANCH  16  27
ATOM     27  C   LIG    1        0.183   0.047  -0.222  0.00  0.00    +0.230 C 
ATOM     28  N   LIG    1        0.233  -1.084  -0.320  0.00  0.00    -0.380 NA
ENDBRANCH  16  27
ENDBRANCH   3  16
TORSDOF 8
