REMARK  Name = ZINCAx0000000cik.0
REMARK                            x       y       z     vdW  Elec       q    Type
REMARK                         _______ _______ _______ _____ _____    ______ ____
ROOT
ATOM      1  N   LIG    1       -1.423   1.813  -0.247  0.00  0.00    -0.500 N 
ATOM      2  C   LIG    1       -0.333   1.179   0.233  0.00  0.00    +0.510 C 
ATOM      3  O   LIG    1       -0.407   0.017   0.573  0.00  0.00    -0.500 OA
ENDROOT
BRANCH   1   9
ATOM      4  N   LIG    1       -4.103  -0.588  -0.993  0.00  0.00    -0.540 N 
ATOM      5  C   LIG    1       -5.102  -0.089  -0.242  0.00  0.00    +0.710 A 
ATOM      6  N   LIG    1       -4.927   1.014   0.507  0.00  0.00    -0.660 N 
ATOM      7  H   LIG    1       -5.663   1.354   1.040  0.00  0.00    +0.430 HD
ATOM      8  C   LIG    1       -3.741   1.653   0.525  0.00  0.00    +0.570 A 
ATOM      9  C   LIG    1       -2.674   1.160  -0.250  0.00  0.00    -0.140 A 
ATOM     10  O   LIG    1       -3.593   2.653   1.207  0.00  0.00    -0.520 OA
ATOM     11  O   LIG    1       -6.183  -0.647  -0.239  0.00  0.00    -0.530 OA
ATOM     12  C   LIG    1       -2.874   0.030  -1.016  0.00  0.00    +0.510 A 
BRANCH  12  13
ATOM     13  N   LIG    1       -1.856  -0.476  -1.788  0.00  0.00    -0.820 N 
ATOM     14  H   LIG    1       -2.016  -1.243  -2.359  0.00  0.00    +0.410 HD
ATOM     15  H   LIG    1       -0.978  -0.065  -1.762  0.00  0.00    +0.420 HD
ENDBRANCH  12  13
BRANCH   4  16
ATOM     16  C   LIG    1       -4.328  -1.791  -1.798  0.00  0.00    +0.300 C 
BRANCH  16  17
ATOM     17  C   LIG    1       -4.831  -1.391  -3.186  0.00  0.00    +0.010 C 
BRANCH  17  19
ATOM     18  C   LIG    1       -5.569  -2.247  -5.414  0.00  0.00    +0.020 C 
ATOM     19  C   LIG    1       -5.066  -2.647  -4.026  0.00  0.00    +0.020 C 
ENDBRANCH  17  19
ENDBRANCH  16  17
ENDBRANCH   4  16
ENDBRANCH   1   9
BRANCH   2  20
ATOM     20  C   LIG    1        0.979   1.914   0.342  0.00  0.00    +0.170 C 
ATOM     21  C   LIG    1        0.878   2.979   1.435  0.00  0.00    +0.060 C 
BRANCH  20  22
ATOM     22  O   LIG    1        2.017   0.989   0.671  0.00  0.00    -0.280 OA
BRANCH  22  23
ATOM     23  C   LIG    1        3.281   1.329   0.314  0.00  0.00    +0.160 A 
ATOM     24  C   LIG    1        3.531   2.575  -0.248  0.00  0.00    -0.080 A 
ATOM     25  C   LIG    1        4.814   2.926  -0.606  0.00  0.00    +0.120 A 
ATOM     26  C   LIG    1        5.863   2.023  -0.415  0.00  0.00    -0.070 A 
ATOM     27  C   LIG    1        5.606   0.768   0.145  0.00  0.00    +0.110 A 
ATOM     28  C   LIG    1        4.322   0.427   0.506  0.00  0.00    -0.010 A 
BRANCH  26  29
ATOM     29  C   LIG    1        7.197   2.381  -0.792  0.00  0.00    +0.250 C 
ATOM     30  N   LIG    1        8.255   2.666  -1.091  0.00  0.00    -0.420 NA
ENDBRANCH  26  29
ENDBRANCH  22  23
ENDBRANCH  20  22
ENDBRANCH   2  20
BRANCH   1  31
ATOM     31  C   LIG    1       -1.308   3.178  -0.765  0.00  0.00    +0.360 C 
BRANCH  31  32
ATOM     32  C   LIG    1       -1.049   3.132  -2.249  0.00  0.00    -0.150 A 
ATOM     33  C   LIG    1        0.232   3.314  -2.732  0.00  0.00    +0.050 A 
ATOM     34  C   LIG    1        0.472   3.272  -4.093  0.00  0.00    -0.020 A 
ATOM     35  C   LIG    1       -0.570   3.048  -4.974  0.00  0.00    +0.060 A 
ATOM     36  C   LIG    1       -1.853   2.865  -4.495  0.00  0.00    -0.080 A 
ATOM     37  C   LIG    1       -2.095   2.901  -3.130  0.00  0.00    +0.150 A 
BRANCH  37  38
ATOM     38  O   LIG    1       -3.355   2.715  -2.657  0.00  0.00    -0.300 OA
ATOM     39  C   LIG    1       -4.383   2.482  -3.622  0.00  0.00    +0.240 C 
ENDBRANCH  37  38
ENDBRANCH  31  32
ENDBRANCH   1  31
TORSDOF 12
