REMARK  Name = ZINCqH0000038EmZ.0
REMARK                            x       y       z     vdW  Elec       q    Type
REMARK                         _______ _______ _______ _____ _____    ______ ____
ROOT
ATOM      1  C   LIG    1       -1.155   1.677   0.041  0.00  0.00    +0.570 C 
ATOM      2  N   LIG    1       -0.011   0.966   0.007  0.00  0.00    -0.640 N 
ATOM      3  H   LIG    1       -0.043  -0.003  -0.025  0.00  0.00    +0.420 HD
ATOM      4  O   LIG    1       -1.118   2.891  -0.017  0.00  0.00    -0.500 OA
ENDROOT
BRANCH   1  12
ATOM      5  C   LIG    1       -8.494   1.865   0.460  0.00  0.00    +0.190 C 
ATOM      6  C   LIG    1       -7.214   1.071   0.422  0.00  0.00    +0.450 A 
ATOM      7  N   LIG    1       -7.291  -0.230   0.486  0.00  0.00    -0.600 NA
ATOM      8  C   LIG    1       -6.192  -1.007   0.458  0.00  0.00    +0.530 A 
ATOM      9  C   LIG    1       -4.877  -0.347   0.351  0.00  0.00    -0.180 A 
ATOM     10  C   LIG    1       -3.689  -1.073   0.315  0.00  0.00    +0.120 A 
ATOM     11  C   LIG    1       -2.495  -0.416   0.210  0.00  0.00    +0.020 A 
ATOM     12  C   LIG    1       -2.457   0.981   0.149  0.00  0.00    -0.080 A 
ATOM     13  C   LIG    1       -3.636   1.719   0.183  0.00  0.00    +0.070 A 
ATOM     14  C   LIG    1       -4.852   1.058   0.285  0.00  0.00    +0.170 A 
ATOM     15  O   LIG    1       -6.282  -2.221   0.519  0.00  0.00    -0.470 OA
ATOM     16  N   LIG    1       -6.052   1.740   0.324  0.00  0.00    -0.620 N 
ATOM     17  H   LIG    1       -6.058   2.709   0.279  0.00  0.00    +0.430 HD
ENDBRANCH   1  12
BRANCH   2  18
ATOM     18  C   LIG    1        1.220   1.624   0.014  0.00  0.00    +0.220 A 
ATOM     19  C   LIG    1        2.427   0.974   0.114  0.00  0.00    -0.240 A 
ATOM     20  S   LIG    1        3.722   2.162   0.082  0.00  0.00    +0.270 S 
ATOM     21  C   LIG    1        2.609   3.447  -0.052  0.00  0.00    -0.160 A 
ATOM     22  C   LIG    1        1.352   2.997  -0.074  0.00  0.00    +0.020 A 
BRANCH  21  23
ATOM     23  C   LIG    1        2.994   4.902  -0.135  0.00  0.00    +0.000 C 
ATOM     24  C   LIG    1        2.480   5.491  -1.450  0.00  0.00    +0.050 C 
ATOM     25  C   LIG    1        4.517   5.030  -0.080  0.00  0.00    +0.030 C 
ATOM     26  C   LIG    1        2.375   5.661   1.040  0.00  0.00    +0.050 C 
ENDBRANCH  21  23
BRANCH  19  27
ATOM     27  C   LIG    1        2.601  -0.443   0.225  0.00  0.00    +0.280 C 
ATOM     28  N   LIG    1        2.740  -1.567   0.312  0.00  0.00    -0.400 NA
ENDBRANCH  19  27
ENDBRANCH   2  18
TORSDOF 4
