REMARK  Name = ZINCqH0000007BS5.0
REMARK                            x       y       z     vdW  Elec       q    Type
REMARK                         _______ _______ _______ _____ _____    ______ ____
ROOT
ATOM      1  C   LIG    1        0.750  -1.098   3.393  0.00  0.00    +0.120 A 
ATOM      2  N   LIG    1        0.953  -0.652   2.187  0.00  0.00    -0.430 NA
ATOM      3  C   LIG    1       -0.101  -0.516   1.416  0.00  0.00    +0.040 A 
ATOM      4  C   LIG    1       -1.272  -0.864   1.961  0.00  0.00    -0.050 A 
ATOM      5  S   LIG    1       -0.971  -1.405   3.611  0.00  0.00    +0.100 S 
ENDROOT
BRANCH   1  10
ATOM      6  C   LIG    1        2.439  -2.007   6.627  0.00  0.00    +0.130 A 
ATOM      7  C   LIG    1        3.764  -1.723   6.326  0.00  0.00    -0.060 A 
ATOM      8  C   LIG    1        4.106  -1.238   5.077  0.00  0.00    +0.050 A 
ATOM      9  C   LIG    1        3.131  -1.034   4.121  0.00  0.00    +0.040 A 
ATOM     10  C   LIG    1        1.796  -1.317   4.415  0.00  0.00    +0.010 A 
ATOM     11  C   LIG    1        1.453  -1.801   5.677  0.00  0.00    +0.000 A 
BRANCH   6  13
ATOM     12  C   LIG    1        3.175  -2.666   8.789  0.00  0.00    +0.250 C 
ATOM     13  O   LIG    1        2.109  -2.483   7.856  0.00  0.00    -0.320 OA
ENDBRANCH   6  13
ENDBRANCH   1  10
BRANCH   3  14
ATOM     14  C   LIG    1        0.002  -0.004   0.002  0.00  0.00    +0.400 C 
BRANCH  14  15
ATOM     15  N   LIG    1       -0.018   1.461   0.010  0.00  0.00    -0.990 NA
ATOM     16  C   LIG    1       -1.296   2.176   0.020  0.00  0.00    +0.300 C 
BRANCH  15  17
ATOM     17  S   LIG    1        1.405   2.308   0.001  0.00  0.00    +2.690 S 
ATOM     18  O   LIG    1        2.394   1.437   0.531  0.00  0.00    -0.920 OA
ATOM     19  O   LIG    1        1.115   3.584   0.555  0.00  0.00    -0.950 OA
BRANCH  17  20
ATOM     20  C   LIG    1        1.837   2.584  -1.685  0.00  0.00    -0.700 A 
ATOM     21  C   LIG    1        2.624   1.666  -2.355  0.00  0.00    +0.160 A 
ATOM     22  C   LIG    1        2.958   1.879  -3.679  0.00  0.00    -0.020 A 
ATOM     23  C   LIG    1        2.515   3.018  -4.330  0.00  0.00    +0.160 A 
ATOM     24  C   LIG    1        1.732   3.939  -3.656  0.00  0.00    -0.020 A 
ATOM     25  F   LIG    1        2.847   3.229  -5.623  0.00  0.00    -0.130 F 
ATOM     26  C   LIG    1        1.393   3.721  -2.334  0.00  0.00    +0.160 A 
ENDBRANCH  17  20
ENDBRANCH  15  17
ENDBRANCH  14  15
ENDBRANCH   3  14
TORSDOF 6
