REMARK  Name = ZINCqH0000050FwT.0
REMARK                            x       y       z     vdW  Elec       q    Type
REMARK                         _______ _______ _______ _____ _____    ______ ____
ROOT
ATOM      1  C   LIG    1       -2.008   2.819   3.363  0.00  0.00    +0.000 C 
ATOM      2  C   LIG    1       -3.502   2.565   3.149  0.00  0.00    +0.030 C 
ATOM      3  C   LIG    1       -4.204   2.497   4.509  0.00  0.00    +0.280 C 
ATOM      4  N   LIG    1       -3.902   3.724   5.258  0.00  0.00    -0.610 N 
ATOM      5  C   LIG    1       -2.497   4.111   5.444  0.00  0.00    +0.280 C 
ATOM      6  C   LIG    1       -4.896   4.481   5.765  0.00  0.00    +0.560 C 
ATOM      7  O   LIG    1       -4.640   5.547   6.291  0.00  0.00    -0.530 OA
ATOM      8  C   LIG    1       -1.814   4.161   4.074  0.00  0.00    +0.040 C 
ENDROOT
BRANCH   6   9
ATOM      9  C   LIG    1       -6.295   4.015   5.682  0.00  0.00    -0.140 A 
ATOM     10  C   LIG    1       -7.317   4.918   5.380  0.00  0.00    +0.100 A 
ATOM     11  C   LIG    1       -8.621   4.476   5.299  0.00  0.00    -0.020 A 
ATOM     12  C   LIG    1       -8.919   3.141   5.526  0.00  0.00    +0.120 A 
ATOM     13  C   LIG    1       -7.909   2.243   5.832  0.00  0.00    -0.020 A 
ATOM     14  F   LIG    1      -10.199   2.715   5.450  0.00  0.00    -0.130 F 
ATOM     15  C   LIG    1       -6.601   2.672   5.911  0.00  0.00    +0.080 A 
ENDBRANCH   6   9
BRANCH   1  17
ATOM     16  N   LIG    1       -0.907   1.704   1.450  0.00  0.00    -0.610 N 
ATOM     17  C   LIG    1       -1.308   2.853   2.029  0.00  0.00    +0.520 C 
ATOM     18  O   LIG    1       -1.105   3.913   1.477  0.00  0.00    -0.520 OA
ATOM     19  C   LIG    1       -1.246   0.417   2.063  0.00  0.00    +0.280 C 
BRANCH  16  20
ATOM     20  C   LIG    1       -0.132   1.741   0.207  0.00  0.00    +0.390 C 
BRANCH  20  23
ATOM     21  C   LIG    1       -1.092   3.983  -1.562  0.00  0.00    +0.110 C 
ATOM     22  C   LIG    1       -1.492   2.544  -1.760  0.00  0.00    -0.080 A 
ATOM     23  C   LIG    1       -1.058   1.563  -0.968  0.00  0.00    -0.210 A 
ATOM     24  S   LIG    1       -1.737   0.030  -1.500  0.00  0.00    +0.090 S 
ATOM     25  C   LIG    1       -2.593   0.831  -2.812  0.00  0.00    -0.040 A 
ATOM     26  C   LIG    1       -2.336   2.139  -2.781  0.00  0.00    +0.010 A 
ENDBRANCH  20  23
ENDBRANCH  16  20
ENDBRANCH   1  17
TORSDOF 4
