REMARK  Name = ZINCpk00000K7Lbi.0
REMARK                            x       y       z     vdW  Elec       q    Type
REMARK                         _______ _______ _______ _____ _____    ______ ____
ROOT
ATOM      1  C   LIG    1        0.004   0.746  -4.888  0.00  0.00    +0.170 C 
ATOM      2  C   LIG    1       -0.238  -0.733  -4.581  0.00  0.00    +0.020 C 
ENDROOT
BRANCH   1   3
ATOM      3  N   LIG    1       -0.778   1.136  -6.068  0.00  0.00    -0.510 NA
ATOM      4  C   LIG    1       -2.181   0.709  -5.937  0.00  0.00    +0.190 C 
ATOM      5  C   LIG    1       -3.008   1.430  -7.002  0.00  0.00    +0.120 C 
ATOM      6  C   LIG    1       -2.351   1.284  -8.348  0.00  0.00    -0.230 A 
ATOM      7  C   LIG    1       -1.057   0.902  -8.484  0.00  0.00    +0.170 A 
ATOM      8  N   LIG    1       -0.524   0.802  -9.710  0.00  0.00    -0.540 NA
ATOM      9  C   LIG    1       -1.217   1.058 -10.784  0.00  0.00    +0.580 A 
ATOM     10  N   LIG    1       -2.509   1.435 -10.715  0.00  0.00    -0.630 N 
ATOM     11  H   LIG    1       -3.007   1.619 -11.527  0.00  0.00    +0.420 HD
ATOM     12  C   LIG    1       -3.106   1.558  -9.511  0.00  0.00    +0.520 A 
ATOM     13  O   LIG    1       -4.274   1.898  -9.428  0.00  0.00    -0.530 OA
ATOM     14  C   LIG    1       -0.192   0.583  -7.293  0.00  0.00    +0.280 C 
ENDBRANCH   1   3
BRANCH   1  17
ATOM     15  N   LIG    1        0.316   1.574  -2.577  0.00  0.00    -0.730 N 
ATOM     16  H   LIG    1        1.119   1.033  -2.525  0.00  0.00    +0.400 HD
ATOM     17  C   LIG    1       -0.421   1.580  -3.706  0.00  0.00    +0.520 C 
ATOM     18  O   LIG    1       -1.425   2.257  -3.771  0.00  0.00    -0.520 OA
BRANCH  15  19
ATOM     19  C   LIG    1       -0.097   2.384  -1.429  0.00  0.00    +0.270 C 
BRANCH  19  21
ATOM     20  C   LIG    1        2.266   2.755  -0.707  0.00  0.00    +0.030 C 
ATOM     21  C   LIG    1        0.904   2.198  -0.287  0.00  0.00    +0.030 C 
BRANCH  21  22
ATOM     22  C   LIG    1        0.415   2.933   0.934  0.00  0.00    -0.080 A 
ATOM     23  C   LIG    1        0.222   4.301   0.886  0.00  0.00    +0.010 A 
ATOM     24  C   LIG    1       -0.230   4.975   2.005  0.00  0.00    +0.000 A 
ATOM     25  C   LIG    1       -0.481   4.282   3.175  0.00  0.00    +0.000 A 
ATOM     26  C   LIG    1       -0.282   2.915   3.225  0.00  0.00    +0.000 A 
ATOM     27  C   LIG    1        0.166   2.241   2.104  0.00  0.00    +0.010 A 
ENDBRANCH  21  22
ENDBRANCH  19  21
ENDBRANCH  15  19
ENDBRANCH   1  17
TORSDOF 5
