REMARK  Name = ZINCpk000000nKCJ.0
REMARK                            x       y       z     vdW  Elec       q    Type
REMARK                         _______ _______ _______ _____ _____    ______ ____
ROOT
ATOM      1  C   LIG    1        5.538  -2.383  -6.833  0.00  0.00    +0.050 C 
ATOM      2  C   LIG    1        4.609  -3.448  -6.230  0.00  0.00    +0.290 C 
ATOM      3  N   LIG    1        4.398  -3.032  -4.841  0.00  0.00    -0.550 N 
ATOM      4  C   LIG    1        5.109  -1.856  -4.580  0.00  0.00    +0.140 A 
ATOM      5  C   LIG    1        5.197  -1.120  -3.397  0.00  0.00    -0.030 A 
ATOM      6  C   LIG    1        5.963   0.026  -3.348  0.00  0.00    +0.050 A 
ATOM      7  C   LIG    1        6.648   0.455  -4.469  0.00  0.00    -0.010 A 
ATOM      8  C   LIG    1        6.564  -0.270  -5.644  0.00  0.00    +0.060 A 
ATOM      9  C   LIG    1        3.636  -3.689  -3.944  0.00  0.00    +0.530 C 
ATOM     10  O   LIG    1        3.057  -4.705  -4.269  0.00  0.00    -0.500 OA
ATOM     11  C   LIG    1        5.799  -1.418  -5.699  0.00  0.00    -0.120 A 
ENDROOT
BRANCH   1  13
ATOM     12  C   LIG    1        5.805  -0.626  -8.589  0.00  0.00    +0.030 C 
ATOM     13  C   LIG    1        4.852  -1.665  -7.997  0.00  0.00    -0.010 C 
ATOM     14  C   LIG    1        4.476  -2.685  -9.075  0.00  0.00    +0.030 C 
ENDBRANCH   1  13
BRANCH   9  15
ATOM     15  C   LIG    1        3.502  -3.163  -2.539  0.00  0.00    +0.320 C 
BRANCH  15  16
ATOM     16  N   LIG    1        2.628  -4.048  -1.766  0.00  0.00    -1.110 NA
ATOM     17  H   LIG    1        2.071  -4.698  -2.223  0.00  0.00    +0.430 HD
BRANCH  16  18
ATOM     18  S   LIG    1        2.590  -3.940  -0.114  0.00  0.00    +2.730 S 
ATOM     19  O   LIG    1        1.634  -4.893   0.329  0.00  0.00    -0.950 OA
ATOM     20  O   LIG    1        3.944  -3.938   0.319  0.00  0.00    -0.960 OA
BRANCH  18  21
ATOM     21  C   LIG    1        1.936  -2.355   0.290  0.00  0.00    -0.820 A 
ATOM     22  C   LIG    1        2.652  -1.220   0.468  0.00  0.00    +0.360 A 
ATOM     23  N   LIG    1        1.785  -0.229   0.764  0.00  0.00    -0.360 N 
ATOM     24  N   LIG    1        0.493  -0.773   0.768  0.00  0.00    -0.290 NA
ATOM     25  C   LIG    1        2.132   1.168   1.033  0.00  0.00    +0.380 C 
ATOM     26  C   LIG    1        0.586  -2.047   0.483  0.00  0.00    +0.340 A 
ENDBRANCH  18  21
ENDBRANCH  16  18
ENDBRANCH  15  16
ENDBRANCH   9  15
TORSDOF 5
