REMARK  Name = ZINCkj00000vpctg.0
REMARK                            x       y       z     vdW  Elec       q    Type
REMARK                         _______ _______ _______ _____ _____    ______ ____
ROOT
ATOM      1  N   LIG    1       -6.775  -0.351   1.883  0.00  0.00    -0.380 N 
ATOM      2  C   LIG    1       -5.644  -1.115   2.426  0.00  0.00    +0.280 C 
ATOM      3  C   LIG    1       -4.443  -0.185   2.612  0.00  0.00    +0.200 C 
ATOM      4  N   LIG    1       -4.080   0.406   1.317  0.00  0.00    -0.530 NA
ATOM      5  C   LIG    1       -5.210   1.154   0.749  0.00  0.00    +0.210 C 
ATOM      6  C   LIG    1       -6.405   0.213   0.578  0.00  0.00    +0.270 C 
ATOM      7  H   LIG    1       -7.011   0.397   2.518  0.00  0.00    +0.420 HD
ENDROOT
BRANCH   1   8
ATOM      8  C   LIG    1       -7.933  -1.240   1.722  0.00  0.00    +0.220 C 
BRANCH   8  10
ATOM      9  C   LIG    1       -9.614  -2.639   2.929  0.00  0.00    +0.050 C 
ATOM     10  C   LIG    1       -8.410  -1.712   3.097  0.00  0.00    +0.200 C 
BRANCH  10  11
ATOM     11  O   LIG    1       -8.786  -0.580   3.885  0.00  0.00    -0.560 OA
ATOM     12  H   LIG    1       -9.500  -0.054   3.501  0.00  0.00    +0.390 HD
ENDBRANCH  10  11
ENDBRANCH   8  10
ENDBRANCH   1   8
BRANCH   4  13
ATOM     13  C   LIG    1       -2.893   1.263   1.444  0.00  0.00    +0.180 C 
BRANCH  13  14
ATOM     14  C   LIG    1       -1.644   0.388   1.573  0.00  0.00    +0.270 C 
BRANCH  14  15
ATOM     15  C   LIG    1       -0.427   1.267   1.709  0.00  0.00    -0.120 A 
ATOM     16  C   LIG    1        0.316   1.596   0.591  0.00  0.00    +0.030 A 
ATOM     17  C   LIG    1        1.435   2.398   0.716  0.00  0.00    +0.030 A 
ATOM     18  C   LIG    1        1.809   2.875   1.958  0.00  0.00    +0.040 A 
ATOM     19  C   LIG    1        1.063   2.551   3.076  0.00  0.00    +0.040 A 
ATOM     20  C   LIG    1       -0.057   1.749   2.952  0.00  0.00    -0.030 A 
ATOM     21 CL   LIG    1       -0.993   1.341   4.356  0.00  0.00    -0.070 Cl
ENDBRANCH  14  15
BRANCH  14  22
ATOM     22  O   LIG    1       -1.513  -0.430   0.409  0.00  0.00    -0.540 OA
ATOM     23  H   LIG    1       -1.428   0.068  -0.415  0.00  0.00    +0.380 HD
ENDBRANCH  14  22
ENDBRANCH  13  14
ENDBRANCH   4  13
TORSDOF 7
