REMARK  Name = ZINCrg00001JduV1.0
REMARK                            x       y       z     vdW  Elec       q    Type
REMARK                         _______ _______ _______ _____ _____    ______ ____
ROOT
ATOM      1  N   LIG    1        6.042   0.247  -3.925  0.00  0.00    -0.720 N 
ATOM      2  H   LIG    1        6.129   1.184  -3.688  0.00  0.00    +0.410 HD
ATOM      3  C   LIG    1        5.026  -0.483  -3.423  0.00  0.00    +0.580 C 
ATOM      4  O   LIG    1        4.917  -1.657  -3.720  0.00  0.00    -0.530 OA
ENDROOT
BRANCH   3   5
ATOM      5  C   LIG    1        4.046   0.143  -2.514  0.00  0.00    -0.200 A 
ATOM      6  C   LIG    1        4.163   1.489  -2.168  0.00  0.00    +0.330 A 
ATOM      7  N   LIG    1        3.292   2.057  -1.358  0.00  0.00    -0.500 NA
ATOM      8  C   LIG    1        2.278   1.381  -0.844  0.00  0.00    +0.400 A 
ATOM      9  N   LIG    1        1.364   2.004  -0.000  0.00  0.00    -0.730 N 
ATOM     10  H   LIG    1        1.630   2.746   0.564  0.00  0.00    +0.420 HD
ATOM     11  C   LIG    1       -0.018   1.503   0.010  0.00  0.00    +0.350 C 
ATOM     12  C   LIG    1        0.002  -0.004   0.002  0.00  0.00    +0.510 C 
ATOM     13  N   LIG    1        1.018  -0.672  -0.579  0.00  0.00    -0.650 N 
ATOM     14  H   LIG    1        1.004  -1.641  -0.608  0.00  0.00    +0.420 HD
ATOM     15  O   LIG    1       -0.904  -0.621   0.522  0.00  0.00    -0.510 OA
ATOM     16  C   LIG    1        2.095   0.024  -1.140  0.00  0.00    +0.050 A 
ATOM     17  C   LIG    1        2.984  -0.609  -1.986  0.00  0.00    +0.140 A 
ENDBRANCH   3   5
BRANCH   1  18
ATOM     18  C   LIG    1        7.014  -0.374  -4.827  0.00  0.00    +0.350 C 
ATOM     19  C   LIG    1        6.476  -0.339  -6.259  0.00  0.00    +0.060 C 
BRANCH  18  25
ATOM     20  C   LIG    1       11.912   0.746  -4.533  0.00  0.00    +0.270 C 
ATOM     21  C   LIG    1       12.221  -0.687  -4.080  0.00  0.00    +0.050 C 
ATOM     22  C   LIG    1       11.430  -1.673  -4.944  0.00  0.00    +0.050 C 
ATOM     23  C   LIG    1        9.936  -1.560  -4.616  0.00  0.00    +0.290 C 
ATOM     24  N   LIG    1        9.549  -0.151  -4.670  0.00  0.00    -0.460 N 
ATOM     25  C   LIG    1        8.316   0.383  -4.761  0.00  0.00    +0.170 A 
ATOM     26  N   LIG    1        8.461   1.683  -4.787  0.00  0.00    -0.280 NA
ATOM     27  N   LIG    1        9.713   1.983  -4.707  0.00  0.00    -0.270 NA
ATOM     28  C   LIG    1       10.415   0.893  -4.636  0.00  0.00    +0.160 A 
BRANCH  20  30
ATOM     29  C   LIG    1       12.813   2.932  -4.137  0.00  0.00    +0.210 C 
ATOM     30  O   LIG    1       12.425   1.676  -3.577  0.00  0.00    -0.360 OA
ENDBRANCH  20  30
ENDBRANCH  18  25
ENDBRANCH   1  18
TORSDOF 4
