REMARK  Name = ZINCpk00000y6wAs.0
REMARK                            x       y       z     vdW  Elec       q    Type
REMARK                         _______ _______ _______ _____ _____    ______ ____
ROOT
ATOM      1  C   LIG    1       -1.415  -2.597   3.438  0.00  0.00    +0.260 C 
ATOM      2  C   LIG    1       -0.785  -1.496   4.294  0.00  0.00    +0.050 C 
ATOM      3  C   LIG    1       -1.673  -0.265   4.326  0.00  0.00    +0.020 C 
ATOM      4  C   LIG    1       -1.797   0.437   2.986  0.00  0.00    +0.020 C 
ATOM      5  C   LIG    1       -2.547  -0.438   1.979  0.00  0.00    +0.280 C 
ATOM      6  N   LIG    1       -1.581  -1.333   1.322  0.00  0.00    -0.600 N 
ATOM      7  C   LIG    1       -1.046  -2.357   1.989  0.00  0.00    +0.510 C 
ATOM      8  O   LIG    1       -0.260  -3.095   1.435  0.00  0.00    -0.510 OA
ENDROOT
BRANCH   1   9
ATOM      9  N   LIG    1       -2.872  -2.561   3.584  0.00  0.00    -0.700 N 
ATOM     10  H   LIG    1       -3.304  -1.773   3.950  0.00  0.00    +0.410 HD
BRANCH   9  15
ATOM     11  C   LIG    1       -5.687  -4.671   2.963  0.00  0.00    +0.540 A 
ATOM     12  N   LIG    1       -5.136  -5.764   2.461  0.00  0.00    -0.600 NA
ATOM     13  C   LIG    1       -3.824  -5.856   2.305  0.00  0.00    +0.240 A 
ATOM     14  C   LIG    1       -3.024  -4.793   2.673  0.00  0.00    -0.170 A 
ATOM     15  C   LIG    1       -3.634  -3.653   3.201  0.00  0.00    +0.470 A 
ATOM     16  C   LIG    1       -3.211  -7.108   1.731  0.00  0.00    +0.140 C 
ATOM     17  N   LIG    1       -4.957  -3.633   3.334  0.00  0.00    -0.580 NA
BRANCH  11  19
ATOM     18  C   LIG    1       -7.776  -5.766   2.698  0.00  0.00    +0.270 C 
ATOM     19  O   LIG    1       -7.033  -4.617   3.107  0.00  0.00    -0.290 OA
ENDBRANCH  11  19
ENDBRANCH   9  15
ENDBRANCH   1   9
BRANCH   6  20
ATOM     20  C   LIG    1       -1.209  -1.103  -0.076  0.00  0.00    +0.460 C 
BRANCH  20  21
ATOM     21  C   LIG    1       -0.016  -0.184  -0.134  0.00  0.00    +0.160 A 
ATOM     22  N   LIG    1        1.246  -0.542  -0.130  0.00  0.00    -0.450 NA
ATOM     23  C   LIG    1        1.947   0.604  -0.193  0.00  0.00    +0.170 A 
ATOM     24  N   LIG    1        1.092   1.582  -0.231  0.00  0.00    -0.380 NA
ATOM     25  C   LIG    1        3.448   0.731  -0.215  0.00  0.00    +0.210 C 
ATOM     26  O   LIG    1       -0.041   1.151  -0.198  0.00  0.00    +0.080 OA
ENDBRANCH  20  21
ENDBRANCH   6  20
TORSDOF 5
