REMARK  Name = ZINCtV000002wgts.0
REMARK                            x       y       z     vdW  Elec       q    Type
REMARK                         _______ _______ _______ _____ _____    ______ ____
ROOT
ATOM      1  N   LIG    1       -3.498   0.660  -0.197  0.00  0.00    -0.590 N 
ATOM      2  C   LIG    1       -2.163   0.584  -0.030  0.00  0.00    +0.610 C 
ATOM      3  O   LIG    1       -1.487   1.595  -0.060  0.00  0.00    -0.510 OA
ENDROOT
BRANCH   2   4
ATOM      4  C   LIG    1       -1.525  -0.717   0.188  0.00  0.00    -0.070 A 
ATOM      5  C   LIG    1       -0.169  -0.955   0.241  0.00  0.00    +0.050 A 
ATOM      6  C   LIG    1       -0.008  -2.326   0.460  0.00  0.00    -0.030 A 
ATOM      7  C   LIG    1       -1.258  -2.871   0.531  0.00  0.00    +0.050 A 
ATOM      8  O   LIG    1       -2.164  -1.893   0.366  0.00  0.00    -0.140 OA
BRANCH   7   9
ATOM      9  C   LIG    1       -1.563  -4.299   0.753  0.00  0.00    -0.020 A 
ATOM     10  C   LIG    1       -0.943  -5.278  -0.025  0.00  0.00    +0.060 A 
ATOM     11  C   LIG    1       -1.228  -6.610   0.191  0.00  0.00    +0.030 A 
ATOM     12  C   LIG    1       -2.136  -6.977   1.169  0.00  0.00    +0.050 A 
ATOM     13  C   LIG    1       -2.760  -6.013   1.940  0.00  0.00    +0.030 A 
ATOM     14  C   LIG    1       -2.479  -4.676   1.739  0.00  0.00    -0.020 A 
ATOM     15 CL   LIG    1       -3.263  -3.467   2.707  0.00  0.00    -0.050 Cl
ENDBRANCH   7   9
ENDBRANCH   2   4
BRANCH   1  17
ATOM     16  C   LIG    1       -4.630  -0.793   1.411  0.00  0.00    +0.020 C 
ATOM     17  C   LIG    1       -4.323  -0.544  -0.067  0.00  0.00    +0.280 C 
ENDBRANCH   1  17
BRANCH   1  18
ATOM     18  C   LIG    1       -4.125   1.947  -0.509  0.00  0.00    +0.340 C 
BRANCH  18  19
ATOM     19  C   LIG    1       -4.181   2.129  -2.004  0.00  0.00    +0.480 C 
ATOM     20  N   LIG    1       -4.720   3.248  -2.527  0.00  0.00    -0.670 N 
ATOM     21  H   LIG    1       -5.117   3.913  -1.943  0.00  0.00    +0.420 HD
ATOM     22  O   LIG    1       -3.740   1.269  -2.737  0.00  0.00    -0.480 OA
BRANCH  20  23
ATOM     23  C   LIG    1       -4.707   3.450  -3.912  0.00  0.00    +0.170 A 
ATOM     24  C   LIG    1       -3.569   3.148  -4.649  0.00  0.00    -0.030 A 
ATOM     25  C   LIG    1       -3.561   3.344  -6.018  0.00  0.00    +0.050 A 
ATOM     26  C   LIG    1       -4.680   3.851  -6.651  0.00  0.00    +0.030 A 
ATOM     27  C   LIG    1       -5.813   4.159  -5.920  0.00  0.00    +0.050 A 
ATOM     28 CL   LIG    1       -2.160   2.518  -3.854  0.00  0.00    -0.020 Cl
ATOM     29  C   LIG    1       -5.830   3.960  -4.552  0.00  0.00    -0.050 A 
ATOM     30 CL   LIG    1       -7.253   4.346  -3.635  0.00  0.00    -0.050 Cl
ENDBRANCH  20  23
ENDBRANCH  18  19
ENDBRANCH   1  18
TORSDOF 6
