REMARK  Name = ZINCpe000000SzqL.0
REMARK                            x       y       z     vdW  Elec       q    Type
REMARK                         _______ _______ _______ _____ _____    ______ ____
ROOT
ATOM      1  N   LIG    1       -3.189   1.695  -3.204  0.00  0.00    -0.710 N 
ATOM      2  H   LIG    1       -2.261   1.847  -3.441  0.00  0.00    +0.410 HD
ENDROOT
BRANCH   1   3
ATOM      3  C   LIG    1       -3.561   1.619  -1.867  0.00  0.00    +0.390 A 
ATOM      4  C   LIG    1       -4.893   1.400  -1.525  0.00  0.00    +0.150 A 
ATOM      5  N   LIG    1       -5.246   1.327  -0.255  0.00  0.00    -0.380 NA
ATOM      6  C   LIG    1       -4.337   1.458   0.695  0.00  0.00    +0.180 A 
ATOM      7  C   LIG    1       -3.007   1.683   0.361  0.00  0.00    +0.380 A 
ATOM      8  N   LIG    1       -2.647   1.756  -0.914  0.00  0.00    -0.530 NA
BRANCH   7   9
ATOM      9  N   LIG    1       -2.047   1.826   1.367  0.00  0.00    -0.330 N 
ATOM     10  N   LIG    1       -2.285   2.254   2.680  0.00  0.00    -0.280 NA
ATOM     11  C   LIG    1       -1.145   2.265   3.320  0.00  0.00    +0.100 A 
ATOM     12  C   LIG    1       -0.141   1.840   2.442  0.00  0.00    -0.100 A 
ATOM     13  C   LIG    1       -0.945   2.668   4.759  0.00  0.00    +0.160 C 
ATOM     14  C   LIG    1       -0.718   1.572   1.248  0.00  0.00    +0.110 A 
ATOM     15  C   LIG    1       -0.013   1.086   0.008  0.00  0.00    +0.160 C 
ENDBRANCH   7   9
ENDBRANCH   1   3
BRANCH   1  16
ATOM     16  C   LIG    1       -4.198   1.544  -4.255  0.00  0.00    +0.280 C 
BRANCH  16  17
ATOM     17  C   LIG    1       -3.530   1.667  -5.626  0.00  0.00    +0.190 C 
BRANCH  17  23
ATOM     18  C   LIG    1       -6.736  -1.476 -10.005  0.00  0.00    +0.100 C 
ATOM     19  C   LIG    1       -6.019  -0.153 -10.090  0.00  0.00    +0.510 C 
ATOM     20  N   LIG    1       -5.812   0.574  -8.974  0.00  0.00    -0.620 N 
ATOM     21  C   LIG    1       -5.114   1.867  -9.035  0.00  0.00    +0.290 C 
ATOM     22  C   LIG    1       -3.988   1.862  -7.995  0.00  0.00    +0.170 C 
ATOM     23  N   LIG    1       -4.542   1.516  -6.679  0.00  0.00    -0.530 NA
ATOM     24  C   LIG    1       -5.105   0.159  -6.678  0.00  0.00    +0.160 C 
ATOM     25  C   LIG    1       -6.276   0.094  -7.663  0.00  0.00    +0.280 C 
ATOM     26  O   LIG    1       -5.629   0.257 -11.162  0.00  0.00    -0.540 OA
ENDBRANCH  17  23
ENDBRANCH  16  17
ENDBRANCH   1  16
TORSDOF 5
