REMARK  Name = ZINCvU00000009bW.0
REMARK                            x       y       z     vdW  Elec       q    Type
REMARK                         _______ _______ _______ _____ _____    ______ ____
ROOT
ATOM      1  N   LIG    1        0.956  -0.890  -1.403  0.00  0.00    -0.450 N 
ATOM      2  C   LIG    1       -0.354  -0.506  -1.349  0.00  0.00    +0.150 A 
ATOM      3  N   LIG    1       -0.385   0.798  -1.513  0.00  0.00    -0.290 NA
ATOM      4  N   LIG    1        0.808   1.252  -1.663  0.00  0.00    -0.260 NA
ATOM      5  C   LIG    1        1.673   0.266  -1.605  0.00  0.00    +0.230 A 
ENDROOT
BRANCH   5   6
ATOM      6  C   LIG    1        3.142   0.378  -1.734  0.00  0.00    -0.010 A 
ATOM      7  C   LIG    1        3.911  -0.759  -1.989  0.00  0.00    +0.030 A 
ATOM      8  C   LIG    1        5.280  -0.647  -2.113  0.00  0.00    +0.040 A 
ATOM      9  C   LIG    1        5.893   0.587  -1.976  0.00  0.00    -0.020 A 
ATOM     10  C   LIG    1        5.135   1.717  -1.718  0.00  0.00    +0.040 A 
ATOM     11 CL   LIG    1        7.617   0.718  -2.126  0.00  0.00    -0.060 Cl
ATOM     12  C   LIG    1        3.765   1.619  -1.597  0.00  0.00    +0.090 A 
ENDBRANCH   5   6
BRANCH   1  13
ATOM     13  C   LIG    1        1.486  -2.249  -1.271  0.00  0.00    +0.330 C 
BRANCH  13  14
ATOM     14  C   LIG    1        1.496  -2.928  -2.642  0.00  0.00    +0.170 C 
BRANCH  14  16
ATOM     15  C   LIG    1        2.066  -4.979  -3.743  0.00  0.00    +0.230 C 
ATOM     16  O   LIG    1        2.013  -4.254  -2.513  0.00  0.00    -0.380 OA
ENDBRANCH  14  16
ENDBRANCH  13  14
ENDBRANCH   1  13
BRANCH   2  17
ATOM     17  S   LIG    1       -1.744  -1.562  -1.108  0.00  0.00    +0.090 S 
BRANCH  17  18
ATOM     18  C   LIG    1       -3.079  -0.341  -1.159  0.00  0.00    +0.110 C 
BRANCH  18  19
ATOM     19  C   LIG    1       -4.403  -1.036  -0.968  0.00  0.00    +0.540 C 
ATOM     20  N   LIG    1       -5.545  -0.322  -0.970  0.00  0.00    -0.720 N 
ATOM     21  H   LIG    1       -5.516   0.640  -1.094  0.00  0.00    +0.400 HD
ATOM     22  O   LIG    1       -4.439  -2.239  -0.813  0.00  0.00    -0.520 OA
BRANCH  20  23
ATOM     23  C   LIG    1       -6.832  -0.997  -0.785  0.00  0.00    +0.290 C 
ATOM     24  C   LIG    1       -7.126  -1.134   0.710  0.00  0.00    +0.040 C 
BRANCH  23  25
ATOM     25  C   LIG    1       -7.923  -0.189  -1.439  0.00  0.00    -0.080 A 
ATOM     26  C   LIG    1       -7.772   1.176  -1.595  0.00  0.00    +0.050 A 
ATOM     27  C   LIG    1       -8.772   1.918  -2.195  0.00  0.00    +0.050 A 
ATOM     28  C   LIG    1       -9.924   1.295  -2.641  0.00  0.00    -0.020 A 
ATOM     29  C   LIG    1      -10.075  -0.072  -2.486  0.00  0.00    +0.050 A 
ATOM     30 CL   LIG    1      -11.180   2.227  -3.394  0.00  0.00    -0.050 Cl
ATOM     31  C   LIG    1       -9.072  -0.814  -1.889  0.00  0.00    -0.020 A 
ATOM     32 CL   LIG    1       -9.258  -2.530  -1.701  0.00  0.00    -0.040 Cl
ENDBRANCH  23  25
ENDBRANCH  20  23
ENDBRANCH  18  19
ENDBRANCH  17  18
ENDBRANCH   2  17
TORSDOF 9
