REMARK  Name = ZINCkj000005iwa4.0
REMARK                            x       y       z     vdW  Elec       q    Type
REMARK                         _______ _______ _______ _____ _____    ______ ____
ROOT
ATOM      1  C   LIG    1        0.611   5.807   3.674  0.00  0.00    +0.230 C 
ENDROOT
BRANCH   1   2
ATOM      2  O   LIG    1        2.018   5.658   3.473  0.00  0.00    -0.540 OA
ATOM      3  H   LIG    1        2.500   5.374   4.262  0.00  0.00    +0.390 HD
ENDBRANCH   1   2
BRANCH   1   4
ATOM      4  C   LIG    1        0.013   4.468   4.111  0.00  0.00    +0.250 C 
BRANCH   4   5
ATOM      5  N   LIG    1        0.255   3.461   3.069  0.00  0.00    -0.500 N 
ATOM      6  H   LIG    1       -0.179   3.758   2.208  0.00  0.00    +0.440 HD
ATOM      7  H   LIG    1        1.248   3.356   2.927  0.00  0.00    +0.430 HD
BRANCH   5   8
ATOM      8  C   LIG    1       -0.319   2.176   3.489  0.00  0.00    +0.290 C 
BRANCH   8   9
ATOM      9  C   LIG    1       -0.068   1.127   2.404  0.00  0.00    +0.160 C 
BRANCH   9  11
ATOM     10  C   LIG    1       -0.013   1.086   0.008  0.00  0.00    +0.230 C 
ATOM     11  O   LIG    1       -0.682   1.547   1.184  0.00  0.00    -0.380 OA
ENDBRANCH   9  11
BRANCH   9  12
ATOM     12  C   LIG    1       -0.666  -0.212   2.841  0.00  0.00    +0.190 C 
BRANCH  12  13
ATOM     13  O   LIG    1       -2.049  -0.037   3.154  0.00  0.00    -0.570 OA
ATOM     14  H   LIG    1       -2.493  -0.847   3.439  0.00  0.00    +0.400 HD
ENDBRANCH  12  13
ENDBRANCH   9  12
ENDBRANCH   8   9
ENDBRANCH   5   8
ENDBRANCH   4   5
ENDBRANCH   1   4
BRANCH   1  15
ATOM     15  C   LIG    1        0.359   6.856   4.759  0.00  0.00    +0.200 C 
BRANCH  15  16
ATOM     16  O   LIG    1        0.813   8.132   4.303  0.00  0.00    -0.290 OA
BRANCH  16  17
ATOM     17  C   LIG    1        0.662   9.181   5.153  0.00  0.00    +0.150 A 
ATOM     18  C   LIG    1        0.083   8.988   6.399  0.00  0.00    -0.060 A 
ATOM     19  C   LIG    1       -0.065  10.056   7.264  0.00  0.00    +0.020 A 
ATOM     20  C   LIG    1        0.353  11.319   6.885  0.00  0.00    +0.020 A 
ATOM     21  C   LIG    1        0.926  11.515   5.641  0.00  0.00    +0.020 A 
ATOM     22 CL   LIG    1        1.450  13.101   5.167  0.00  0.00    -0.030 Cl
ATOM     23 CL   LIG    1       -0.782   9.813   8.827  0.00  0.00    -0.040 Cl
ATOM     24  C   LIG    1        1.081  10.448   4.774  0.00  0.00    +0.020 A 
ENDBRANCH  16  17
ENDBRANCH  15  16
ENDBRANCH   1  15
TORSDOF 11
