REMARK  Name = ZINCpk00000e9g6e.0
REMARK                            x       y       z     vdW  Elec       q    Type
REMARK                         _______ _______ _______ _____ _____    ______ ____
ROOT
ATOM      1  N   LIG    1        1.688  -2.485  -2.303  0.00  0.00    -0.590 N 
ATOM      2  C   LIG    1        3.087  -2.039  -2.207  0.00  0.00    +0.280 C 
ATOM      3  C   LIG    1        3.100  -0.510  -2.098  0.00  0.00    +0.230 C 
ATOM      4  O   LIG    1        2.231  -0.106  -1.037  0.00  0.00    -0.350 OA
ATOM      5  C   LIG    1        0.860  -0.455  -1.240  0.00  0.00    +0.140 C 
ATOM      6  C   LIG    1        0.731  -1.981  -1.305  0.00  0.00    +0.280 C 
ENDROOT
BRANCH   1  14
ATOM      7  C   LIG    1        1.705  -4.573  -5.307  0.00  0.00    +0.270 A 
ATOM      8  N   LIG    1        0.484  -5.064  -5.266  0.00  0.00    -0.500 NA
ATOM      9  C   LIG    1       -0.361  -4.737  -4.282  0.00  0.00    +0.490 A 
ATOM     10  N   LIG    1       -1.616  -5.090  -4.024  0.00  0.00    -0.540 NA
ATOM     11  C   LIG    1       -2.031  -4.492  -2.914  0.00  0.00    +0.500 A 
ATOM     12  N   LIG    1       -1.069  -3.745  -2.430  0.00  0.00    -0.360 NA
ATOM     13  N   LIG    1        0.029  -3.884  -3.288  0.00  0.00    -0.360 N 
ATOM     14  C   LIG    1        1.285  -3.349  -3.297  0.00  0.00    +0.490 A 
ATOM     15  C   LIG    1        2.147  -3.696  -4.320  0.00  0.00    -0.160 A 
BRANCH   7  16
ATOM     16  C   LIG    1        2.631  -4.963  -6.431  0.00  0.00    +0.120 C 
BRANCH  16  18
ATOM     17  C   LIG    1        2.849  -6.324  -8.514  0.00  0.00    +0.000 C 
ATOM     18  C   LIG    1        1.909  -5.928  -7.374  0.00  0.00    +0.030 C 
ENDBRANCH  16  18
ENDBRANCH   7  16
ENDBRANCH   1  14
BRANCH   5  19
ATOM     19  C   LIG    1        0.020   0.079  -0.078  0.00  0.00    +0.360 C 
BRANCH  19  20
ATOM     20  N   LIG    1        0.047   1.544  -0.089  0.00  0.00    -0.370 N 
ATOM     21  C   LIG    1       -1.029   2.358  -0.121  0.00  0.00    +0.220 A 
ATOM     22  C   LIG    1       -0.580   3.635  -0.116  0.00  0.00    -0.240 A 
ATOM     23  C   LIG    1        0.818   3.600  -0.090  0.00  0.00    +0.220 A 
ATOM     24  C   LIG    1       -1.436   4.875  -0.142  0.00  0.00    +0.110 C 
ATOM     25  N   LIG    1        1.195   2.347  -0.074  0.00  0.00    -0.270 NA
ENDBRANCH  19  20
ENDBRANCH   5  19
TORSDOF 5
