REMARK  Name = ZINCrg00000b3cdI.0
REMARK                            x       y       z     vdW  Elec       q    Type
REMARK                         _______ _______ _______ _____ _____    ______ ____
ROOT
ATOM      1  C   LIG    1        2.400   0.047  -0.043  0.00  0.00    +0.250 A 
ATOM      2  C   LIG    1        2.383   1.437  -0.029  0.00  0.00    -0.080 A 
ATOM      3  C   LIG    1        1.183   2.109   0.002  0.00  0.00    +0.040 A 
ATOM      4  C   LIG    1       -0.017   1.390   0.010  0.00  0.00    -0.190 A 
ATOM      5  C   LIG    1       -1.295   2.132   0.010  0.00  0.00    +0.570 C 
ATOM      6  N   LIG    1       -1.457   3.134  -0.879  0.00  0.00    -0.720 N 
ATOM      7  H   LIG    1       -2.252   3.689  -0.845  0.00  0.00    +0.410 HD
ATOM      8  C   LIG    1       -0.435   3.384  -1.892  0.00  0.00    +0.270 C 
ATOM      9  C   LIG    1        0.735   4.173  -1.314  0.00  0.00    +0.030 C 
ATOM     10  O   LIG    1       -2.180   1.846   0.793  0.00  0.00    -0.520 OA
ATOM     11  C   LIG    1        0.002  -0.004   0.002  0.00  0.00    +0.230 A 
ATOM     12  C   LIG    1        1.143   3.613   0.046  0.00  0.00    +0.070 C 
ATOM     13  C   LIG    1        1.208  -0.670  -0.024  0.00  0.00    -0.720 A 
ENDROOT
BRANCH  13  14
ATOM     14  S   LIG    1        1.241  -2.431  -0.034  0.00  0.00    +2.710 S 
ATOM     15  O   LIG    1       -0.114  -2.858  -0.045  0.00  0.00    -0.960 OA
ATOM     16  O   LIG    1        2.171  -2.821   0.968  0.00  0.00    -0.940 OA
BRANCH  14  17
ATOM     17  N   LIG    1        1.891  -2.902  -1.482  0.00  0.00    -1.110 NA
ATOM     18  H   LIG    1        1.349  -3.391  -2.121  0.00  0.00    +0.420 HD
BRANCH  17  19
ATOM     19  C   LIG    1        3.284  -2.579  -1.800  0.00  0.00    +0.330 C 
BRANCH  19  20
ATOM     20  C   LIG    1        3.746  -3.423  -2.990  0.00  0.00    -0.100 C 
ATOM     21  C   LIG    1        3.784  -4.952  -3.025  0.00  0.00    +0.010 C 
ATOM     22  C   LIG    1        3.149  -4.936  -4.417  0.00  0.00    +0.000 C 
ATOM     23  C   LIG    1        4.545  -4.882  -5.052  0.00  0.00    +0.000 C 
ATOM     24  C   LIG    1        4.509  -3.353  -5.013  0.00  0.00    +0.000 C 
ATOM     25  C   LIG    1        5.175  -4.903  -3.659  0.00  0.00    +0.000 C 
ATOM     26  C   LIG    1        3.115  -3.402  -4.383  0.00  0.00    +0.010 C 
ATOM     27  C   LIG    1        5.139  -3.374  -3.619  0.00  0.00    +0.020 C 
ENDBRANCH  19  20
ENDBRANCH  17  19
ENDBRANCH  14  17
ENDBRANCH  13  14
BRANCH   1  29
ATOM     28  C   LIG    1        4.771   0.182  -0.092  0.00  0.00    +0.270 C 
ATOM     29  O   LIG    1        3.585  -0.614  -0.074  0.00  0.00    -0.310 OA
ENDBRANCH   1  29
TORSDOF 5
