REMARK  Name = ZINCvU00000007Ix.0
REMARK                            x       y       z     vdW  Elec       q    Type
REMARK                         _______ _______ _______ _____ _____    ______ ____
ROOT
ATOM      1  C   LIG    1       -7.532   3.158   1.831  0.00  0.00    +0.150 A 
ATOM      2  N   LIG    1       -7.232   2.795   0.605  0.00  0.00    -0.290 NA
ATOM      3  N   LIG    1       -8.201   3.078  -0.190  0.00  0.00    -0.260 NA
ATOM      4  C   LIG    1       -9.183   3.640   0.481  0.00  0.00    +0.260 A 
ATOM      5  N   LIG    1       -8.786   3.703   1.798  0.00  0.00    -0.450 N 
ENDROOT
BRANCH   4   6
ATOM      6  C   LIG    1      -10.465   4.107  -0.071  0.00  0.00    -0.130 A 
ATOM      7  C   LIG    1      -10.977   3.747  -1.268  0.00  0.00    +0.080 A 
ATOM      8  C   LIG    1      -12.198   4.314  -1.565  0.00  0.00    +0.020 A 
ATOM      9  C   LIG    1      -12.683   5.138  -0.631  0.00  0.00    -0.030 A 
ATOM     10  S   LIG    1      -11.565   5.226   0.724  0.00  0.00    +0.120 S 
ENDBRANCH   4   6
BRANCH   1  11
ATOM     11  S   LIG    1       -6.511   2.970   3.255  0.00  0.00    +0.080 S 
BRANCH  11  12
ATOM     12  C   LIG    1       -5.064   2.187   2.503  0.00  0.00    +0.080 C 
BRANCH  12  13
ATOM     13  C   LIG    1       -4.027   1.924   3.565  0.00  0.00    +0.440 C 
ATOM     14  O   LIG    1       -4.245   2.236   4.717  0.00  0.00    -0.440 OA
BRANCH  13  19
ATOM     15  C   LIG    1       -0.745   0.419   3.314  0.00  0.00    -0.260 A 
ATOM     16  C   LIG    1       -1.194   0.374   2.003  0.00  0.00    +0.120 A 
ATOM     17  N   LIG    1       -2.419   0.915   1.951  0.00  0.00    -0.520 N 
ATOM     18  H   LIG    1       -2.957   1.011   1.149  0.00  0.00    +0.420 HD
ATOM     19  C   LIG    1       -2.797   1.313   3.218  0.00  0.00    -0.100 A 
ATOM     20  C   LIG    1       -0.430  -0.184   0.830  0.00  0.00    +0.160 C 
ATOM     21  C   LIG    1       -1.768   1.018   4.084  0.00  0.00    -0.010 A 
ATOM     22  C   LIG    1       -1.739   1.282   5.568  0.00  0.00    +0.140 C 
BRANCH  15  24
ATOM     23  C   LIG    1        0.719  -1.514   4.182  0.00  0.00    +0.070 C 
ATOM     24  C   LIG    1        0.548  -0.064   3.809  0.00  0.00    +0.440 C 
ATOM     25  O   LIG    1        1.481   0.704   3.919  0.00  0.00    -0.450 OA
ENDBRANCH  15  24
ENDBRANCH  13  19
ENDBRANCH  12  13
ENDBRANCH  11  12
ENDBRANCH   1  11
BRANCH   5  26
ATOM     26  C   LIG    1       -9.546   4.244   2.927  0.00  0.00    +0.360 C 
BRANCH  26  27
ATOM     27  C   LIG    1      -10.262   3.122   3.634  0.00  0.00    -0.130 A 
ATOM     28  C   LIG    1      -11.493   2.690   3.175  0.00  0.00    +0.020 A 
ATOM     29  C   LIG    1      -12.147   1.657   3.821  0.00  0.00    +0.010 A 
ATOM     30  C   LIG    1      -11.576   1.064   4.931  0.00  0.00    +0.030 A 
ATOM     31  C   LIG    1      -10.348   1.499   5.393  0.00  0.00    +0.010 A 
ATOM     32  C   LIG    1       -9.691   2.528   4.744  0.00  0.00    +0.040 A 
ENDBRANCH  26  27
ENDBRANCH   5  26
TORSDOF 8
