REMARK  Name = ZINCvU0000000IQo.0
REMARK                            x       y       z     vdW  Elec       q    Type
REMARK                         _______ _______ _______ _____ _____    ______ ____
ROOT
ATOM      1  C   LIG    1       -2.793   3.388  -2.754  0.00  0.00    +0.140 A 
ATOM      2  N   LIG    1       -3.025   4.028  -3.876  0.00  0.00    -0.290 NA
ATOM      3  N   LIG    1       -1.968   4.660  -4.245  0.00  0.00    -0.270 NA
ATOM      4  C   LIG    1       -1.009   4.467  -3.385  0.00  0.00    +0.190 A 
ATOM      5  N   LIG    1       -1.500   3.653  -2.403  0.00  0.00    -0.450 N 
ENDROOT
BRANCH   5   6
ATOM      6  C   LIG    1       -0.786   3.161  -1.222  0.00  0.00    +0.230 C 
ATOM      7  C   LIG    1       -0.755   1.631  -1.244  0.00  0.00    +0.020 C 
ATOM      8  C   LIG    1       -0.010   1.118  -0.011  0.00  0.00    +0.030 C 
ATOM      9  C   LIG    1       -0.727   1.595   1.254  0.00  0.00    +0.010 C 
ATOM     10  C   LIG    1       -0.758   3.124   1.276  0.00  0.00    +0.030 C 
ATOM     11  C   LIG    1       -1.504   3.638   0.043  0.00  0.00    +0.010 C 
ENDBRANCH   5   6
BRANCH   1  12
ATOM     12  S   LIG    1       -3.935   2.382  -1.866  0.00  0.00    +0.090 S 
BRANCH  12  13
ATOM     13  C   LIG    1       -5.383   2.526  -2.942  0.00  0.00    +0.100 C 
BRANCH  13  16
ATOM     14  N   LIG    1       -7.708   1.681  -3.001  0.00  0.00    -0.660 N 
ATOM     15  H   LIG    1       -7.852   2.221  -3.793  0.00  0.00    +0.420 HD
ATOM     16  C   LIG    1       -6.520   1.722  -2.365  0.00  0.00    +0.540 C 
ATOM     17  O   LIG    1       -6.366   1.111  -1.328  0.00  0.00    -0.510 OA
BRANCH  14  23
ATOM     18  C   LIG    1       -9.606   0.231  -3.415  0.00  0.00    -0.210 A 
ATOM     19  C   LIG    1      -10.622  -0.593  -2.917  0.00  0.00    +0.090 A 
ATOM     20  C   LIG    1      -10.761  -0.766  -1.558  0.00  0.00    -0.020 A 
ATOM     21  C   LIG    1       -9.895  -0.134  -0.679  0.00  0.00    +0.070 A 
ATOM     22  C   LIG    1       -8.884   0.677  -1.154  0.00  0.00    +0.010 A 
ATOM     23  C   LIG    1       -8.727   0.865  -2.520  0.00  0.00    +0.210 A 
BRANCH  18  25
ATOM     24  C   LIG    1      -10.470  -0.159  -5.810  0.00  0.00    +0.090 C 
ATOM     25  C   LIG    1       -9.456   0.426  -4.862  0.00  0.00    +0.400 C 
ATOM     26  O   LIG    1       -8.515   1.058  -5.294  0.00  0.00    -0.470 OA
ENDBRANCH  18  25
ENDBRANCH  14  23
ENDBRANCH  13  16
ENDBRANCH  12  13
ENDBRANCH   1  12
BRANCH   4  27
ATOM     27  C   LIG    1        0.385   5.035  -3.460  0.00  0.00    +0.250 C 
BRANCH  27  28
ATOM     28  C   LIG    1        1.275   4.083  -4.217  0.00  0.00    -0.190 A 
ATOM     29  C   LIG    1        1.470   4.098  -5.536  0.00  0.00    +0.040 A 
ATOM     30  C   LIG    1        2.336   3.126  -6.008  0.00  0.00    +0.010 A 
ATOM     31  C   LIG    1        2.837   2.317  -5.074  0.00  0.00    -0.030 A 
ATOM     32  S   LIG    1        2.210   2.779  -3.497  0.00  0.00    +0.090 S 
ENDBRANCH  27  28
ENDBRANCH   4  27
TORSDOF 8
