REMARK  Name = ZINCpe00000VVGl6.0
REMARK                            x       y       z     vdW  Elec       q    Type
REMARK                         _______ _______ _______ _____ _____    ______ ____
ROOT
ATOM      1  O   LIG    1        2.094   8.277   0.120  0.00  0.00    -0.580 OA
ATOM      2  C   LIG    1        2.075   9.489   0.035  0.00  0.00    +0.710 C 
ATOM      3  N   LIG    1        3.229  10.176  -0.073  0.00  0.00    -0.630 N 
ATOM      4  C   LIG    1        4.516   9.475  -0.195  0.00  0.00    +0.320 C 
ATOM      5  C   LIG    1        5.265  10.048  -1.408  0.00  0.00    +0.170 C 
ATOM      6  N   LIG    1        5.364  11.508  -1.271  0.00  0.00    -0.530 NA
ATOM      7  C   LIG    1        4.036  12.135  -1.280  0.00  0.00    +0.170 C 
ATOM      8  C   LIG    1        3.236  11.647  -0.067  0.00  0.00    +0.280 C 
ATOM      9  N   LIG    1        0.898  10.147   0.050  0.00  0.00    -0.750 N 
ATOM     10  H   LIG    1        0.885  11.117   0.057  0.00  0.00    +0.400 HD
ENDROOT
BRANCH   6  11
ATOM     11  C   LIG    1        6.223  12.078  -2.318  0.00  0.00    +0.240 C 
BRANCH  11  12
ATOM     12  C   LIG    1        7.477  11.253  -2.443  0.00  0.00    -0.140 A 
ATOM     13  C   LIG    1        7.526  10.178  -3.317  0.00  0.00    +0.060 A 
ATOM     14  C   LIG    1        8.702   9.447  -3.399  0.00  0.00    -0.030 A 
ATOM     15  C   LIG    1        9.779   9.813  -2.614  0.00  0.00    +0.260 A 
ATOM     16  N   LIG    1        9.696  10.842  -1.793  0.00  0.00    -0.480 NA
ATOM     17  C   LIG    1        8.596  11.562  -1.693  0.00  0.00    +0.280 A 
ENDBRANCH  11  12
ENDBRANCH   6  11
BRANCH   9  18
ATOM     18  C   LIG    1       -0.360   9.397   0.056  0.00  0.00    +0.290 C 
BRANCH  18  19
ATOM     19  C   LIG    1       -1.537  10.375   0.073  0.00  0.00    +0.260 C 
BRANCH  19  20
ATOM     20  N   LIG    1       -2.795   9.625   0.079  0.00  0.00    -0.710 N 
ATOM     21  H   LIG    1       -2.782   8.655   0.072  0.00  0.00    +0.410 HD
BRANCH  20  22
ATOM     22  C   LIG    1       -4.008  10.303   0.094  0.00  0.00    +0.360 A 
ATOM     23  C   LIG    1       -4.030  11.696   0.104  0.00  0.00    +0.150 A 
ATOM     24  N   LIG    1       -5.184  12.336   0.118  0.00  0.00    -0.400 NA
ATOM     25  C   LIG    1       -6.318  11.656   0.123  0.00  0.00    +0.150 A 
ATOM     26  C   LIG    1       -6.301  10.274   0.119  0.00  0.00    +0.280 A 
ATOM     27  N   LIG    1       -5.149   9.626   0.099  0.00  0.00    -0.500 NA
ENDBRANCH  20  22
ENDBRANCH  19  20
ENDBRANCH  18  19
ENDBRANCH   9  18
TORSDOF 6
