REMARK  Name = ZINCnE000008J7l9.0
REMARK                            x       y       z     vdW  Elec       q    Type
REMARK                         _______ _______ _______ _____ _____    ______ ____
ROOT
ATOM      1  C   LIG    1        5.226  -1.984  -0.059  0.00  0.00    +0.130 C 
ENDROOT
BRANCH   1   2
ATOM      2  C   LIG    1        5.269  -3.490  -0.068  0.00  0.00    -0.140 A 
ATOM      3  C   LIG    1        5.396  -4.298   0.994  0.00  0.00    +0.220 A 
ATOM      4  O   LIG    1        5.396  -5.583   0.600  0.00  0.00    -0.200 OA
ATOM      5  C   LIG    1        5.269  -5.676  -0.740  0.00  0.00    +0.020 A 
ATOM      6  C   LIG    1        5.216  -6.749  -1.620  0.00  0.00    +0.060 A 
ATOM      7  C   LIG    1        5.063  -6.526  -2.971  0.00  0.00    -0.040 A 
ATOM      8  C   LIG    1        4.974  -5.230  -3.470  0.00  0.00    +0.100 A 
ATOM      9  C   LIG    1        5.030  -4.150  -2.610  0.00  0.00    +0.030 A 
ATOM     10  C   LIG    1        5.176  -4.367  -1.241  0.00  0.00    -0.070 A 
BRANCH   8  11
ATOM     11  O   LIG    1        4.832  -5.026  -4.807  0.00  0.00    -0.320 OA
ATOM     12  C   LIG    1        4.781  -6.188  -5.639  0.00  0.00    +0.230 C 
ENDBRANCH   8  11
ENDBRANCH   1   2
BRANCH   1  14
ATOM     13  N   LIG    1        3.506  -0.205  -0.033  0.00  0.00    -0.680 NA
ATOM     14  C   LIG    1        3.791  -1.523  -0.043  0.00  0.00    +0.460 C 
ATOM     15  O   LIG    1        2.892  -2.337  -0.039  0.00  0.00    -0.560 OA
BRANCH  13  19
ATOM     16  C   LIG    1       -0.015   1.291   0.009  0.00  0.00    -0.090 A 
ATOM     17  N   LIG    1        0.002  -0.004   0.002  0.00  0.00    -0.230 NA
ATOM     18  N   LIG    1        1.139  -0.553  -0.012  0.00  0.00    -0.370 NA
ATOM     19  C   LIG    1        2.182   0.220  -0.018  0.00  0.00    +0.300 A 
ATOM     20  S   LIG    1        1.657   1.851  -0.004  0.00  0.00    -0.010 S 
BRANCH  16  21
ATOM     21  C   LIG    1       -1.244   2.163   0.020  0.00  0.00    +0.140 C 
BRANCH  21  23
ATOM     22  C   LIG    1       -2.900   3.337   1.477  0.00  0.00    +0.000 C 
ATOM     23  C   LIG    1       -1.653   2.451   1.466  0.00  0.00    +0.000 C 
ENDBRANCH  21  23
ENDBRANCH  16  21
ENDBRANCH  13  19
ENDBRANCH   1  14
TORSDOF 6
