REMARK  Name = ZINCtV000002GToO.0
REMARK                            x       y       z     vdW  Elec       q    Type
REMARK                         _______ _______ _______ _____ _____    ______ ____
ROOT
ATOM      1  C   LIG    1        6.948   5.288  -0.135  0.00  0.00    +0.200 A 
ATOM      2  N   LIG    1        8.172   4.812  -0.050  0.00  0.00    -0.440 NA
ATOM      3  C   LIG    1        8.425   3.506   0.045  0.00  0.00    +0.130 A 
ATOM      4  C   LIG    1        9.745   3.026   0.135  0.00  0.00    +0.050 A 
ATOM      5  C   LIG    1        9.971   1.687   0.232  0.00  0.00    +0.040 A 
ATOM      6  C   LIG    1        8.915   0.778   0.242  0.00  0.00    +0.030 A 
ATOM      7  C   LIG    1        7.623   1.207   0.158  0.00  0.00    +0.050 A 
ATOM      8  C   LIG    1        7.355   2.575   0.057  0.00  0.00    -0.060 A 
ATOM      9  C   LIG    1        5.985   3.081  -0.037  0.00  0.00    -0.070 A 
ATOM     10  C   LIG    1        5.819   4.455  -0.138  0.00  0.00    +0.070 A 
ENDROOT
BRANCH   1  15
ATOM     11  C   LIG    1        6.203  10.984  -0.532  0.00  0.00    +0.090 C 
ATOM     12  C   LIG    1        6.398   9.493  -0.428  0.00  0.00    -0.070 A 
ATOM     13  C   LIG    1        7.676   8.970  -0.337  0.00  0.00    +0.000 A 
ATOM     14  C   LIG    1        7.860   7.606  -0.241  0.00  0.00    +0.070 A 
ATOM     15  C   LIG    1        6.756   6.755  -0.237  0.00  0.00    -0.070 A 
ATOM     16  C   LIG    1        5.472   7.287  -0.334  0.00  0.00    +0.040 A 
ATOM     17  C   LIG    1        5.299   8.653  -0.423  0.00  0.00    +0.010 A 
ENDBRANCH   1  15
BRANCH   9  18
ATOM     18  C   LIG    1        4.825   2.165  -0.031  0.00  0.00    +0.520 C 
ATOM     19  O   LIG    1        5.000   0.963  -0.044  0.00  0.00    -0.480 OA
BRANCH  18  20
ATOM     20  O   LIG    1        3.573   2.663  -0.010  0.00  0.00    -0.350 OA
BRANCH  20  21
ATOM     21  C   LIG    1        2.482   1.704  -0.005  0.00  0.00    +0.310 C 
BRANCH  21  22
ATOM     22  C   LIG    1        1.167   2.440   0.019  0.00  0.00    -0.080 A 
ATOM     23  C   LIG    1        1.149   3.822   0.034  0.00  0.00    +0.080 A 
ATOM     24  C   LIG    1       -0.057   4.497   0.056  0.00  0.00    +0.050 A 
ATOM     25  C   LIG    1       -1.246   3.790   0.064  0.00  0.00    -0.020 A 
ATOM     26  C   LIG    1       -1.228   2.407   0.045  0.00  0.00    +0.050 A 
ATOM     27 CL   LIG    1       -2.760   4.639   0.092  0.00  0.00    -0.050 Cl
ATOM     28  C   LIG    1       -0.021   1.732   0.028  0.00  0.00    -0.020 A 
ATOM     29 CL   LIG    1        0.002  -0.004   0.010  0.00  0.00    -0.050 Cl
ENDBRANCH  21  22
ENDBRANCH  20  21
ENDBRANCH  18  20
ENDBRANCH   9  18
TORSDOF 5
