REMARK  Name = ZINCrH000004tb3E.0
REMARK                            x       y       z     vdW  Elec       q    Type
REMARK                         _______ _______ _______ _____ _____    ______ ____
ROOT
ATOM      1  C   LIG    1        5.018   0.220  -0.891  0.00  0.00    +0.060 C 
ATOM      2  C   LIG    1        3.747  -0.609  -1.096  0.00  0.00    +0.070 C 
ATOM      3  C   LIG    1        2.556   0.345  -1.284  0.00  0.00    +0.190 C 
ATOM      4  C   LIG    1        2.970   1.419  -2.317  0.00  0.00    +0.000 C 
ATOM      5  C   LIG    1        3.625   2.539  -1.482  0.00  0.00    +0.010 C 
ATOM      6  C   LIG    1        3.548   2.040  -0.021  0.00  0.00    +0.190 C 
ATOM      7  N   LIG    1        2.393   1.103  -0.015  0.00  0.00    -0.450 N 
ATOM      8  C   LIG    1        4.811   1.209   0.259  0.00  0.00    +0.050 C 
ENDROOT
BRANCH   7   9
ATOM      9  C   LIG    1        1.192   1.795   0.000  0.00  0.00    +0.370 A 
ATOM     10  N   LIG    1        1.208   3.112   0.007  0.00  0.00    -0.520 NA
ATOM     11  C   LIG    1        0.073   3.820   0.021  0.00  0.00    +0.190 A 
ATOM     12  C   LIG    1        0.097   5.224   0.027  0.00  0.00    +0.070 A 
ATOM     13  C   LIG    1       -1.074   5.920   0.040  0.00  0.00    +0.100 A 
ATOM     14  C   LIG    1       -2.300   5.262   0.049  0.00  0.00    -0.050 A 
ATOM     15  C   LIG    1       -2.363   3.901   0.043  0.00  0.00    +0.160 A 
ATOM     16  C   LIG    1       -1.176   3.152   0.029  0.00  0.00    -0.140 A 
ATOM     17  C   LIG    1       -1.201   1.742   0.017  0.00  0.00    +0.130 A 
ATOM     18  C   LIG    1       -0.013   1.076   0.008  0.00  0.00    -0.020 A 
BRANCH  14  19
ATOM     19  N   LIG    1       -3.553   6.050   0.063  0.00  0.00    +0.030 N 
ATOM     20  O   LIG    1       -3.506   7.267   0.068  0.00  0.00    -0.150 OA
ATOM     21  O   LIG    1       -4.630   5.482   0.070  0.00  0.00    -0.160 OA
ENDBRANCH  14  19
ENDBRANCH   7   9
BRANCH   1  27
ATOM     22  C   LIG    1        7.976   0.569  -1.751  0.00  0.00    +0.350 C 
ATOM     23  N   LIG    1        7.451  -0.535  -0.943  0.00  0.00    -0.370 N 
ATOM     24  N   LIG    1        8.194  -1.605  -0.426  0.00  0.00    -0.300 NA
ATOM     25  C   LIG    1        7.379  -2.386   0.235  0.00  0.00    +0.230 A 
ATOM     26  C   LIG    1        6.094  -1.838   0.165  0.00  0.00    -0.120 A 
ATOM     27  C   LIG    1        6.167  -0.699  -0.561  0.00  0.00    +0.090 A 
ENDBRANCH   1  27
TORSDOF 3
