REMARK  Name = ZINCvU00000005zH.0
REMARK                            x       y       z     vdW  Elec       q    Type
REMARK                         _______ _______ _______ _____ _____    ______ ____
ROOT
ATOM      1  N   LIG    1        2.144   1.047  -1.144  0.00  0.00    -0.730 N 
ATOM      2  H   LIG    1        1.693   0.436  -1.747  0.00  0.00    +0.400 HD
ATOM      3  C   LIG    1        3.434   1.375  -1.357  0.00  0.00    +0.570 C 
ATOM      4  O   LIG    1        3.999   2.141  -0.601  0.00  0.00    -0.540 OA
ENDROOT
BRANCH   3   5
ATOM      5  C   LIG    1        4.161   0.802  -2.507  0.00  0.00    -0.170 A 
ATOM      6  C   LIG    1        3.511  -0.086  -3.374  0.00  0.00    +0.060 A 
ATOM      7  C   LIG    1        4.168  -0.619  -4.444  0.00  0.00    +0.000 A 
ATOM      8  C   LIG    1        5.502  -0.294  -4.682  0.00  0.00    +0.120 A 
ATOM      9  N   LIG    1        6.402  -0.670  -5.651  0.00  0.00    -0.580 N 
ATOM     10  H   LIG    1        6.211  -1.280  -6.381  0.00  0.00    +0.420 HD
ATOM     11  C   LIG    1        7.605  -0.058  -5.435  0.00  0.00    +0.070 A 
ATOM     12  C   LIG    1        7.527   0.718  -4.338  0.00  0.00    -0.150 A 
ATOM     13  C   LIG    1        8.661   1.545  -3.789  0.00  0.00    +0.090 C 
ATOM     14  C   LIG    1        9.970   1.049  -4.415  0.00  0.00    +0.020 C 
ATOM     15  C   LIG    1        9.803   0.955  -5.934  0.00  0.00    +0.020 C 
ATOM     16  C   LIG    1        8.855  -0.201  -6.273  0.00  0.00    +0.100 C 
ATOM     17  C   LIG    1        6.170   0.594  -3.814  0.00  0.00    -0.110 A 
ATOM     18  C   LIG    1        5.494   1.140  -2.725  0.00  0.00    +0.140 A 
ENDBRANCH   3   5
BRANCH   1  19
ATOM     19  C   LIG    1        1.423   1.615  -0.003  0.00  0.00    +0.300 C 
BRANCH  19  21
ATOM     20  C   LIG    1       -0.753   1.593  -1.232  0.00  0.00    +0.070 C 
ATOM     21  C   LIG    1       -0.013   1.086   0.008  0.00  0.00    +0.060 C 
BRANCH  21  22
ATOM     22  C   LIG    1       -0.718   1.572   1.248  0.00  0.00    +0.310 A 
ATOM     23  N   LIG    1       -0.901   2.822   1.560  0.00  0.00    -0.460 NA
ATOM     24  C   LIG    1       -1.573   2.905   2.737  0.00  0.00    +0.050 A 
ATOM     25  C   LIG    1       -2.025   3.974   3.515  0.00  0.00    +0.080 A 
ATOM     26  C   LIG    1       -2.684   3.732   4.687  0.00  0.00    +0.020 A 
ATOM     27  C   LIG    1       -2.912   2.432   5.115  0.00  0.00    +0.050 A 
ATOM     28  C   LIG    1       -2.475   1.361   4.363  0.00  0.00    +0.020 A 
ATOM     29  C   LIG    1       -1.804   1.588   3.170  0.00  0.00    +0.060 A 
ATOM     30  N   LIG    1       -1.251   0.768   2.207  0.00  0.00    -0.540 N 
BRANCH  30  31
ATOM     31  C   LIG    1       -1.241  -0.697   2.216  0.00  0.00    +0.640 C 
ATOM     32  F   LIG    1        0.082  -1.154   2.207  0.00  0.00    -0.180 F 
ATOM     33  F   LIG    1       -1.907  -1.176   1.083  0.00  0.00    -0.180 F 
ENDBRANCH  30  31
ENDBRANCH  21  22
ENDBRANCH  19  21
ENDBRANCH   1  19
TORSDOF 5
