REMARK  Name = ZINCrg000000no6F.0
REMARK                            x       y       z     vdW  Elec       q    Type
REMARK                         _______ _______ _______ _____ _____    ______ ____
ROOT
ATOM      1  N   LIG    1       -4.085   0.498   1.970  0.00  0.00    -0.710 N 
ATOM      2  H   LIG    1       -4.479   0.149   1.156  0.00  0.00    +0.410 HD
ATOM      3  C   LIG    1       -3.074   1.388   1.901  0.00  0.00    +0.500 C 
ATOM      4  O   LIG    1       -2.582   1.825   2.920  0.00  0.00    -0.530 OA
ENDROOT
BRANCH   1   5
ATOM      5  C   LIG    1       -4.588   0.060   3.274  0.00  0.00    +0.280 C 
BRANCH   5   6
ATOM      6  C   LIG    1       -5.803  -0.848   3.074  0.00  0.00    +0.160 C 
BRANCH   6   7
ATOM      7  N   LIG    1       -5.440  -1.962   2.188  0.00  0.00    -0.530 NA
ATOM      8  C   LIG    1       -6.624  -2.488   1.492  0.00  0.00    +0.160 C 
ATOM      9  C   LIG    1       -6.193  -3.605   0.537  0.00  0.00    +0.220 C 
ATOM     10  O   LIG    1       -5.505  -4.618   1.275  0.00  0.00    -0.380 OA
ATOM     11  C   LIG    1       -4.346  -4.140   1.965  0.00  0.00    +0.220 C 
ATOM     12  C   LIG    1       -4.758  -3.029   2.934  0.00  0.00    +0.160 C 
ENDBRANCH   6   7
BRANCH   6  14
ATOM     13  C   LIG    1       -6.635  -0.239   5.349  0.00  0.00    +0.030 C 
ATOM     14  C   LIG    1       -6.256  -1.399   4.427  0.00  0.00    -0.040 C 
ATOM     15  C   LIG    1       -7.471  -2.308   4.226  0.00  0.00    +0.030 C 
ENDBRANCH   6  14
ENDBRANCH   5   6
ENDBRANCH   1   5
BRANCH   3  16
ATOM     16  C   LIG    1       -2.557   1.839   0.560  0.00  0.00    +0.340 C 
BRANCH  16  17
ATOM     17  N   LIG    1       -1.468   2.799   0.754  0.00  0.00    -0.530 N 
ATOM     18  C   LIG    1       -0.187   2.354   0.846  0.00  0.00    +0.590 A 
ATOM     19  N   LIG    1        0.832   3.141   1.013  0.00  0.00    -0.520 NA
ATOM     20  C   LIG    1        0.683   4.486   1.113  0.00  0.00    +0.140 A 
ATOM     21  C   LIG    1        1.779   5.332   1.292  0.00  0.00    +0.070 A 
ATOM     22  C   LIG    1        1.583   6.691   1.388  0.00  0.00    +0.040 A 
ATOM     23  C   LIG    1        0.306   7.234   1.310  0.00  0.00    +0.080 A 
ATOM     24  C   LIG    1       -0.793   6.417   1.134  0.00  0.00    +0.070 A 
ATOM     25  F   LIG    1        0.138   8.571   1.408  0.00  0.00    -0.130 F 
ATOM     26  C   LIG    1       -0.614   5.039   1.034  0.00  0.00    -0.170 A 
ATOM     27  C   LIG    1       -1.746   4.120   0.845  0.00  0.00    +0.560 A 
ATOM     28  O   LIG    1       -2.889   4.532   0.768  0.00  0.00    -0.500 OA
ENDBRANCH  16  17
ENDBRANCH   3  16
TORSDOF 6
