REMARK  Name = ZINCrH00000tj18Q.0
REMARK                            x       y       z     vdW  Elec       q    Type
REMARK                         _______ _______ _______ _____ _____    ______ ____
ROOT
ATOM      1  N   LIG    1       -1.788  -0.896  -1.317  0.00  0.00    -0.500 NA
ATOM      2  C   LIG    1       -1.128  -1.874  -2.209  0.00  0.00    +0.180 C 
ATOM      3  C   LIG    1       -1.161  -1.283  -3.631  0.00  0.00    +0.020 C 
ATOM      4  C   LIG    1       -1.848   0.094  -3.479  0.00  0.00    +0.030 C 
ATOM      5  C   LIG    1       -1.636   0.424  -1.981  0.00  0.00    +0.180 C 
ENDROOT
BRANCH   5   6
ATOM      6  C   LIG    1       -2.688   1.387  -1.495  0.00  0.00    -0.060 A 
ATOM      7  C   LIG    1       -3.984   0.950  -1.292  0.00  0.00    +0.050 A 
ATOM      8  C   LIG    1       -4.950   1.830  -0.842  0.00  0.00    +0.010 A 
ATOM      9  C   LIG    1       -4.625   3.156  -0.603  0.00  0.00    +0.050 A 
ATOM     10  O   LIG    1       -5.590   4.013  -0.168  0.00  0.00    -0.310 OA
ATOM     11  C   LIG    1       -5.143   5.241   0.417  0.00  0.00    +0.220 C 
ATOM     12  C   LIG    1       -4.056   5.836  -0.487  0.00  0.00    +0.220 C 
ATOM     13  O   LIG    1       -2.982   4.894  -0.578  0.00  0.00    -0.310 OA
ATOM     14  C   LIG    1       -3.323   3.597  -0.811  0.00  0.00    +0.050 A 
ATOM     15  C   LIG    1       -2.357   2.709  -1.258  0.00  0.00    +0.050 A 
ENDBRANCH   5   6
BRANCH   1  16
ATOM     16  C   LIG    1       -1.164  -0.891   0.013  0.00  0.00    +0.540 C 
BRANCH  16  19
ATOM     17  S   LIG    1        1.903  -1.982  -0.050  0.00  0.00    -0.580 S 
ATOM     18  C   LIG    1        1.298  -0.381  -0.017  0.00  0.00    +0.460 A 
ATOM     19  N   LIG    1        0.002  -0.004   0.002  0.00  0.00    -0.380 N 
ATOM     20  N   LIG    1       -0.017   1.393   0.010  0.00  0.00    -0.280 NA
ATOM     21  C   LIG    1        1.230   1.834   0.000  0.00  0.00    +0.270 A 
ATOM     22  C   LIG    1        1.482   3.313  -0.015  0.00  0.00    +0.160 C 
ATOM     23  C   LIG    1        2.201   3.778   1.271  0.00  0.00    +0.060 C 
ATOM     24  C   LIG    1        3.451   2.838   1.411  0.00  0.00    -0.010 C 
ATOM     25  C   LIG    1        3.948   2.314   0.077  0.00  0.00    +0.060 C 
ATOM     26  C   LIG    1        3.474   0.863   0.014  0.00  0.00    +0.300 C 
ATOM     27  N   LIG    1        2.019   0.756  -0.005  0.00  0.00    -0.460 N 
ENDBRANCH  16  19
ENDBRANCH   1  16
TORSDOF 3
