REMARK  Name = ZINCvU0000000HQw.0
REMARK                            x       y       z     vdW  Elec       q    Type
REMARK                         _______ _______ _______ _____ _____    ______ ____
ROOT
ATOM      1  C   LIG    1       -8.295   2.216   0.903  0.00  0.00    +0.550 C 
ENDROOT
BRANCH   1   2
ATOM      2  C   LIG    1       -9.623   2.367   1.648  0.00  0.00    +0.110 C 
ATOM      3 CL   LIG    1      -10.450   0.767   1.734  0.00  0.00    -0.080 Cl
ATOM      4 CL   LIG    1      -10.674   3.541   0.771  0.00  0.00    -0.050 Cl
ATOM      5 CL   LIG    1       -9.310   2.972   3.318  0.00  0.00    -0.060 Cl
ENDBRANCH   1   2
BRANCH   1   6
ATOM      6  N   LIG    1       -7.442   1.262   1.617  0.00  0.00    -0.720 N 
ATOM      7  H   LIG    1       -7.814   0.427   1.942  0.00  0.00    +0.410 HD
ATOM      8  C   LIG    1       -6.140   1.545   1.820  0.00  0.00    +0.660 C 
ATOM      9  O   LIG    1       -5.674   2.590   1.412  0.00  0.00    -0.550 OA
BRANCH   8  10
ATOM     10  O   LIG    1       -5.355   0.668   2.475  0.00  0.00    -0.350 OA
BRANCH  10  11
ATOM     11  C   LIG    1       -3.963   1.039   2.658  0.00  0.00    +0.210 C 
ATOM     12  C   LIG    1       -3.140   0.532   1.472  0.00  0.00    +0.010 C 
ATOM     13  C   LIG    1       -1.674   0.922   1.665  0.00  0.00    -0.010 C 
ATOM     14  C   LIG    1       -1.145   0.296   2.956  0.00  0.00    +0.010 C 
ATOM     15  C   LIG    1       -1.967   0.802   4.143  0.00  0.00    +0.030 C 
ATOM     16  C   LIG    1       -0.851   0.416   0.478  0.00  0.00    +0.010 C 
ATOM     17  C   LIG    1       -3.434   0.412   3.950  0.00  0.00    +0.000 C 
BRANCH  17  18
ATOM     18  C   LIG    1       -4.257   0.918   5.136  0.00  0.00    -0.020 C 
ATOM     19  C   LIG    1       -4.025   2.421   5.314  0.00  0.00    +0.000 C 
ATOM     20  C   LIG    1       -3.826   0.183   6.407  0.00  0.00    +0.020 C 
ENDBRANCH  17  18
ENDBRANCH  10  11
ENDBRANCH   8  10
ENDBRANCH   1   6
BRANCH   1  21
ATOM     21  N   LIG    1       -8.550   1.724  -0.453  0.00  0.00    -0.730 N 
ATOM     22  H   LIG    1       -9.168   0.990  -0.595  0.00  0.00    +0.420 HD
BRANCH  21  28
ATOM     23  C   LIG    1       -8.215   1.915  -2.842  0.00  0.00    +0.130 A 
ATOM     24  C   LIG    1       -7.574   2.504  -3.918  0.00  0.00    -0.010 A 
ATOM     25  C   LIG    1       -6.616   3.479  -3.703  0.00  0.00    +0.110 A 
ATOM     26  C   LIG    1       -6.300   3.871  -2.416  0.00  0.00    -0.030 A 
ATOM     27  C   LIG    1       -6.940   3.291  -1.336  0.00  0.00    +0.070 A 
ATOM     28  C   LIG    1       -7.901   2.313  -1.544  0.00  0.00    +0.180 A 
BRANCH  26  29
ATOM     29  N   LIG    1       -5.274   4.915  -2.193  0.00  0.00    +0.030 N 
ATOM     30  O   LIG    1       -4.710   5.427  -3.143  0.00  0.00    -0.170 OA
ATOM     31  O   LIG    1       -4.995   5.261  -1.059  0.00  0.00    -0.150 OA
ENDBRANCH  26  29
BRANCH  23  33
ATOM     32  C   LIG    1       -9.424   0.595  -4.408  0.00  0.00    +0.250 C 
ATOM     33  O   LIG    1       -9.153   0.953  -3.052  0.00  0.00    -0.310 OA
ENDBRANCH  23  33
ENDBRANCH  21  28
ENDBRANCH   1  21
TORSDOF 9
