REMARK  Name = ZINCnE000001MCtL.0
REMARK                            x       y       z     vdW  Elec       q    Type
REMARK                         _______ _______ _______ _____ _____    ______ ____
ROOT
ATOM      1  C   LIG    1        8.054  -2.288  -0.046  0.00  0.00    +0.150 C 
ENDROOT
BRANCH   1   2
ATOM      2  C   LIG    1        9.525  -2.007   0.118  0.00  0.00    -0.090 A 
ATOM      3  C   LIG    1       10.025  -0.750  -0.166  0.00  0.00    +0.080 A 
ATOM      4  C   LIG    1       11.375  -0.492  -0.016  0.00  0.00    -0.020 A 
ATOM      5  C   LIG    1       12.226  -1.490   0.419  0.00  0.00    +0.010 A 
ATOM      6  C   LIG    1       11.729  -2.747   0.705  0.00  0.00    -0.050 A 
ATOM      7  C   LIG    1       10.377  -3.006   0.560  0.00  0.00    +0.080 A 
ATOM      8  F   LIG    1        9.889  -4.233   0.845  0.00  0.00    -0.150 F 
ENDBRANCH   1   2
BRANCH   1  10
ATOM      9  C   LIG    1        6.322  -3.281  -1.548  0.00  0.00    +0.000 C 
ATOM     10  C   LIG    1        7.819  -3.014  -1.372  0.00  0.00    +0.210 C 
BRANCH  10  11
ATOM     11  O   LIG    1        8.288  -2.202  -2.450  0.00  0.00    -0.570 OA
ATOM     12  H   LIG    1        7.851  -1.342  -2.513  0.00  0.00    +0.380 HD
ENDBRANCH  10  11
ENDBRANCH   1  10
BRANCH   1  13
ATOM     13  N   LIG    1        7.312  -1.025  -0.042  0.00  0.00    -0.660 NA
BRANCH  13  14
ATOM     14  C   LIG    1        6.754  -0.560   1.124  0.00  0.00    +0.410 A 
ATOM     15  N   LIG    1        6.157   0.604   1.300  0.00  0.00    -0.590 NA
ATOM     16  C   LIG    1        5.775   0.621   2.595  0.00  0.00    +0.200 A 
ATOM     17  N   LIG    1        6.147  -0.515   3.126  0.00  0.00    -0.450 NA
ATOM     18  O   LIG    1        6.708  -1.203   2.300  0.00  0.00    -0.060 OA
BRANCH  16  19
ATOM     19  C   LIG    1        5.061   1.723   3.288  0.00  0.00    +0.020 A 
ATOM     20  C   LIG    1        4.723   1.600   4.634  0.00  0.00    +0.030 A 
ATOM     21  C   LIG    1        4.059   2.628   5.272  0.00  0.00    -0.010 A 
ATOM     22  C   LIG    1        3.729   3.778   4.578  0.00  0.00    +0.000 A 
ATOM     23  C   LIG    1        4.062   3.905   3.242  0.00  0.00    -0.010 A 
ATOM     24  C   LIG    1        4.726   2.883   2.593  0.00  0.00    +0.050 A 
ENDBRANCH  16  19
ENDBRANCH  13  14
ENDBRANCH   1  13
TORSDOF 6
