REMARK  Name = ZINCrH000004mgJs.0
REMARK                            x       y       z     vdW  Elec       q    Type
REMARK                         _______ _______ _______ _____ _____    ______ ____
ROOT
ATOM      1  C   LIG    1        3.715  -0.710  -0.038  0.00  0.00    +0.400 C 
ENDROOT
BRANCH   1   6
ATOM      2  C   LIG    1        0.002  -0.004   0.002  0.00  0.00    +0.170 A 
ATOM      3  C   LIG    1       -0.017   1.382   0.010  0.00  0.00    -0.150 A 
ATOM      4  C   LIG    1        1.176   2.089   0.002  0.00  0.00    +0.170 A 
ATOM      5  C   LIG    1        2.385   1.408  -0.013  0.00  0.00    -0.020 A 
ATOM      6  C   LIG    1        2.401   0.027  -0.021  0.00  0.00    -0.020 A 
ATOM      7  C   LIG    1        1.214  -0.680  -0.013  0.00  0.00    -0.040 A 
BRANCH   2   9
ATOM      8  C   LIG    1       -2.374   0.061   0.024  0.00  0.00    +0.250 C 
ATOM      9  O   LIG    1       -1.165  -0.700   0.009  0.00  0.00    -0.310 OA
ENDBRANCH   2   9
BRANCH   4  10
ATOM     10  O   LIG    1        1.161   3.448   0.009  0.00  0.00    -0.310 OA
ATOM     11  C   LIG    1       -0.120   4.083   0.024  0.00  0.00    +0.250 C 
ENDBRANCH   4  10
ENDBRANCH   1   6
BRANCH   1  12
ATOM     12  C   LIG    1        4.288  -0.749   1.356  0.00  0.00    +0.190 A 
ATOM     13  N   LIG    1        4.856   0.251   1.972  0.00  0.00    -0.470 NA
ATOM     14  C   LIG    1        5.243  -0.145   3.194  0.00  0.00    +0.140 A 
ATOM     15  C   LIG    1        4.909  -1.441   3.337  0.00  0.00    +0.130 A 
ATOM     16  N   LIG    1        4.303  -1.825   2.171  0.00  0.00    -0.450 N 
ATOM     17  C   LIG    1        3.770  -3.155   1.865  0.00  0.00    +0.330 C 
ENDBRANCH   1  12
BRANCH   1  18
ATOM     18  N   LIG    1        4.650  -0.021  -0.931  0.00  0.00    -0.700 N 
ATOM     19  H   LIG    1        4.541   0.926  -1.109  0.00  0.00    +0.410 HD
ATOM     20  C   LIG    1        5.661  -0.703  -1.504  0.00  0.00    +0.570 C 
ATOM     21  O   LIG    1        5.798  -1.890  -1.280  0.00  0.00    -0.530 OA
BRANCH  20  22
ATOM     22  C   LIG    1        6.604  -0.007  -2.405  0.00  0.00    -0.130 A 
ATOM     23  C   LIG    1        6.447   1.354  -2.669  0.00  0.00    +0.060 A 
ATOM     24  C   LIG    1        7.334   1.999  -3.507  0.00  0.00    +0.020 A 
ATOM     25  C   LIG    1        8.371   1.296  -4.095  0.00  0.00    +0.080 A 
ATOM     26  C   LIG    1        8.530  -0.056  -3.842  0.00  0.00    -0.100 A 
ATOM     27 BR   LIG    1        9.951  -1.006  -4.649  0.00  0.00    -0.040 Br
ATOM     28  C   LIG    1        7.653  -0.711  -3.001  0.00  0.00    +0.120 A 
ENDBRANCH  20  22
ENDBRANCH   1  18
TORSDOF 6
