REMARK  Name = ZINCqH0000035n7O.0
REMARK                            x       y       z     vdW  Elec       q    Type
REMARK                         _______ _______ _______ _____ _____    ______ ____
ROOT
ATOM      1  C   LIG    1        3.216   4.749   3.073  0.00  0.00    -0.200 A 
ATOM      2  C   LIG    1        2.703   5.493   2.004  0.00  0.00    +0.130 A 
ATOM      3  C   LIG    1        3.430   6.581   1.552  0.00  0.00    -0.060 A 
ATOM      4  C   LIG    1        4.629   6.899   2.163  0.00  0.00    +0.340 A 
ATOM      5  N   LIG    1        5.094   6.184   3.170  0.00  0.00    -0.530 NA
ATOM      6  C   LIG    1        4.438   5.139   3.644  0.00  0.00    +0.380 A 
ENDROOT
BRANCH   1   9
ATOM      7  N   LIG    1        1.308   3.221   3.042  0.00  0.00    -0.640 N 
ATOM      8  H   LIG    1        0.944   3.730   2.300  0.00  0.00    +0.410 HD
ATOM      9  C   LIG    1        2.482   3.581   3.595  0.00  0.00    +0.560 C 
ATOM     10  O   LIG    1        2.938   2.942   4.524  0.00  0.00    -0.440 OA
BRANCH   7  15
ATOM     11  N   LIG    1       -0.572   1.655   3.065  0.00  0.00    -0.470 N 
ATOM     12  C   LIG    1       -0.904   0.562   3.830  0.00  0.00    +0.120 A 
ATOM     13  C   LIG    1        0.087   0.392   4.723  0.00  0.00    +0.170 A 
ATOM     14  N   LIG    1        1.001   1.355   4.526  0.00  0.00    -0.460 NA
ATOM     15  C   LIG    1        0.617   2.121   3.533  0.00  0.00    +0.440 A 
BRANCH  11  16
ATOM     16  C   LIG    1       -1.354   2.216   1.961  0.00  0.00    +0.320 C 
BRANCH  16  17
ATOM     17  C   LIG    1       -0.843   1.650   0.635  0.00  0.00    +0.150 C 
BRANCH  17  19
ATOM     18  C   LIG    1       -1.207   1.730  -1.733  0.00  0.00    +0.210 C 
ATOM     19  O   LIG    1       -1.606   2.197  -0.443  0.00  0.00    -0.390 OA
ENDBRANCH  17  19
ENDBRANCH  16  17
ENDBRANCH  11  16
ENDBRANCH   7  15
ENDBRANCH   1   9
BRANCH   6  20
ATOM     20  O   LIG    1        4.949   4.437   4.683  0.00  0.00    -0.210 OA
BRANCH  20  21
ATOM     21  C   LIG    1        6.078   4.908   5.276  0.00  0.00    +0.120 A 
ATOM     22  C   LIG    1        7.321   4.442   4.873  0.00  0.00    +0.030 A 
ATOM     23  C   LIG    1        8.467   4.923   5.478  0.00  0.00    +0.050 A 
ATOM     24  C   LIG    1        8.376   5.867   6.484  0.00  0.00    +0.030 A 
ATOM     25  C   LIG    1        7.138   6.333   6.888  0.00  0.00    +0.060 A 
ATOM     26  C   LIG    1        5.989   5.860   6.283  0.00  0.00    -0.090 A 
ATOM     27 BR   LIG    1        4.297   6.503   6.831  0.00  0.00    -0.030 Br
ENDBRANCH  20  21
ENDBRANCH   6  20
TORSDOF 7
