REMARK  Name = ZINCnE000005uhoZ.0
REMARK                            x       y       z     vdW  Elec       q    Type
REMARK                         _______ _______ _______ _____ _____    ______ ____
ROOT
ATOM      1  C   LIG    1        3.609   5.842  -0.002  0.00  0.00    +0.370 A 
ATOM      2  N   LIG    1        2.433   5.256   0.006  0.00  0.00    -0.580 NA
ATOM      3  C   LIG    1        2.426   3.937  -0.001  0.00  0.00    +0.310 A 
ATOM      4  N   LIG    1        3.584   3.326  -0.010  0.00  0.00    -0.550 NA
ATOM      5  S   LIG    1        4.755   4.557  -0.020  0.00  0.00    +0.120 S 
ENDROOT
BRANCH   3   6
ATOM      6  C   LIG    1        1.153   3.174   0.008  0.00  0.00    -0.010 A 
ATOM      7  C   LIG    1        1.173   1.781   0.000  0.00  0.00    +0.080 A 
ATOM      8  C   LIG    1       -0.013   1.076   0.008  0.00  0.00    -0.020 A 
ATOM      9  C   LIG    1       -1.222   1.751   0.017  0.00  0.00    +0.100 A 
ATOM     10  C   LIG    1       -1.247   3.136   0.030  0.00  0.00    -0.020 A 
ATOM     11  F   LIG    1       -2.381   1.057   0.019  0.00  0.00    -0.140 F 
ATOM     12  C   LIG    1       -0.066   3.849   0.022  0.00  0.00    +0.100 A 
ENDBRANCH   3   6
BRANCH   1  15
ATOM     13  O   LIG    1        6.063   6.849  -0.020  0.00  0.00    -0.580 OA
ATOM     14  C   LIG    1        5.145   7.645  -0.008  0.00  0.00    +0.530 C 
ATOM     15  N   LIG    1        3.871   7.204   0.002  0.00  0.00    -0.620 NA
BRANCH  14  16
ATOM     16  C   LIG    1        5.425   9.101  -0.004  0.00  0.00    +0.020 A 
ATOM     17  N   LIG    1        4.546  10.072   0.009  0.00  0.00    -0.310 NA
ATOM     18  O   LIG    1        5.084  11.155   0.010  0.00  0.00    +0.110 OA
ATOM     19  C   LIG    1        6.420  11.049  -0.003  0.00  0.00    -0.030 A 
ATOM     20  C   LIG    1        6.704   9.726  -0.007  0.00  0.00    -0.010 A 
BRANCH  19  21
ATOM     21  C   LIG    1        7.413  12.182  -0.007  0.00  0.00    +0.060 C 
ATOM     22  C   LIG    1        6.871  13.597   0.208  0.00  0.00    +0.030 C 
ATOM     23  C   LIG    1        7.357  13.166  -1.177  0.00  0.00    +0.030 C 
ENDBRANCH  19  21
ENDBRANCH  14  16
ENDBRANCH   1  15
TORSDOF 4
