REMARK  Name = ZINCrH000004lZet.0
REMARK                            x       y       z     vdW  Elec       q    Type
REMARK                         _______ _______ _______ _____ _____    ______ ____
ROOT
ATOM      1  C   LIG    1        2.711  -2.470   0.214  0.00  0.00    +0.570 C 
ATOM      2  N   LIG    1        1.473  -1.954   0.078  0.00  0.00    -0.650 N 
ATOM      3  H   LIG    1        0.707  -2.545   0.007  0.00  0.00    +0.420 HD
ATOM      4  O   LIG    1        3.661  -1.732   0.388  0.00  0.00    -0.510 OA
ENDROOT
BRANCH   2   5
ATOM      5  C   LIG    1        1.293  -0.568   0.040  0.00  0.00    +0.170 A 
ATOM      6  C   LIG    1        2.140   0.264   0.758  0.00  0.00    +0.070 A 
ATOM      7  C   LIG    1        1.960   1.635   0.719  0.00  0.00    -0.020 A 
ATOM      8  C   LIG    1        0.936   2.180  -0.036  0.00  0.00    +0.050 A 
ATOM      9  C   LIG    1        0.088   1.359  -0.754  0.00  0.00    +0.050 A 
ATOM     10 CL   LIG    1        3.021   2.673   1.618  0.00  0.00    -0.050 Cl
ATOM     11  C   LIG    1        0.262  -0.017  -0.721  0.00  0.00    +0.120 A 
BRANCH  11  12
ATOM     12  N   LIG    1       -0.599  -0.852  -1.449  0.00  0.00    -0.330 N 
ATOM     13  C   LIG    1       -1.696  -0.480  -2.136  0.00  0.00    +0.500 A 
ATOM     14  N   LIG    1       -2.219  -1.551  -2.676  0.00  0.00    -0.530 NA
ATOM     15  C   LIG    1       -1.493  -2.621  -2.353  0.00  0.00    +0.450 A 
ATOM     16  N   LIG    1       -0.490  -2.244  -1.602  0.00  0.00    -0.340 NA
ENDBRANCH  11  12
ENDBRANCH   2   5
BRANCH   1  19
ATOM     17  C   LIG    1        4.380  -5.834   0.232  0.00  0.00    +0.110 A 
ATOM     18  C   LIG    1        4.196  -4.467   0.291  0.00  0.00    +0.050 A 
ATOM     19  C   LIG    1        2.913  -3.930   0.151  0.00  0.00    -0.120 A 
ATOM     20  C   LIG    1        1.821  -4.780  -0.044  0.00  0.00    +0.070 A 
ATOM     21  C   LIG    1        2.012  -6.144  -0.107  0.00  0.00    -0.010 A 
ATOM     22  C   LIG    1        3.286  -6.676   0.033  0.00  0.00    +0.110 A 
BRANCH  17  24
ATOM     23  C   LIG    1        6.700  -5.438   0.570  0.00  0.00    +0.250 C 
ATOM     24  O   LIG    1        5.627  -6.359   0.368  0.00  0.00    -0.300 OA
ENDBRANCH  17  24
BRANCH  22  25
ATOM     25  O   LIG    1        3.469  -8.021  -0.025  0.00  0.00    -0.300 OA
BRANCH  25  26
ATOM     26  C   LIG    1        2.305  -8.825  -0.232  0.00  0.00    +0.600 C 
ATOM     27  F   LIG    1        1.706  -8.474  -1.446  0.00  0.00    -0.200 F 
ATOM     28  F   LIG    1        1.400  -8.613   0.813  0.00  0.00    -0.200 F 
ENDBRANCH  25  26
ENDBRANCH  22  25
ENDBRANCH   1  19
TORSDOF 6
