REMARK  Name = ZINCnE000001G9bD.0
REMARK                            x       y       z     vdW  Elec       q    Type
REMARK                         _______ _______ _______ _____ _____    ______ ____
ROOT
ATOM      1  C   LIG    1       -2.507   1.357   0.408  0.00  0.00    +0.440 C 
ATOM      2  O   LIG    1       -3.410   2.167   0.456  0.00  0.00    -0.430 OA
ENDROOT
BRANCH   1   3
ATOM      3  C   LIG    1       -1.179   1.791   0.181  0.00  0.00    -0.080 A 
ATOM      4  C   LIG    1       -0.773   3.095   0.003  0.00  0.00    -0.020 A 
ATOM      5  C   LIG    1        0.625   3.065  -0.197  0.00  0.00    -0.270 A 
ATOM      6  C   LIG    1        1.019   1.736  -0.126  0.00  0.00    +0.110 A 
ATOM      7  C   LIG    1        2.429   1.228  -0.282  0.00  0.00    +0.160 C 
ATOM      8  C   LIG    1       -1.653   4.319   0.014  0.00  0.00    +0.130 C 
ATOM      9  N   LIG    1       -0.064   0.981   0.104  0.00  0.00    -0.510 N 
ATOM     10  H   LIG    1       -0.064   0.015   0.197  0.00  0.00    +0.430 HD
BRANCH   5  11
ATOM     11  C   LIG    1        1.497   4.220  -0.435  0.00  0.00    +0.440 C 
ATOM     12  O   LIG    1        1.976   4.823   0.503  0.00  0.00    -0.450 OA
ATOM     13  C   LIG    1        1.798   4.659  -1.845  0.00  0.00    +0.070 C 
ENDBRANCH   5  11
ENDBRANCH   1   3
BRANCH   1  14
ATOM     14  C   LIG    1       -2.800  -0.110   0.590  0.00  0.00    -0.020 C 
ATOM     15  C   LIG    1       -2.974  -0.768  -0.780  0.00  0.00    +0.080 C 
BRANCH  14  16
ATOM     16  S   LIG    1       -4.324  -0.307   1.554  0.00  0.00    +0.010 S 
BRANCH  16  21
ATOM     17  N   LIG    1       -5.401  -5.702   2.761  0.00  0.00    -0.640 NA
ATOM     18  C   LIG    1       -4.956  -4.532   2.368  0.00  0.00    +0.340 A 
ATOM     19  N   LIG    1       -3.830  -4.268   1.644  0.00  0.00    -0.510 NA
ATOM     20  N   LIG    1       -3.589  -2.943   1.355  0.00  0.00    -0.250 NA
ATOM     21  C   LIG    1       -4.421  -2.051   1.789  0.00  0.00    -0.080 A 
ATOM     22  S   LIG    1       -5.683  -2.941   2.660  0.00  0.00    -0.100 S 
BRANCH  17  24
ATOM     23  C   LIG    1       -4.131  -7.567   3.704  0.00  0.00    -0.010 C 
ATOM     24  C   LIG    1       -4.659  -6.919   2.423  0.00  0.00    +0.170 C 
ENDBRANCH  17  24
ENDBRANCH  16  21
ENDBRANCH  14  16
ENDBRANCH   1  14
TORSDOF 6
