REMARK  Name = ZINCrg000000sWHc.0
REMARK                            x       y       z     vdW  Elec       q    Type
REMARK                         _______ _______ _______ _____ _____    ______ ____
ROOT
ATOM      1  C   LIG    1        2.319   8.110  -0.260  0.00  0.00    -0.100 A 
ATOM      2  C   LIG    1        0.994   8.506  -0.238  0.00  0.00    +0.000 A 
ATOM      3  C   LIG    1       -0.011   7.562  -0.134  0.00  0.00    +0.030 A 
ATOM      4  C   LIG    1        0.305   6.220  -0.052  0.00  0.00    +0.020 A 
ATOM      5  C   LIG    1        1.635   5.819  -0.075  0.00  0.00    +0.150 A 
ATOM      6  C   LIG    1        2.642   6.770  -0.173  0.00  0.00    +0.000 A 
ENDROOT
BRANCH   5   7
ATOM      7  N   LIG    1        1.959   4.461   0.007  0.00  0.00    -0.670 N 
ATOM      8  H   LIG    1        2.737   4.118  -0.461  0.00  0.00    +0.420 HD
ATOM      9  C   LIG    1        1.191   3.627   0.737  0.00  0.00    +0.510 C 
ATOM     10  O   LIG    1        0.276   4.070   1.399  0.00  0.00    -0.510 OA
BRANCH   9  11
ATOM     11  C   LIG    1        1.469   2.146   0.730  0.00  0.00    +0.320 C 
BRANCH  11  12
ATOM     12  N   LIG    1        0.503   1.464   1.595  0.00  0.00    -0.710 N 
ATOM     13  H   LIG    1       -0.179   1.976   2.058  0.00  0.00    +0.420 HD
ATOM     14  C   LIG    1        0.560   0.126   1.744  0.00  0.00    +0.610 C 
ATOM     15  O   LIG    1        1.413  -0.516   1.160  0.00  0.00    -0.520 OA
BRANCH  14  16
ATOM     16  C   LIG    1       -0.407  -0.557   2.610  0.00  0.00    -0.090 A 
ATOM     17  C   LIG    1       -0.466  -1.901   2.844  0.00  0.00    +0.050 A 
ATOM     18  C   LIG    1       -1.534  -2.110   3.729  0.00  0.00    -0.070 A 
ATOM     19  C   LIG    1       -2.080  -0.901   3.987  0.00  0.00    +0.210 A 
ATOM     20  O   LIG    1       -1.398   0.032   3.311  0.00  0.00    -0.160 OA
ENDBRANCH  14  16
ENDBRANCH  11  12
ENDBRANCH   9  11
ENDBRANCH   5   7
BRANCH   1  21
ATOM     21  C   LIG    1        3.411   9.143  -0.373  0.00  0.00    +0.270 C 
BRANCH  21  26
ATOM     22  C   LIG    1        2.633   9.889   1.810  0.00  0.00    +0.120 C 
ATOM     23  C   LIG    1        3.187   9.798   3.255  0.00  0.00    +0.050 C 
ATOM     24  C   LIG    1        4.175   8.611   3.172  0.00  0.00    +0.020 C 
ATOM     25  C   LIG    1        4.537   8.493   1.680  0.00  0.00    +0.180 C 
ATOM     26  N   LIG    1        3.817   9.574   0.971  0.00  0.00    -0.480 NA
BRANCH  22  30
ATOM     27  N   LIG    1        1.058  11.760   2.180  0.00  0.00    -0.860 N 
ATOM     28  H   LIG    1        0.734  12.655   1.994  0.00  0.00    +0.400 HD
ATOM     29  H   LIG    1        0.609  11.210   2.842  0.00  0.00    +0.400 HD
ATOM     30  C   LIG    1        2.130  11.280   1.520  0.00  0.00    +0.530 C 
ATOM     31  O   LIG    1        2.691  11.967   0.693  0.00  0.00    -0.520 OA
ENDBRANCH  22  30
ENDBRANCH  21  26
ENDBRANCH   1  21
TORSDOF 7
