REMARK  Name = ZINCkj000005jdp1.0
REMARK                            x       y       z     vdW  Elec       q    Type
REMARK                         _______ _______ _______ _____ _____    ______ ____
ROOT
ATOM      1  N   LIG    1       -0.700   1.560   1.217  0.00  0.00    -0.390 N 
ATOM      2  C   LIG    1       -2.037   0.955   1.288  0.00  0.00    +0.320 C 
ATOM      3  H   LIG    1       -0.787   2.564   1.182  0.00  0.00    +0.420 HD
ENDROOT
BRANCH   1   5
ATOM      4  C   LIG    1        1.468   1.804   2.329  0.00  0.00    +0.100 C 
ATOM      5  C   LIG    1        0.075   1.175   2.404  0.00  0.00    +0.230 C 
BRANCH   5   6
ATOM      6  C   LIG    1       -0.630   1.661   3.643  0.00  0.00    -0.090 A 
ATOM      7  C   LIG    1       -1.233   2.909   3.674  0.00  0.00    -0.050 A 
ATOM      8  C   LIG    1       -1.875   3.319   4.827  0.00  0.00    +0.290 A 
ATOM      9  N   LIG    1       -1.909   2.543   5.893  0.00  0.00    -0.460 NA
ATOM     10  C   LIG    1       -1.343   1.352   5.901  0.00  0.00    +0.290 A 
ATOM     11  C   LIG    1       -0.687   0.873   4.783  0.00  0.00    +0.000 A 
ENDBRANCH   5   6
ENDBRANCH   1   5
BRANCH   1  12
ATOM     12  C   LIG    1       -0.013   1.086   0.008  0.00  0.00    +0.280 C 
BRANCH  12  13
ATOM     13  C   LIG    1       -0.753   1.593  -1.232  0.00  0.00    +0.070 C 
BRANCH  13  14
ATOM     14  C   LIG    1       -0.047   1.107  -2.471  0.00  0.00    +0.520 C 
ATOM     15  N   LIG    1       -0.524   1.433  -3.689  0.00  0.00    -0.610 N 
ATOM     16  C   LIG    1       -1.734   2.256  -3.833  0.00  0.00    +0.250 C 
ATOM     17  C   LIG    1       -1.418   3.407  -4.802  0.00  0.00    +0.210 C 
ATOM     18  O   LIG    1       -0.871   2.868  -6.008  0.00  0.00    -0.370 OA
ATOM     19  C   LIG    1        0.369   2.179  -5.830  0.00  0.00    +0.230 C 
ATOM     20  C   LIG    1        0.148   0.970  -4.914  0.00  0.00    +0.270 C 
ATOM     21  O   LIG    1        0.949   0.422  -2.373  0.00  0.00    -0.530 OA
ENDBRANCH  13  14
ENDBRANCH  12  13
ENDBRANCH   1  12
TORSDOF 5
