REMARK  Name = ZINCkj000005jdp1.1
REMARK                            x       y       z     vdW  Elec       q    Type
REMARK                         _______ _______ _______ _____ _____    ______ ____
ROOT
ATOM      1  N   LIG    1       -0.723   1.572  -1.182  0.00  0.00    -0.390 N 
ATOM      2  C   LIG    1       -0.036   1.099  -2.391  0.00  0.00    +0.330 C 
ATOM      3  H   LIG    1       -0.737   2.581  -1.177  0.00  0.00    +0.420 HD
ENDROOT
BRANCH   1   5
ATOM      4  C   LIG    1        1.423   1.615  -0.003  0.00  0.00    +0.100 C 
ATOM      5  C   LIG    1       -0.013   1.086   0.008  0.00  0.00    +0.230 C 
BRANCH   5   6
ATOM      6  C   LIG    1       -0.718   1.572   1.248  0.00  0.00    -0.090 A 
ATOM      7  C   LIG    1       -1.231   2.858   1.315  0.00  0.00    -0.050 A 
ATOM      8  C   LIG    1       -1.876   3.267   2.466  0.00  0.00    +0.290 A 
ATOM      9  N   LIG    1       -1.997   2.454   3.497  0.00  0.00    -0.460 NA
ATOM     10  C   LIG    1       -1.517   1.226   3.471  0.00  0.00    +0.290 A 
ATOM     11  C   LIG    1       -0.865   0.745   2.351  0.00  0.00    +0.010 A 
ENDBRANCH   5   6
ENDBRANCH   1   5
BRANCH   1  12
ATOM     12  C   LIG    1       -2.101   1.064  -1.172  0.00  0.00    +0.280 C 
BRANCH  12  13
ATOM     13  C   LIG    1       -2.877   1.670  -2.343  0.00  0.00    +0.070 C 
BRANCH  13  14
ATOM     14  C   LIG    1       -4.291   1.148  -2.332  0.00  0.00    +0.520 C 
ATOM     15  N   LIG    1       -5.164   1.548  -3.278  0.00  0.00    -0.610 N 
ATOM     16  C   LIG    1       -4.762   2.498  -4.327  0.00  0.00    +0.250 C 
ATOM     17  C   LIG    1       -5.167   1.909  -5.688  0.00  0.00    +0.220 C 
ATOM     18  O   LIG    1       -6.551   1.552  -5.652  0.00  0.00    -0.370 OA
ATOM     19  C   LIG    1       -6.869   0.538  -4.696  0.00  0.00    +0.230 C 
ATOM     20  C   LIG    1       -6.550   1.053  -3.288  0.00  0.00    +0.270 C 
ATOM     21  O   LIG    1       -4.643   0.369  -1.472  0.00  0.00    -0.530 OA
ENDBRANCH  13  14
ENDBRANCH  12  13
ENDBRANCH   1  12
TORSDOF 5
