REMARK  Name = ZINCqH00000047zy.0
REMARK                            x       y       z     vdW  Elec       q    Type
REMARK                         _______ _______ _______ _____ _____    ______ ____
ROOT
ATOM      1  C   LIG    1       -2.906   1.634   2.452  0.00  0.00    +0.190 A 
ATOM      2  N   LIG    1       -3.809   2.585   2.411  0.00  0.00    -0.460 NA
ATOM      3  C   LIG    1       -4.191   2.776   3.686  0.00  0.00    +0.190 A 
ATOM      4  N   LIG    1       -3.514   1.948   4.424  0.00  0.00    -0.370 NA
ATOM      5  O   LIG    1       -2.775   1.279   3.733  0.00  0.00    +0.100 OA
ENDROOT
BRANCH   1   6
ATOM      6  C   LIG    1       -2.164   1.050   1.278  0.00  0.00    +0.300 C 
BRANCH   6   8
ATOM      7  C   LIG    1       -0.013   1.086   0.008  0.00  0.00    +0.040 C 
ATOM      8  C   LIG    1       -0.729   1.579   1.267  0.00  0.00    +0.020 C 
ENDBRANCH   6   8
BRANCH   6   9
ATOM      9  O   LIG    1       -2.146  -0.375   1.387  0.00  0.00    -0.360 OA
BRANCH   9  10
ATOM     10  C   LIG    1       -2.111  -1.054   0.131  0.00  0.00    +0.160 C 
ATOM     11  C   LIG    1       -3.541  -1.318  -0.346  0.00  0.00    -0.020 C 
ATOM     12  C   LIG    1       -3.504  -2.045  -1.692  0.00  0.00    +0.010 C 
ATOM     13  C   LIG    1       -2.766  -3.376  -1.532  0.00  0.00    +0.010 C 
ATOM     14  C   LIG    1       -1.336  -3.112  -1.056  0.00  0.00    +0.010 C 
ATOM     15  C   LIG    1       -1.373  -2.385   0.290  0.00  0.00    +0.020 C 
ENDBRANCH   9  10
ENDBRANCH   6   9
ENDBRANCH   1   6
BRANCH   3  16
ATOM     16  C   LIG    1       -5.217   3.769   4.170  0.00  0.00    +0.200 C 
BRANCH  16  17
ATOM     17  C   LIG    1       -6.579   3.124   4.172  0.00  0.00    +0.520 C 
ATOM     18  N   LIG    1       -7.657   3.827   4.570  0.00  0.00    -0.720 N 
ATOM     19  H   LIG    1       -7.556   4.749   4.855  0.00  0.00    +0.400 HD
ATOM     20  O   LIG    1       -6.704   1.971   3.816  0.00  0.00    -0.530 OA
BRANCH  18  21
ATOM     21  C   LIG    1       -8.981   3.200   4.572  0.00  0.00    +0.320 C 
BRANCH  21  22
ATOM     22  C   LIG    1      -10.006   4.193   5.056  0.00  0.00    -0.110 A 
ATOM     23  C   LIG    1      -10.305   4.277   6.403  0.00  0.00    +0.020 A 
ATOM     24  C   LIG    1      -11.242   5.191   6.848  0.00  0.00    +0.010 A 
ATOM     25  C   LIG    1      -11.888   6.013   5.944  0.00  0.00    +0.010 A 
ATOM     26  C   LIG    1      -11.593   5.926   4.596  0.00  0.00    +0.010 A 
ATOM     27  C   LIG    1      -10.652   5.015   4.152  0.00  0.00    +0.020 A 
ENDBRANCH  21  22
ENDBRANCH  18  21
ENDBRANCH  16  17
ENDBRANCH   3  16
TORSDOF 8
