REMARK  Name = ZINCpe00000MJKU0.0
REMARK                            x       y       z     vdW  Elec       q    Type
REMARK                         _______ _______ _______ _____ _____    ______ ____
ROOT
ATOM      1  C   LIG    1        2.122   0.319  -1.671  0.00  0.00    +0.250 C 
ENDROOT
BRANCH   1   7
ATOM      2  C   LIG    1        1.999   1.941   0.122  0.00  0.00    +0.160 C 
ATOM      3  C   LIG    1        2.219   3.414   0.470  0.00  0.00    +0.030 C 
ATOM      4  C   LIG    1        3.706   3.750   0.328  0.00  0.00    +0.000 C 
ATOM      5  C   LIG    1        4.158   3.435  -1.101  0.00  0.00    +0.030 C 
ATOM      6  C   LIG    1        3.881   1.960  -1.404  0.00  0.00    +0.180 C 
ATOM      7  N   LIG    1        2.445   1.690  -1.254  0.00  0.00    -0.500 NA
BRANCH   2   8
ATOM      8  C   LIG    1        0.511   1.605   0.244  0.00  0.00    +0.320 C 
BRANCH   8  12
ATOM      9  C   LIG    1       -2.041   3.251   4.232  0.00  0.00    +0.110 C 
ATOM     10  C   LIG    1       -1.035   2.538   3.365  0.00  0.00    -0.240 A 
ATOM     11  C   LIG    1       -0.959   2.602   2.016  0.00  0.00    +0.220 A 
ATOM     12  N   LIG    1        0.072   1.825   1.625  0.00  0.00    -0.370 N 
ATOM     13  N   LIG    1        0.647   1.261   2.771  0.00  0.00    -0.290 NA
ATOM     14  C   LIG    1       -0.014   1.694   3.814  0.00  0.00    +0.230 A 
ENDBRANCH   8  12
ENDBRANCH   2   8
ENDBRANCH   1   7
BRANCH   1  15
ATOM     15  C   LIG    1        2.896  -0.659  -0.826  0.00  0.00    +0.490 C 
ATOM     16  N   LIG    1        2.848  -1.977  -1.105  0.00  0.00    -0.710 N 
ATOM     17  H   LIG    1        2.314  -2.296  -1.850  0.00  0.00    +0.410 HD
ATOM     18  O   LIG    1        3.563  -0.261   0.105  0.00  0.00    -0.530 OA
BRANCH  16  19
ATOM     19  C   LIG    1        3.600  -2.928  -0.283  0.00  0.00    +0.240 C 
ATOM     20  C   LIG    1        2.957  -4.313  -0.381  0.00  0.00    +0.040 C 
ATOM     21  C   LIG    1        3.283  -5.145   0.846  0.00  0.00    +0.030 C 
ATOM     22  C   LIG    1        4.752  -5.511   0.965  0.00  0.00    +0.010 C 
ATOM     23  C   LIG    1        5.604  -4.267   1.222  0.00  0.00    +0.270 C 
ATOM     24  N   LIG    1        5.951  -3.658  -0.072  0.00  0.00    -0.720 N 
ATOM     25  H   LIG    1        6.860  -3.719  -0.405  0.00  0.00    +0.400 HD
ATOM     26  C   LIG    1        5.024  -3.023  -0.790  0.00  0.00    +0.510 C 
ATOM     27  O   LIG    1        5.322  -2.520  -1.853  0.00  0.00    -0.540 OA
ENDBRANCH  16  19
ENDBRANCH   1  15
TORSDOF 5
