REMARK  Name = ZINCpk00000y6vfV.0
REMARK                            x       y       z     vdW  Elec       q    Type
REMARK                         _______ _______ _______ _____ _____    ______ ____
ROOT
ATOM      1  N   LIG    1       -6.097   2.750  -1.220  0.00  0.00    -0.510 NA
ATOM      2  C   LIG    1       -7.264   2.431  -2.071  0.00  0.00    +0.190 C 
ATOM      3  C   LIG    1       -8.320   1.855  -1.095  0.00  0.00    +0.180 C 
ATOM      4  C   LIG    1       -7.431   1.047  -0.113  0.00  0.00    +0.010 C 
ATOM      5  F   LIG    1       -9.217   1.017  -1.765  0.00  0.00    -0.200 F 
ATOM      6  C   LIG    1       -6.154   1.908  -0.011  0.00  0.00    +0.170 C 
ENDROOT
BRANCH   1   7
ATOM      7  C   LIG    1       -4.840   2.538  -1.950  0.00  0.00    +0.290 C 
BRANCH   7  11
ATOM      8  C   LIG    1       -5.935   3.334  -6.724  0.00  0.00    +0.180 C 
ATOM      9  C   LIG    1       -5.365   3.667  -5.369  0.00  0.00    +0.050 A 
ATOM     10  N   LIG    1       -5.404   2.889  -4.340  0.00  0.00    -0.470 NA
ATOM     11  C   LIG    1       -4.860   3.338  -3.227  0.00  0.00    +0.070 A 
ATOM     12  C   LIG    1       -4.323   4.558  -3.325  0.00  0.00    -0.060 A 
ATOM     13  S   LIG    1       -4.565   5.126  -4.976  0.00  0.00    +0.130 S 
ENDBRANCH   7  11
ENDBRANCH   1   7
BRANCH   6  14
ATOM     14  C   LIG    1       -4.921   1.004   0.052  0.00  0.00    +0.260 C 
BRANCH  14  15
ATOM     15  N   LIG    1       -4.943   0.235   1.299  0.00  0.00    -0.720 N 
ATOM     16  H   LIG    1       -5.633   0.403   1.961  0.00  0.00    +0.400 HD
ATOM     17  C   LIG    1       -4.006  -0.706   1.527  0.00  0.00    +0.560 C 
ATOM     18  O   LIG    1       -3.142  -0.916   0.699  0.00  0.00    -0.520 OA
BRANCH  17  19
ATOM     19  C   LIG    1       -4.028  -1.485   2.791  0.00  0.00    -0.040 A 
ATOM     20  C   LIG    1       -3.071  -2.453   3.036  0.00  0.00    +0.000 A 
ATOM     21  C   LIG    1       -3.119  -3.170   4.249  0.00  0.00    +0.510 A 
ATOM     22  N   LIG    1       -4.089  -2.912   5.147  0.00  0.00    -0.500 N 
ATOM     23  C   LIG    1       -5.033  -1.967   4.908  0.00  0.00    +0.310 A 
ATOM     24  C   LIG    1       -4.125  -3.665   6.403  0.00  0.00    +0.320 C 
ATOM     25  O   LIG    1       -2.281  -4.024   4.486  0.00  0.00    -0.540 OA
ATOM     26  C   LIG    1       -5.029  -1.253   3.759  0.00  0.00    -0.070 A 
ENDBRANCH  17  19
ENDBRANCH  14  15
ENDBRANCH   6  14
TORSDOF 5
