REMARK  Name = ZINCqH0000051Fb9.0
REMARK                            x       y       z     vdW  Elec       q    Type
REMARK                         _______ _______ _______ _____ _____    ______ ____
ROOT
ATOM      1  C   LIG    1        2.866   1.107  -1.476  0.00  0.00    +0.460 C 
ATOM      2  O   LIG    1        2.135   1.464  -2.370  0.00  0.00    -0.490 OA
ENDROOT
BRANCH   1   6
ATOM      3  O   LIG    1        1.159  -1.883   0.156  0.00  0.00    -0.510 OA
ATOM      4  C   LIG    1        1.135  -0.676   0.271  0.00  0.00    +0.520 C 
ATOM      5  C   LIG    1        2.374   0.056   0.714  0.00  0.00    +0.120 C 
ATOM      6  C   LIG    1        2.491   1.380  -0.042  0.00  0.00    +0.110 C 
ATOM      7  C   LIG    1        1.173   2.109   0.002  0.00  0.00    -0.120 A 
ATOM      8  C   LIG    1        1.148   3.489   0.027  0.00  0.00    +0.070 A 
ATOM      9  C   LIG    1       -0.061   4.160   0.050  0.00  0.00    -0.010 A 
ATOM     10  C   LIG    1       -1.248   3.451   0.047  0.00  0.00    +0.050 A 
ATOM     11  C   LIG    1       -1.230   2.070   0.031  0.00  0.00    -0.020 A 
ATOM     12  C   LIG    1       -0.017   1.393   0.010  0.00  0.00    +0.180 A 
ATOM     13  N   LIG    1        0.002  -0.004   0.002  0.00  0.00    -0.660 N 
ATOM     14  H   LIG    1       -0.810  -0.494  -0.199  0.00  0.00    +0.410 HD
ENDBRANCH   1   6
BRANCH   1  15
ATOM     15  O   LIG    1        4.012   0.468  -1.760  0.00  0.00    -0.330 OA
BRANCH  15  16
ATOM     16  C   LIG    1        4.309   0.240  -3.163  0.00  0.00    +0.240 C 
BRANCH  16  17
ATOM     17  C   LIG    1        5.625  -0.484  -3.286  0.00  0.00    +0.420 C 
ATOM     18  O   LIG    1        6.251  -0.779  -2.289  0.00  0.00    -0.420 OA
BRANCH  17  19
ATOM     19  C   LIG    1        6.130  -0.821  -4.566  0.00  0.00    -0.180 A 
ATOM     20  C   LIG    1        5.486  -0.524  -5.719  0.00  0.00    +0.010 A 
ATOM     21  S   LIG    1        6.344  -1.058  -7.086  0.00  0.00    +0.210 S 
ATOM     22  C   LIG    1        7.653  -1.727  -6.122  0.00  0.00    -0.170 A 
ATOM     23  C   LIG    1        8.823  -2.385  -6.517  0.00  0.00    +0.050 A 
ATOM     24  C   LIG    1        9.720  -2.831  -5.575  0.00  0.00    +0.030 A 
ATOM     25  C   LIG    1        9.472  -2.632  -4.225  0.00  0.00    +0.020 A 
ATOM     26  C   LIG    1        8.329  -1.987  -3.818  0.00  0.00    +0.060 A 
ATOM     27  C   LIG    1        7.403  -1.519  -4.767  0.00  0.00    -0.040 A 
ENDBRANCH  17  19
ENDBRANCH  16  17
ENDBRANCH  15  16
ENDBRANCH   1  15
TORSDOF 5
