REMARK  Name = ZINCqH0000031FB9.0
REMARK                            x       y       z     vdW  Elec       q    Type
REMARK                         _______ _______ _______ _____ _____    ______ ____
ROOT
ATOM      1  C   LIG    1        3.234  -1.498   1.235  0.00  0.00    +0.500 C 
ATOM      2  N   LIG    1        4.034  -0.707   0.493  0.00  0.00    -0.600 N 
ATOM      3  C   LIG    1        5.338  -1.237   0.048  0.00  0.00    +0.260 C 
ATOM      4  C   LIG    1        6.463  -0.196   0.181  0.00  0.00    +0.020 C 
ATOM      5  C   LIG    1        6.309   0.573   1.470  0.00  0.00    +0.010 C 
ATOM      6  C   LIG    1        5.478   1.827   1.214  0.00  0.00    +0.000 C 
ATOM      7  C   LIG    1        4.024   1.613   1.274  0.00  0.00    +0.010 C 
ATOM      8  C   LIG    1        3.579   0.626   0.166  0.00  0.00    +0.320 C 
ATOM      9  O   LIG    1        2.125  -1.118   1.546  0.00  0.00    -0.490 OA
ENDROOT
BRANCH   8  10
ATOM     10  C   LIG    1        2.076   0.632   0.062  0.00  0.00    +0.040 A 
ATOM     11  C   LIG    1        1.354   0.169  -0.979  0.00  0.00    -0.080 A 
ATOM     12  C   LIG    1       -0.006   0.365  -0.668  0.00  0.00    -0.070 A 
ATOM     13  C   LIG    1       -0.064   0.940   0.550  0.00  0.00    +0.140 A 
ATOM     14  N   LIG    1        1.212   1.107   1.003  0.00  0.00    -0.410 N 
ATOM     15  C   LIG    1        1.590   1.698   2.289  0.00  0.00    +0.290 C 
ENDBRANCH   8  10
BRANCH   1  16
ATOM     16  C   LIG    1        3.717  -2.856   1.677  0.00  0.00    +0.060 C 
BRANCH  16  17
ATOM     17  C   LIG    1        2.625  -3.543   2.499  0.00  0.00    +0.350 C 
BRANCH  17  20
ATOM     18  C   LIG    1       -0.958  -4.190   1.315  0.00  0.00    +0.100 C 
ATOM     19  C   LIG    1        0.237  -3.921   2.193  0.00  0.00    +0.520 C 
ATOM     20  N   LIG    1        1.463  -3.804   1.645  0.00  0.00    -0.720 N 
ATOM     21  H   LIG    1        1.576  -3.893   0.686  0.00  0.00    +0.400 HD
ATOM     22  O   LIG    1        0.096  -3.810   3.393  0.00  0.00    -0.540 OA
ENDBRANCH  17  20
BRANCH  17  23
ATOM     23  C   LIG    1        3.151  -4.846   3.044  0.00  0.00    -0.190 A 
ATOM     24  C   LIG    1        3.602  -5.034   4.285  0.00  0.00    +0.020 A 
ATOM     25  C   LIG    1        4.033  -6.320   4.560  0.00  0.00    +0.010 A 
ATOM     26  C   LIG    1        3.941  -7.174   3.540  0.00  0.00    -0.050 A 
ATOM     27  S   LIG    1        3.272  -6.348   2.138  0.00  0.00    +0.100 S 
ENDBRANCH  17  23
ENDBRANCH  16  17
ENDBRANCH   1  16
TORSDOF 5
