REMARK  Name = ZINCvU00000007V4.0
REMARK                            x       y       z     vdW  Elec       q    Type
REMARK                         _______ _______ _______ _____ _____    ______ ____
ROOT
ATOM      1  C   LIG    1        4.808   6.157  -1.456  0.00  0.00    +0.290 C 
ATOM      2  N   LIG    1        4.394   6.557  -2.619  0.00  0.00    -0.250 NA
ENDROOT
BRANCH   1   6
ATOM      3  N   LIG    1        2.358   3.889   0.000  0.00  0.00    -0.400 N 
ATOM      4  C   LIG    1        3.279   3.885   1.009  0.00  0.00    +0.030 A 
ATOM      5  C   LIG    1        4.306   4.683   0.663  0.00  0.00    -0.010 A 
ATOM      6  C   LIG    1        3.987   5.227  -0.660  0.00  0.00    -0.160 A 
ATOM      7  C   LIG    1        3.165   3.111   2.297  0.00  0.00    +0.120 C 
ATOM      8  C   LIG    1        2.776   4.699  -1.009  0.00  0.00    +0.100 A 
ATOM      9  C   LIG    1        2.033   4.968  -2.292  0.00  0.00    +0.150 C 
BRANCH   3  14
ATOM     10  C   LIG    1       -2.513   0.977   0.020  0.00  0.00    +0.100 C 
ATOM     11  C   LIG    1       -1.220   1.750   0.017  0.00  0.00    -0.070 A 
ATOM     12  C   LIG    1       -0.013   1.076   0.008  0.00  0.00    +0.020 A 
ATOM     13  C   LIG    1        1.175   1.782   0.000  0.00  0.00    +0.030 A 
ATOM     14  C   LIG    1        1.155   3.170   0.008  0.00  0.00    +0.100 A 
ATOM     15  C   LIG    1       -0.059   3.844   0.022  0.00  0.00    +0.030 A 
ATOM     16  C   LIG    1       -1.242   3.133   0.030  0.00  0.00    +0.020 A 
ENDBRANCH   3  14
ENDBRANCH   1   6
BRANCH   2  17
ATOM     17  N   LIG    1        5.175   7.442  -3.374  0.00  0.00    -0.580 N 
ATOM     18  H   LIG    1        6.025   7.756  -3.028  0.00  0.00    +0.380 HD
ATOM     19  C   LIG    1        4.745   7.856  -4.583  0.00  0.00    +0.530 C 
ATOM     20  O   LIG    1        3.682   7.464  -5.016  0.00  0.00    -0.480 OA
BRANCH  19  21
ATOM     21  C   LIG    1        5.584   8.808  -5.395  0.00  0.00    +0.250 C 
BRANCH  21  22
ATOM     22  O   LIG    1        4.920   9.097  -6.627  0.00  0.00    -0.290 OA
BRANCH  22  23
ATOM     23  C   LIG    1        5.548   9.946  -7.483  0.00  0.00    +0.130 A 
ATOM     24  C   LIG    1        6.775  10.494  -7.141  0.00  0.00    -0.080 A 
ATOM     25  C   LIG    1        7.414  11.354  -8.014  0.00  0.00    -0.050 A 
ATOM     26  C   LIG    1        6.826  11.675  -9.224  0.00  0.00    -0.030 A 
ATOM     27  C   LIG    1        5.600  11.133  -9.565  0.00  0.00    +0.060 A 
ATOM     28  C   LIG    1        8.749  11.946  -7.646  0.00  0.00    +0.090 C 
ATOM     29  C   LIG    1        4.960  10.270  -8.697  0.00  0.00    -0.100 A 
BRANCH  29  30
ATOM     30  C   LIG    1        3.623   9.681  -9.068  0.00  0.00    +0.030 C 
ATOM     31  C   LIG    1        3.764   8.870 -10.358  0.00  0.00    +0.020 C 
ATOM     32  C   LIG    1        2.611  10.808  -9.282  0.00  0.00    +0.020 C 
ENDBRANCH  29  30
ENDBRANCH  22  23
ENDBRANCH  21  22
ENDBRANCH  19  21
ENDBRANCH   2  17
TORSDOF 7
