REMARK  Name = ZINCrH000004t5jx.0
REMARK                            x       y       z     vdW  Elec       q    Type
REMARK                         _______ _______ _______ _____ _____    ______ ____
ROOT
ATOM      1  N   LIG    1       -0.668   5.173  -2.101  0.00  0.00    -0.730 N 
ATOM      2  H   LIG    1       -1.058   5.573  -1.308  0.00  0.00    +0.410 HD
ATOM      3  C   LIG    1       -0.457   3.843  -2.151  0.00  0.00    +0.710 C 
ATOM      4  N   LIG    1       -0.885   3.054  -1.146  0.00  0.00    -0.630 N 
ATOM      5  C   LIG    1       -0.765   1.593  -1.238  0.00  0.00    +0.300 C 
ATOM      6  C   LIG    1       -0.029   1.080   0.004  0.00  0.00    +0.010 C 
ATOM      7  C   LIG    1       -0.750   1.574   1.260  0.00  0.00    +0.030 C 
ATOM      8  C   LIG    1       -0.739   3.104   1.289  0.00  0.00    +0.030 C 
ATOM      9  C   LIG    1       -1.483   3.640   0.062  0.00  0.00    +0.280 C 
ATOM     10  O   LIG    1        0.121   3.355  -3.103  0.00  0.00    -0.580 OA
ENDROOT
BRANCH   8  11
ATOM     11  C   LIG    1       -1.421   3.589   2.542  0.00  0.00    -0.060 A 
ATOM     12  C   LIG    1       -2.743   3.264   2.779  0.00  0.00    +0.050 A 
ATOM     13  C   LIG    1       -3.369   3.703   3.930  0.00  0.00    +0.030 A 
ATOM     14  C   LIG    1       -2.676   4.480   4.842  0.00  0.00    +0.070 A 
ATOM     15  C   LIG    1       -1.350   4.811   4.602  0.00  0.00    +0.070 A 
ATOM     16  F   LIG    1       -0.671   5.569   5.490  0.00  0.00    -0.130 F 
ATOM     17  F   LIG    1       -3.289   4.915   5.964  0.00  0.00    -0.130 F 
ATOM     18  C   LIG    1       -0.725   4.365   3.451  0.00  0.00    +0.030 A 
ENDBRANCH   8  11
BRANCH   1  19
ATOM     19  C   LIG    1       -0.307   6.016  -3.244  0.00  0.00    +0.390 C 
BRANCH  19  25
ATOM     20  C   LIG    1        2.066   7.832  -4.063  0.00  0.00    +0.320 C 
ATOM     21  N   LIG    1        0.990   8.200  -3.139  0.00  0.00    -0.450 N 
ATOM     22  C   LIG    1        0.851   9.397  -2.490  0.00  0.00    +0.130 A 
ATOM     23  C   LIG    1       -0.264   9.307  -1.741  0.00  0.00    +0.140 A 
ATOM     24  N   LIG    1       -0.795   8.090  -1.932  0.00  0.00    -0.480 NA
ATOM     25  C   LIG    1       -0.051   7.423  -2.770  0.00  0.00    +0.190 A 
ENDBRANCH  19  25
BRANCH  19  26
ATOM     26  C   LIG    1       -1.455   6.020  -4.257  0.00  0.00    -0.060 C 
ATOM     27  C   LIG    1       -2.773   5.368  -3.833  0.00  0.00    +0.020 C 
ATOM     28  C   LIG    1       -1.871   4.676  -4.858  0.00  0.00    +0.030 C 
ENDBRANCH  19  26
ENDBRANCH   1  19
TORSDOF 4
