REMARK  Name = ZINC450000002DBS.0
REMARK                            x       y       z     vdW  Elec       q    Type
REMARK                         _______ _______ _______ _____ _____    ______ ____
ROOT
ATOM      1  N   LIG    1       -0.012   1.005   0.008  0.00  0.00    -0.630 N 
ATOM      2  H   LIG    1       -0.500   1.339  -0.810  0.00  0.00    +0.440 HD
ATOM      3  H   LIG    1        0.935   1.354   0.000  0.00  0.00    +0.450 HD
ATOM      4  H   LIG    1        0.002  -0.004   0.002  0.00  0.00    +0.440 HD
ENDROOT
BRANCH   1   5
ATOM      5  C   LIG    1       -0.699   1.479   1.216  0.00  0.00    +0.260 C 
BRANCH   5   6
ATOM      6  C   LIG    1       -2.135   0.949   1.227  0.00  0.00    +0.240 C 
ATOM      7  F   LIG    1       -2.789   1.400   2.378  0.00  0.00    -0.180 F 
ENDBRANCH   5   6
ENDBRANCH   1   5
TORSDOF 2
