REMARK  Name = ZINCqH0000007pS5.0
REMARK                            x       y       z     vdW  Elec       q    Type
REMARK                         _______ _______ _______ _____ _____    ______ ____
ROOT
ATOM      1  N   LIG    1       -2.103   1.072   1.277  0.00  0.00    -0.700 N 
ATOM      2  H   LIG    1       -2.316   0.256   1.757  0.00  0.00    +0.400 HD
ATOM      3  C   LIG    1       -3.073   1.740   0.621  0.00  0.00    +0.570 C 
ATOM      4  O   LIG    1       -2.807   2.762   0.020  0.00  0.00    -0.520 OA
ENDROOT
BRANCH   3   5
ATOM      5  C   LIG    1       -4.464   1.226   0.631  0.00  0.00    +0.120 A 
ATOM      6  N   LIG    1       -4.736   0.115   1.288  0.00  0.00    -0.440 NA
ATOM      7  C   LIG    1       -5.971  -0.383   1.325  0.00  0.00    +0.130 A 
ATOM      8  C   LIG    1       -6.254  -1.569   2.028  0.00  0.00    +0.070 A 
ATOM      9  C   LIG    1       -7.526  -2.053   2.050  0.00  0.00    -0.020 A 
ATOM     10  C   LIG    1       -8.560  -1.394   1.384  0.00  0.00    +0.040 A 
ATOM     11  C   LIG    1       -8.325  -0.245   0.692  0.00  0.00    +0.070 A 
ATOM     12 CL   LIG    1       -7.868  -3.516   2.920  0.00  0.00    -0.050 Cl
ATOM     13  C   LIG    1       -7.025   0.285   0.648  0.00  0.00    -0.090 A 
ATOM     14  C   LIG    1       -6.745   1.472  -0.056  0.00  0.00    +0.100 A 
ATOM     15  C   LIG    1       -5.461   1.937  -0.053  0.00  0.00    +0.030 A 
ENDBRANCH   3   5
BRANCH   1  16
ATOM     16  C   LIG    1       -0.729   1.579   1.267  0.00  0.00    +0.210 C 
ATOM     17  C   LIG    1       -0.013   1.086   0.008  0.00  0.00    +0.040 C 
BRANCH  16  18
ATOM     18  C   LIG    1        0.011   1.072   2.506  0.00  0.00    +0.280 C 
BRANCH  18  22
ATOM     19  C   LIG    1       -2.178   2.154   6.014  0.00  0.00    +0.130 A 
ATOM     20  C   LIG    1       -1.144   2.962   5.563  0.00  0.00    -0.020 A 
ATOM     21  C   LIG    1       -0.438   2.610   4.429  0.00  0.00    +0.060 A 
ATOM     22  C   LIG    1       -0.761   1.454   3.743  0.00  0.00    -0.160 A 
ATOM     23  C   LIG    1       -1.794   0.650   4.187  0.00  0.00    +0.050 A 
ATOM     24  C   LIG    1       -2.500   0.994   5.324  0.00  0.00    -0.070 A 
BRANCH  19  26
ATOM     25  C   LIG    1       -3.924   1.619   7.535  0.00  0.00    +0.250 C 
ATOM     26  O   LIG    1       -2.873   2.498   7.129  0.00  0.00    -0.320 OA
ENDBRANCH  19  26
ENDBRANCH  18  22
BRANCH  18  27
ATOM     27  O   LIG    1        0.132  -0.350   2.440  0.00  0.00    -0.540 OA
ATOM     28  H   LIG    1       -0.714  -0.816   2.403  0.00  0.00    +0.370 HD
ENDBRANCH  18  27
ENDBRANCH  16  18
ENDBRANCH   1  16
TORSDOF 6
