REMARK  Name = ZINCnE000001Q3eI.1
REMARK                            x       y       z     vdW  Elec       q    Type
REMARK                         _______ _______ _______ _____ _____    ______ ____
ROOT
ATOM      1  C   LIG    1       -0.015   1.294   0.009  0.00  0.00    +0.250 A 
ATOM      2  N   LIG    1        0.002  -0.004   0.002  0.00  0.00    -0.460 NA
ATOM      3  C   LIG    1        1.180  -0.587  -0.012  0.00  0.00    +0.130 A 
ATOM      4  C   LIG    1        2.224   0.271  -0.018  0.00  0.00    -0.160 A 
ATOM      5  C   LIG    1        1.351  -2.084  -0.022  0.00  0.00    +0.170 C 
ATOM      6  S   LIG    1        1.579   1.910  -0.003  0.00  0.00    +0.150 S 
ENDROOT
BRANCH   4   7
ATOM      7  C   LIG    1        3.649  -0.099  -0.033  0.00  0.00    +0.240 A 
ATOM      8  N   LIG    1        4.122  -1.317  -0.038  0.00  0.00    -0.300 NA
ATOM      9  N   LIG    1        5.521  -1.239  -0.056  0.00  0.00    -0.370 NA
ATOM     10  C   LIG    1        5.856   0.068  -0.053  0.00  0.00    +0.390 A 
ATOM     11  S   LIG    1        7.445   0.704  -0.064  0.00  0.00    -0.770 S 
ATOM     12  N   LIG    1        4.713   0.783  -0.038  0.00  0.00    -0.510 N 
ATOM     13  C   LIG    1        4.616   2.245  -0.030  0.00  0.00    +0.320 C 
ENDBRANCH   4   7
BRANCH   1  15
ATOM     14  C   LIG    1       -2.376   1.481   0.022  0.00  0.00    +0.550 C 
ATOM     15  N   LIG    1       -1.164   2.071   0.019  0.00  0.00    -0.630 N 
ATOM     16  H   LIG    1       -1.096   3.038   0.024  0.00  0.00    +0.420 HD
ATOM     17  O   LIG    1       -2.462   0.269   0.017  0.00  0.00    -0.460 OA
BRANCH  14  23
ATOM     18  C   LIG    1       -7.354   1.826   0.050  0.00  0.00    +0.090 C 
ATOM     19  C   LIG    1       -5.996   2.480   0.046  0.00  0.00    -0.090 A 
ATOM     20  C   LIG    1       -5.895   3.859   0.054  0.00  0.00    +0.040 A 
ATOM     21  C   LIG    1       -4.652   4.468   0.050  0.00  0.00    +0.010 A 
ATOM     22  C   LIG    1       -3.505   3.702   0.045  0.00  0.00    +0.040 A 
ATOM     23  C   LIG    1       -3.601   2.309   0.033  0.00  0.00    -0.130 A 
ATOM     24  C   LIG    1       -4.857   1.701   0.036  0.00  0.00    +0.080 A 
ENDBRANCH  14  23
ENDBRANCH   1  15
TORSDOF 3
