REMARK  Name = ZINCqH0000035PM5.0
REMARK                            x       y       z     vdW  Elec       q    Type
REMARK                         _______ _______ _______ _____ _____    ______ ____
ROOT
ATOM      1  S   LIG    1        7.447   1.058   0.276  0.00  0.00    +0.090 S 
ENDROOT
BRANCH   1   6
ATOM      2  N   LIG    1       10.116   1.875   0.496  0.00  0.00    -0.410 N 
ATOM      3  C   LIG    1       10.779   3.073   0.549  0.00  0.00    +0.400 A 
ATOM      4  N   LIG    1        9.882   4.016   0.484  0.00  0.00    -0.280 NA
ATOM      5  N   LIG    1        8.708   3.503   0.389  0.00  0.00    -0.290 NA
ATOM      6  C   LIG    1        8.790   2.193   0.388  0.00  0.00    +0.140 A 
BRANCH   2  10
ATOM      7  C   LIG    1       11.793  -1.943   0.625  0.00  0.00    +0.150 A 
ATOM      8  C   LIG    1       12.294  -0.995  -0.255  0.00  0.00    +0.020 A 
ATOM      9  C   LIG    1       11.739   0.269  -0.298  0.00  0.00    +0.080 A 
ATOM     10  C   LIG    1       10.680   0.591   0.539  0.00  0.00    +0.060 A 
ATOM     11  C   LIG    1       10.183  -0.356   1.424  0.00  0.00    +0.080 A 
ATOM     12  C   LIG    1       10.734  -1.622   1.462  0.00  0.00    -0.050 A 
BRANCH   7  14
ATOM     13  C   LIG    1       11.773  -4.113   1.597  0.00  0.00    +0.250 C 
ATOM     14  O   LIG    1       12.339  -3.187   0.667  0.00  0.00    -0.310 OA
ENDBRANCH   7  14
ENDBRANCH   2  10
ENDBRANCH   1   6
BRANCH   1  15
ATOM     15  C   LIG    1        6.062   2.219   0.174  0.00  0.00    +0.110 C 
BRANCH  15  16
ATOM     16  C   LIG    1        4.770   1.451   0.068  0.00  0.00    +0.540 C 
ATOM     17  N   LIG    1        3.599   2.112  -0.021  0.00  0.00    -0.660 N 
ATOM     18  H   LIG    1        3.592   3.079  -0.097  0.00  0.00    +0.420 HD
ATOM     19  O   LIG    1        4.784   0.238   0.062  0.00  0.00    -0.500 OA
BRANCH  17  20
ATOM     20  C   LIG    1        2.390   1.403  -0.002  0.00  0.00    +0.170 A 
ATOM     21  C   LIG    1        2.326   0.156   0.599  0.00  0.00    +0.040 A 
ATOM     22  C   LIG    1        1.132  -0.543   0.616  0.00  0.00    +0.030 A 
ATOM     23  C   LIG    1        0.001  -0.001   0.036  0.00  0.00    +0.010 A 
ATOM     24  C   LIG    1        0.055   1.242  -0.566  0.00  0.00    +0.020 A 
ATOM     25  C   LIG    1        1.248   1.950  -0.588  0.00  0.00    -0.120 A 
BRANCH  25  26
ATOM     26  S   LIG    1        1.321   3.535  -1.354  0.00  0.00    -0.120 S 
ATOM     27  C   LIG    1       -0.376   3.782  -1.944  0.00  0.00    +0.150 C 
ENDBRANCH  25  26
ENDBRANCH  17  20
ENDBRANCH  15  16
ENDBRANCH   1  15
TORSDOF 7
