REMARK  Name = ZINCAx0000000jXy.0
REMARK                            x       y       z     vdW  Elec       q    Type
REMARK                         _______ _______ _______ _____ _____    ______ ____
ROOT
ATOM      1  N   LIG    1       -9.152   2.537  -5.064  0.00  0.00    -0.510 N 
ATOM      2  C   LIG    1       -8.305   1.497  -4.958  0.00  0.00    +0.570 C 
ATOM      3  C   LIG    1       -7.236   1.856  -3.999  0.00  0.00    -0.110 A 
ATOM      4  C   LIG    1       -6.120   1.198  -3.508  0.00  0.00    +0.100 A 
ATOM      5  C   LIG    1       -5.294   1.829  -2.593  0.00  0.00    +0.090 A 
ATOM      6  C   LIG    1       -5.580   3.124  -2.163  0.00  0.00    -0.110 A 
ATOM      7  C   LIG    1       -6.707   3.793  -2.649  0.00  0.00    +0.180 A 
ATOM      8  C   LIG    1       -7.530   3.166  -3.568  0.00  0.00    -0.140 A 
ATOM      9  O   LIG    1       -8.402   0.441  -5.549  0.00  0.00    -0.440 OA
ATOM     10  C   LIG    1       -8.766   3.558  -4.278  0.00  0.00    +0.580 C 
ATOM     11  O   LIG    1       -9.338   4.624  -4.170  0.00  0.00    -0.440 OA
ENDROOT
BRANCH   1  15
ATOM     12  C   LIG    1      -12.530   2.588  -7.512  0.00  0.00    +0.140 A 
ATOM     13  C   LIG    1      -11.718   1.462  -7.473  0.00  0.00    +0.020 A 
ATOM     14  C   LIG    1      -10.600   1.445  -6.662  0.00  0.00    +0.040 A 
ATOM     15  C   LIG    1      -10.288   2.554  -5.887  0.00  0.00    +0.110 A 
ATOM     16  C   LIG    1      -11.102   3.678  -5.922  0.00  0.00    +0.050 A 
ATOM     17  C   LIG    1      -12.217   3.697  -6.736  0.00  0.00    +0.040 A 
BRANCH  12  20
ATOM     18  C   LIG    1      -15.344   3.803  -9.698  0.00  0.00    +0.110 C 
ATOM     19  C   LIG    1      -14.060   3.757  -8.911  0.00  0.00    +0.510 C 
ATOM     20  N   LIG    1      -13.664   2.606  -8.334  0.00  0.00    -0.670 N 
ATOM     21  H   LIG    1      -14.164   1.789  -8.488  0.00  0.00    +0.410 HD
ATOM     22  O   LIG    1      -13.382   4.757  -8.798  0.00  0.00    -0.520 OA
ENDBRANCH  12  20
ENDBRANCH   1  15
BRANCH   6  23
ATOM     23  C   LIG    1       -4.691   3.790  -1.184  0.00  0.00    +0.560 C 
ATOM     24  N   LIG    1       -3.607   3.144  -0.710  0.00  0.00    -0.720 N 
ATOM     25  H   LIG    1       -3.409   2.243  -1.010  0.00  0.00    +0.400 HD
ATOM     26  O   LIG    1       -4.939   4.918  -0.808  0.00  0.00    -0.520 OA
BRANCH  24  27
ATOM     27  C   LIG    1       -2.727   3.803   0.258  0.00  0.00    +0.290 C 
ATOM     28  C   LIG    1       -3.282   3.603   1.670  0.00  0.00    +0.040 C 
BRANCH  27  29
ATOM     29  C   LIG    1       -1.347   3.205   0.172  0.00  0.00    -0.110 A 
ATOM     30  C   LIG    1       -1.197   1.839  -0.005  0.00  0.00    +0.060 A 
ATOM     31  C   LIG    1        0.062   1.278  -0.081  0.00  0.00    -0.010 A 
ATOM     32  C   LIG    1        1.188   2.083   0.009  0.00  0.00    +0.180 A 
ATOM     33  C   LIG    1        1.041   3.466   0.182  0.00  0.00    -0.160 A 
ATOM     34  C   LIG    1       -0.239   4.020   0.263  0.00  0.00    +0.070 A 
BRANCH  33  35
ATOM     35  C   LIG    1        2.231   4.333   0.279  0.00  0.00    +0.560 C 
ATOM     36  O   LIG    1        3.344   3.847   0.209  0.00  0.00    -0.520 OA
ATOM     37  N   LIG    1        2.085   5.662   0.446  0.00  0.00    -0.850 N 
ATOM     38  H   LIG    1        2.868   6.232   0.510  0.00  0.00    +0.410 HD
ATOM     39  H   LIG    1        1.198   6.049   0.502  0.00  0.00    +0.400 HD
ENDBRANCH  33  35
BRANCH  32  40
ATOM     40  O   LIG    1        2.426   1.534  -0.071  0.00  0.00    -0.480 OA
ATOM     41  H   LIG    1        2.777   1.485  -0.971  0.00  0.00    +0.400 HD
ENDBRANCH  32  40
ENDBRANCH  27  29
ENDBRANCH  24  27
ENDBRANCH   6  23
TORSDOF 7
