REMARK  Name = ZINCpe00000gNeuQ.0
REMARK                            x       y       z     vdW  Elec       q    Type
REMARK                         _______ _______ _______ _____ _____    ______ ____
ROOT
ATOM      1  O   LIG    1        2.112   4.513   0.022  0.00  0.00    -0.520 OA
ATOM      2  C   LIG    1        2.354   3.369  -0.311  0.00  0.00    +0.560 C 
ATOM      3  N   LIG    1        3.628   2.929  -0.337  0.00  0.00    -0.730 N 
ATOM      4  H   LIG    1        3.820   2.017  -0.603  0.00  0.00    +0.400 HD
ENDROOT
BRANCH   2   5
ATOM      5  C   LIG    1        1.252   2.462  -0.689  0.00  0.00    -0.130 A 
ATOM      6  C   LIG    1        1.528   1.147  -1.072  0.00  0.00    +0.070 A 
ATOM      7  C   LIG    1        0.498   0.302  -1.424  0.00  0.00    +0.040 A 
ATOM      8  C   LIG    1       -0.814   0.754  -1.405  0.00  0.00    +0.060 A 
ATOM      9  O   LIG    1       -1.988   0.124  -1.697  0.00  0.00    -0.300 OA
ATOM     10  C   LIG    1       -3.020   0.933  -1.102  0.00  0.00    +0.440 C 
ATOM     11  O   LIG    1       -2.448   2.255  -1.076  0.00  0.00    -0.300 OA
ATOM     12  C   LIG    1       -1.097   2.065  -1.017  0.00  0.00    +0.030 A 
ATOM     13  C   LIG    1       -0.069   2.916  -0.663  0.00  0.00    +0.110 A 
ENDBRANCH   2   5
BRANCH   3  14
ATOM     14  C   LIG    1        4.721   3.829   0.038  0.00  0.00    +0.280 C 
BRANCH  14  15
ATOM     15  C   LIG    1        6.034   3.046   0.084  0.00  0.00    +0.140 C 
BRANCH  15  16
ATOM     16  N   LIG    1        6.029   2.152   1.250  0.00  0.00    -0.530 NA
ATOM     17  C   LIG    1        7.199   1.261   1.236  0.00  0.00    +0.150 C 
ATOM     18  C   LIG    1        7.187   0.391   2.495  0.00  0.00    +0.220 C 
ATOM     19  O   LIG    1        5.955  -0.334   2.555  0.00  0.00    -0.380 OA
ATOM     20  C   LIG    1        4.795   0.502   2.571  0.00  0.00    +0.220 C 
ATOM     21  C   LIG    1        4.784   1.374   1.312  0.00  0.00    +0.150 C 
ENDBRANCH  15  16
BRANCH  15  22
ATOM     22  C   LIG    1        7.207   4.021   0.195  0.00  0.00    -0.020 C 
ATOM     23  C   LIG    1        7.225   4.985  -1.013  0.00  0.00    +0.000 C 
ATOM     24  C   LIG    1        7.051   6.383  -0.380  0.00  0.00    +0.190 C 
ATOM     25  O   LIG    1        7.522   6.235   0.977  0.00  0.00    -0.380 OA
ATOM     26  C   LIG    1        7.025   4.952   1.414  0.00  0.00    +0.220 C 
ENDBRANCH  15  22
ENDBRANCH  14  15
ENDBRANCH   3  14
TORSDOF 5
