REMARK  Name = ZINCbw0000000Heq.0
REMARK                            x       y       z     vdW  Elec       q    Type
REMARK                         _______ _______ _______ _____ _____    ______ ____
ROOT
ATOM      1  C   LIG    1        1.176   2.087   0.002  0.00  0.00    +0.190 A 
ATOM      2  C   LIG    1       -0.017   1.378   0.010  0.00  0.00    -0.050 A 
ATOM      3  C   LIG    1        0.002  -0.004   0.002  0.00  0.00    +0.050 A 
ATOM      4  C   LIG    1        1.207  -0.681  -0.013  0.00  0.00    -0.020 A 
ATOM      5  C   LIG    1        2.399   0.021  -0.020  0.00  0.00    +0.020 A 
ATOM      6  C   LIG    1        2.388   1.403  -0.013  0.00  0.00    +0.020 A 
ATOM      7  F   LIG    1        3.552   2.089  -0.020  0.00  0.00    -0.140 F 
ENDROOT
BRANCH   1   8
ATOM      8  N   LIG    1        1.161   3.485   0.009  0.00  0.00    -0.750 N 
ATOM      9  H   LIG    1        1.995   3.980   0.004  0.00  0.00    +0.400 HD
BRANCH   8  10
ATOM     10  C   LIG    1       -0.116   4.203   0.025  0.00  0.00    +0.240 C 
BRANCH  10  12
ATOM     11  C   LIG    1       -1.187   6.460   0.046  0.00  0.00    +0.030 C 
ATOM     12  C   LIG    1        0.146   5.711   0.030  0.00  0.00    +0.000 C 
ENDBRANCH  10  12
ENDBRANCH   8  10
ENDBRANCH   1   8
TORSDOF 3
