REMARK  Name = ZINCpk00000KfLSM.0
REMARK                            x       y       z     vdW  Elec       q    Type
REMARK                         _______ _______ _______ _____ _____    ______ ____
ROOT
ATOM      1  C   LIG    1       -0.742   1.585  -1.213  0.00  0.00    +0.530 C 
ATOM      2  N   LIG    1       -2.029   1.243  -1.416  0.00  0.00    -0.730 N 
ATOM      3  H   LIG    1       -2.487   0.676  -0.776  0.00  0.00    +0.400 HD
ATOM      4  O   LIG    1       -0.169   2.295  -2.013  0.00  0.00    -0.490 OA
ENDROOT
BRANCH   1   5
ATOM      5  C   LIG    1       -0.013   1.086   0.008  0.00  0.00    +0.110 C 
BRANCH   5   6
ATOM      6  C   LIG    1        1.401   1.607  -0.003  0.00  0.00    +0.340 C 
ATOM      7  O   LIG    1        1.649   2.669  -0.522  0.00  0.00    -0.360 OA
BRANCH   6   8
ATOM      8  C   LIG    1        2.505   0.804   0.635  0.00  0.00    +0.150 C 
BRANCH   8  10
ATOM      9  C   LIG    1        3.445   0.003   2.807  0.00  0.00    +0.040 C 
ATOM     10  C   LIG    1        2.403   0.916   2.158  0.00  0.00    +0.040 C 
ENDBRANCH   8  10
BRANCH   8  11
ATOM     11  O   LIG    1        3.771   1.309   0.205  0.00  0.00    -0.360 OA
ATOM     12  C   LIG    1        4.271   0.690  -0.982  0.00  0.00    +0.210 C 
ENDBRANCH   8  11
ENDBRANCH   6   8
ENDBRANCH   5   6
BRANCH   5  13
ATOM     13  C   LIG    1       -0.702   1.560   1.219  0.00  0.00    +0.200 C 
ATOM     14  N   LIG    1       -1.233   1.927   2.154  0.00  0.00    -0.370 NA
ENDBRANCH   5  13
ENDBRANCH   1   5
BRANCH   2  15
ATOM     15  C   LIG    1       -2.738   1.728  -2.603  0.00  0.00    +0.280 C 
BRANCH  15  16
ATOM     16  C   LIG    1       -4.173   1.199  -2.592  0.00  0.00    +0.070 C 
BRANCH  16  17
ATOM     17  C   LIG    1       -4.902   1.698  -3.813  0.00  0.00    -0.080 A 
ATOM     18  C   LIG    1       -5.594   2.894  -3.762  0.00  0.00    +0.020 A 
ATOM     19  C   LIG    1       -6.260   3.358  -4.881  0.00  0.00    -0.030 A 
ATOM     20  C   LIG    1       -6.244   2.620  -6.053  0.00  0.00    +0.100 A 
ATOM     21  C   LIG    1       -5.552   1.413  -6.102  0.00  0.00    +0.100 A 
ATOM     22  C   LIG    1       -4.882   0.956  -4.979  0.00  0.00    -0.030 A 
BRANCH  21  23
ATOM     23  O   LIG    1       -5.533   0.685  -7.251  0.00  0.00    -0.310 OA
ATOM     24  C   LIG    1       -4.803  -0.543  -7.228  0.00  0.00    +0.250 C 
ENDBRANCH  21  23
BRANCH  20  25
ATOM     25  O   LIG    1       -6.904   3.073  -7.153  0.00  0.00    -0.310 OA
ATOM     26  C   LIG    1       -7.592   4.319  -7.029  0.00  0.00    +0.250 C 
ENDBRANCH  20  25
ENDBRANCH  16  17
ENDBRANCH  15  16
ENDBRANCH   2  15
TORSDOF 11
