REMARK  Name = ZINCnE00000rhnxy.0
REMARK                            x       y       z     vdW  Elec       q    Type
REMARK                         _______ _______ _______ _____ _____    ______ ____
ROOT
ATOM      1  N   LIG    1        3.836  -3.839  -1.436  0.00  0.00    -0.240 NA
ATOM      2  N   LIG    1        4.994  -3.993  -1.854  0.00  0.00    -0.170 NA
ENDROOT
BRANCH   2   3
ATOM      3  C   LIG    1        5.208  -4.382  -3.150  0.00  0.00    +0.010 A 
ATOM      4  C   LIG    1        4.123  -4.611  -4.001  0.00  0.00    +0.050 A 
ATOM      5  C   LIG    1        4.336  -4.998  -5.309  0.00  0.00    +0.010 A 
ATOM      6  C   LIG    1        5.622  -5.172  -5.784  0.00  0.00    -0.030 A 
ATOM      7  C   LIG    1        6.718  -4.952  -4.941  0.00  0.00    -0.120 A 
ATOM      8 BR   LIG    1        5.902  -5.710  -7.575  0.00  0.00    -0.020 Br
ATOM      9  C   LIG    1        6.508  -4.556  -3.620  0.00  0.00    +0.140 A 
BRANCH   7  10
ATOM     10  C   LIG    1        8.090  -5.138  -5.448  0.00  0.00    +0.510 C 
ATOM     11  O   LIG    1        8.272  -5.486  -6.607  0.00  0.00    -0.650 OA
ATOM     12  O   LIG    1        9.046  -4.945  -4.711  0.00  0.00    -0.680 OA
ENDBRANCH   7  10
ENDBRANCH   2   3
BRANCH   1  13
ATOM     13  C   LIG    1        3.607  -3.423  -0.050  0.00  0.00    +0.310 C 
BRANCH  13  23
ATOM     14  C   LIG    1        4.876  -0.603  -0.048  0.00  0.00    +0.330 C 
ATOM     15  N   LIG    1        3.439  -0.884  -0.035  0.00  0.00    -0.490 N 
ATOM     16  C   LIG    1        2.422   0.049  -0.021  0.00  0.00    +0.050 A 
ATOM     17  C   LIG    1        2.383   1.437  -0.014  0.00  0.00    +0.010 A 
ATOM     18  C   LIG    1        1.167   2.086   0.002  0.00  0.00    +0.030 A 
ATOM     19  C   LIG    1       -0.017   1.362   0.009  0.00  0.00    +0.000 A 
ATOM     20  C   LIG    1        0.002  -0.004   0.002  0.00  0.00    +0.070 A 
ATOM     21  C   LIG    1        1.223  -0.684  -0.013  0.00  0.00    +0.050 A 
ATOM     22  N   LIG    1        1.562  -1.998  -0.023  0.00  0.00    -0.470 NA
ATOM     23  C   LIG    1        2.858  -2.115  -0.036  0.00  0.00    +0.290 A 
ENDBRANCH  13  23
ENDBRANCH   1  13
TORSDOF 4
