REMARK  Name = ZINCnE00000rhnxy.1
REMARK                            x       y       z     vdW  Elec       q    Type
REMARK                         _______ _______ _______ _____ _____    ______ ____
ROOT
ATOM      1  C   LIG    1        1.242  -1.989  -0.021  0.00  0.00    +0.190 C 
ATOM      2  N   LIG    1        1.225  -0.688  -0.013  0.00  0.00    -0.150 NA
ENDROOT
BRANCH   1  12
ATOM      3  C   LIG    1        1.582  -5.057  -0.040  0.00  0.00    +0.340 C 
ATOM      4  N   LIG    1        2.664  -4.070  -0.045  0.00  0.00    -0.490 N 
ATOM      5  C   LIG    1        4.020  -4.339  -0.060  0.00  0.00    +0.050 A 
ATOM      6  C   LIG    1        4.768  -5.507  -0.073  0.00  0.00    +0.010 A 
ATOM      7  C   LIG    1        6.145  -5.441  -0.086  0.00  0.00    +0.030 A 
ATOM      8  C   LIG    1        6.791  -4.213  -0.085  0.00  0.00    +0.000 A 
ATOM      9  C   LIG    1        6.067  -3.043  -0.072  0.00  0.00    +0.070 A 
ATOM     10  C   LIG    1        4.669  -3.091  -0.059  0.00  0.00    +0.050 A 
ATOM     11  N   LIG    1        3.708  -2.137  -0.051  0.00  0.00    -0.450 NA
ATOM     12  C   LIG    1        2.522  -2.705  -0.037  0.00  0.00    +0.340 A 
ENDBRANCH   1  12
BRANCH   2  13
ATOM     13  N   LIG    1        0.002  -0.004   0.002  0.00  0.00    -0.570 N 
ATOM     14  H   LIG    1       -0.831  -0.500   0.007  0.00  0.00    +0.390 HD
BRANCH  13  15
ATOM     15  C   LIG    1       -0.017   1.392   0.010  0.00  0.00    +0.190 A 
ATOM     16  C   LIG    1        1.178   2.104   0.002  0.00  0.00    -0.010 A 
ATOM     17  C   LIG    1        1.166   3.486   0.010  0.00  0.00    +0.050 A 
ATOM     18  C   LIG    1       -0.033   4.170   0.025  0.00  0.00    -0.090 A 
ATOM     19  C   LIG    1       -1.241   3.465   0.033  0.00  0.00    -0.080 A 
ATOM     20 BR   LIG    1       -0.042   6.061   0.034  0.00  0.00    -0.030 Br
ATOM     21  C   LIG    1       -1.227   2.069   0.019  0.00  0.00    +0.000 A 
BRANCH  19  22
ATOM     22  C   LIG    1       -2.523   4.193   0.049  0.00  0.00    +0.510 C 
ATOM     23  O   LIG    1       -2.532   5.416   0.056  0.00  0.00    -0.650 OA
ATOM     24  O   LIG    1       -3.578   3.573   0.056  0.00  0.00    -0.690 OA
ENDBRANCH  19  22
ENDBRANCH  13  15
ENDBRANCH   2  13
TORSDOF 4
