REMARK  Name = ZINCpe00000gMPnn.0
REMARK                            x       y       z     vdW  Elec       q    Type
REMARK                         _______ _______ _______ _____ _____    ______ ____
ROOT
ATOM      1  N   LIG    1        4.067   0.159  -1.702  0.00  0.00    -0.720 N 
ATOM      2  H   LIG    1        4.624  -0.154  -0.972  0.00  0.00    +0.400 HD
ATOM      3  C   LIG    1        2.914   0.806  -1.442  0.00  0.00    +0.510 C 
ATOM      4  O   LIG    1        2.219   1.197  -2.355  0.00  0.00    -0.530 OA
ENDROOT
BRANCH   1   5
ATOM      5  C   LIG    1        4.480  -0.074  -3.088  0.00  0.00    +0.350 C 
BRANCH   5  10
ATOM      6  C   LIG    1        9.527  -2.845  -3.146  0.00  0.00    +0.140 C 
ATOM      7  C   LIG    1        8.204  -2.125  -3.131  0.00  0.00    +0.180 A 
ATOM      8  C   LIG    1        7.055  -2.834  -3.227  0.00  0.00    -0.090 A 
ATOM      9  C   LIG    1        5.820  -2.171  -3.214  0.00  0.00    +0.050 A 
ATOM     10  C   LIG    1        5.794  -0.811  -3.104  0.00  0.00    -0.260 A 
ATOM     11  C   LIG    1        7.006  -0.106  -3.012  0.00  0.00    +0.530 A 
ATOM     12  O   LIG    1        6.998   1.111  -2.919  0.00  0.00    -0.540 OA
ATOM     13  C   LIG    1        4.535  -2.951  -3.321  0.00  0.00    +0.120 C 
ATOM     14  N   LIG    1        8.176  -0.772  -3.022  0.00  0.00    -0.610 N 
ATOM     15  H   LIG    1        9.009  -0.280  -2.954  0.00  0.00    +0.420 HD
ENDBRANCH   5  10
ENDBRANCH   1   5
BRANCH   3  16
ATOM     16  C   LIG    1        2.490   1.045  -0.016  0.00  0.00    +0.110 C 
BRANCH  16  17
ATOM     17  C   LIG    1        1.176   1.783   0.000  0.00  0.00    -0.050 A 
ATOM     18  C   LIG    1       -0.013   1.076   0.008  0.00  0.00    +0.060 A 
ATOM     19  C   LIG    1       -1.218   1.749   0.017  0.00  0.00    +0.020 A 
ATOM     20  C   LIG    1       -1.236   3.137   0.030  0.00  0.00    +0.130 A 
ATOM     21  C   LIG    1       -0.042   3.845   0.023  0.00  0.00    +0.040 A 
ATOM     22  C   LIG    1        1.161   3.165   0.008  0.00  0.00    +0.060 A 
BRANCH  20  23
ATOM     23  N   LIG    1       -2.459   3.824   0.045  0.00  0.00    -0.330 N 
ATOM     24  C   LIG    1       -3.700   3.290   0.048  0.00  0.00    +0.470 A 
ATOM     25  N   LIG    1       -4.550   4.283   0.067  0.00  0.00    -0.330 NA
ATOM     26  N   LIG    1       -3.932   5.409   0.067  0.00  0.00    -0.030 NA
ATOM     27  N   LIG    1       -2.657   5.216   0.054  0.00  0.00    -0.080 NA
ENDBRANCH  20  23
ENDBRANCH  16  17
ENDBRANCH   3  16
TORSDOF 5
