REMARK  Name = ZINCnE000001Ebd5.1
REMARK                            x       y       z     vdW  Elec       q    Type
REMARK                         _______ _______ _______ _____ _____    ______ ____
ROOT
ATOM      1  N   LIG    1       -0.067   1.120  -2.437  0.00  0.00    -0.730 N 
ATOM      2  H   LIG    1        0.730   0.573  -2.358  0.00  0.00    +0.400 HD
ATOM      3  C   LIG    1       -0.543   1.446  -3.655  0.00  0.00    +0.510 C 
ATOM      4  O   LIG    1       -1.540   2.130  -3.753  0.00  0.00    -0.530 OA
ENDROOT
BRANCH   1   5
ATOM      5  C   LIG    1       -0.753   1.593  -1.232  0.00  0.00    +0.290 C 
BRANCH   5   6
ATOM      6  C   LIG    1       -0.013   1.086   0.008  0.00  0.00    +0.130 C 
BRANCH   6  12
ATOM      7  N   LIG    1       -0.334   1.310   2.540  0.00  0.00    -0.500 N 
ATOM      8  C   LIG    1       -1.208   1.911   3.372  0.00  0.00    +0.390 A 
ATOM      9  N   LIG    1       -2.125   2.540   2.608  0.00  0.00    -0.380 NA
ATOM     10  N   LIG    1       -1.782   2.309   1.269  0.00  0.00    -0.320 NA
ATOM     11  S   LIG    1       -1.163   1.881   5.083  0.00  0.00    -0.780 S 
ATOM     12  C   LIG    1       -0.718   1.572   1.248  0.00  0.00    +0.160 A 
BRANCH   7  14
ATOM     13  C   LIG    1        1.774   1.379   3.778  0.00  0.00    +0.040 C 
ATOM     14  C   LIG    1        0.827   0.513   2.945  0.00  0.00    +0.230 C 
ATOM     15  C   LIG    1        0.360  -0.681   3.780  0.00  0.00    +0.040 C 
ENDBRANCH   7  14
ENDBRANCH   6  12
ENDBRANCH   5   6
ENDBRANCH   1   5
BRANCH   3  16
ATOM     16  C   LIG    1        0.162   0.960  -4.895  0.00  0.00    +0.040 C 
BRANCH  16  17
ATOM     17  C   LIG    1       -0.578   1.467  -6.134  0.00  0.00    +0.020 C 
ATOM     18  C   LIG    1       -1.972   0.838  -6.189  0.00  0.00    +0.020 C 
ATOM     19  C   LIG    1       -2.712   1.345  -7.428  0.00  0.00    +0.000 C 
ATOM     20  C   LIG    1       -1.928   0.958  -8.684  0.00  0.00    +0.000 C 
ATOM     21  C   LIG    1       -0.534   1.587  -8.629  0.00  0.00    +0.010 C 
ATOM     22  C   LIG    1        0.206   1.080  -7.390  0.00  0.00    -0.060 C 
ATOM     23  C   LIG    1        0.335  -0.443  -7.460  0.00  0.00    +0.010 C 
ATOM     24  C   LIG    1        1.599   1.708  -7.335  0.00  0.00    +0.020 C 
ENDBRANCH  16  17
ENDBRANCH   3  16
TORSDOF 6
