REMARK  Name = ZINCqH00000055GR.1
REMARK                            x       y       z     vdW  Elec       q    Type
REMARK                         _______ _______ _______ _____ _____    ______ ____
ROOT
ATOM      1  N   LIG    1        0.298  -2.294   0.938  0.00  0.00    -0.740 N 
ATOM      2  H   LIG    1        0.222  -2.592   0.018  0.00  0.00    +0.410 HD
ATOM      3  C   LIG    1        0.494  -3.193   1.923  0.00  0.00    +0.700 C 
ATOM      4  N   LIG    1        0.585  -4.505   1.629  0.00  0.00    -0.740 N 
ATOM      5  H   LIG    1        0.509  -4.803   0.709  0.00  0.00    +0.400 HD
ATOM      6  O   LIG    1        0.589  -2.820   3.076  0.00  0.00    -0.590 OA
ENDROOT
BRANCH   1   7
ATOM      7  C   LIG    1        0.199  -0.868   1.256  0.00  0.00    +0.300 C 
BRANCH   7   8
ATOM      8  C   LIG    1        0.098  -0.061  -0.040  0.00  0.00    +0.250 C 
BRANCH   8   9
ATOM      9  C   LIG    1       -0.134   1.391   0.289  0.00  0.00    -0.220 A 
ATOM     10  C   LIG    1        0.775   2.361   0.175  0.00  0.00    +0.020 A 
ATOM     11  C   LIG    1        0.332   3.621   0.536  0.00  0.00    +0.000 A 
ATOM     12  C   LIG    1       -0.937   3.676   0.943  0.00  0.00    -0.060 A 
ATOM     13  S   LIG    1       -1.648   2.069   0.875  0.00  0.00    +0.110 S 
ENDBRANCH   8   9
BRANCH   8  15
ATOM     14  C   LIG    1       -2.222  -0.752  -0.018  0.00  0.00    +0.200 C 
ATOM     15  N   LIG    1       -1.022  -0.566  -0.845  0.00  0.00    -0.530 NA
ATOM     16  C   LIG    1       -1.298   0.324  -1.980  0.00  0.00    +0.200 C 
ENDBRANCH   8  15
ENDBRANCH   7   8
ENDBRANCH   1   7
BRANCH   4  17
ATOM     17  C   LIG    1        0.799  -5.482   2.700  0.00  0.00    +0.340 C 
BRANCH  17  18
ATOM     18  C   LIG    1        0.863  -6.867   2.110  0.00  0.00    -0.130 A 
ATOM     19  C   LIG    1       -0.292  -7.616   1.980  0.00  0.00    +0.080 A 
ATOM     20  C   LIG    1       -0.236  -8.884   1.434  0.00  0.00    -0.050 A 
ATOM     21  C   LIG    1        0.981  -9.411   1.029  0.00  0.00    +0.110 A 
ATOM     22  C   LIG    1        2.139  -8.659   1.166  0.00  0.00    +0.020 A 
ATOM     23  C   LIG    1        2.078  -7.390   1.706  0.00  0.00    +0.080 A 
BRANCH  21  24
ATOM     24  O   LIG    1        1.039 -10.660   0.498  0.00  0.00    -0.310 OA
BRANCH  24  25
ATOM     25  C   LIG    1       -0.193 -11.376   0.386  0.00  0.00    +0.600 C 
ATOM     26  F   LIG    1       -0.757 -11.533   1.657  0.00  0.00    -0.160 F 
ATOM     27  F   LIG    1        0.048 -12.634  -0.176  0.00  0.00    -0.130 F 
ATOM     28  F   LIG    1       -1.075 -10.661  -0.431  0.00  0.00    -0.160 F 
ENDBRANCH  24  25
ENDBRANCH  21  24
ENDBRANCH  17  18
ENDBRANCH   4  17
TORSDOF 8
