REMARK  Name = ZINCqH00000071PU.0
REMARK                            x       y       z     vdW  Elec       q    Type
REMARK                         _______ _______ _______ _____ _____    ______ ____
ROOT
ATOM      1  N   LIG    1       -1.391  -2.698  -0.500  0.00  0.00    -0.610 N 
ATOM      2  C   LIG    1       -2.183  -2.005   0.341  0.00  0.00    +0.540 C 
ATOM      3  O   LIG    1       -1.690  -1.258   1.163  0.00  0.00    -0.490 OA
ATOM      4  C   LIG    1       -1.984  -3.489  -1.581  0.00  0.00    +0.290 C 
ENDROOT
BRANCH   2   5
ATOM      5  C   LIG    1       -3.652  -2.152   0.263  0.00  0.00    -0.070 A 
ATOM      6  C   LIG    1       -4.212  -3.282  -0.335  0.00  0.00    +0.030 A 
ATOM      7  C   LIG    1       -5.584  -3.415  -0.401  0.00  0.00    +0.130 A 
ATOM      8  C   LIG    1       -6.404  -2.428   0.116  0.00  0.00    -0.640 A 
ATOM      9  C   LIG    1       -5.855  -1.303   0.706  0.00  0.00    +0.130 A 
ATOM     10  C   LIG    1       -4.485  -1.159   0.782  0.00  0.00    +0.070 A 
BRANCH   8  11
ATOM     11  S   LIG    1       -8.154  -2.602   0.021  0.00  0.00    +2.480 S 
ATOM     12  O   LIG    1       -8.643  -1.829   1.109  0.00  0.00    -0.880 OA
ATOM     13  O   LIG    1       -8.364  -4.007  -0.031  0.00  0.00    -0.880 OA
BRANCH  11  14
ATOM     14  C   LIG    1       -8.602  -1.833  -1.559  0.00  0.00    -0.050 C 
ATOM     15  F   LIG    1       -7.953  -2.501  -2.603  0.00  0.00    -0.160 F 
ATOM     16  F   LIG    1       -8.211  -0.489  -1.551  0.00  0.00    -0.160 F 
ENDBRANCH  11  14
ENDBRANCH   8  11
ENDBRANCH   2   5
BRANCH   1  17
ATOM     17  C   LIG    1        0.064  -2.662  -0.333  0.00  0.00    +0.360 C 
BRANCH  17  24
ATOM     18  C   LIG    1        0.580  -0.228  -0.644  0.00  0.00    +0.160 A 
ATOM     19  C   LIG    1        1.099   0.820  -1.390  0.00  0.00    -0.070 A 
ATOM     20  C   LIG    1        1.681   0.570  -2.618  0.00  0.00    +0.090 A 
ATOM     21  C   LIG    1        1.734  -0.722  -3.110  0.00  0.00    -0.140 A 
ATOM     22  C   LIG    1        1.210  -1.768  -2.369  0.00  0.00    +0.100 A 
ATOM     23 BR   LIG    1        2.523  -1.060  -4.794  0.00  0.00    -0.050 Br
ATOM     24  C   LIG    1        0.634  -1.523  -1.138  0.00  0.00    -0.150 A 
BRANCH  18  26
ATOM     25  C   LIG    1       -0.008   1.373   1.014  0.00  0.00    +0.230 C 
ATOM     26  O   LIG    1        0.013   0.015   0.568  0.00  0.00    -0.270 OA
ENDBRANCH  18  26
ENDBRANCH  17  24
ENDBRANCH   1  17
TORSDOF 6
