REMARK  Name = ZINCqH00000014GS.0
REMARK                            x       y       z     vdW  Elec       q    Type
REMARK                         _______ _______ _______ _____ _____    ______ ____
ROOT
ATOM      1  C   LIG    1       -8.251   2.488   2.996  0.00  0.00    +0.220 A 
ATOM      2  N   LIG    1       -9.530   2.212   2.935  0.00  0.00    -0.260 NA
ATOM      3  N   LIG    1       -9.796   1.579   1.845  0.00  0.00    -0.250 NA
ATOM      4  C   LIG    1       -8.681   1.420   1.150  0.00  0.00    +0.110 A 
ATOM      5  C   LIG    1       -8.381   0.817  -0.086  0.00  0.00    +0.190 A 
ATOM      6  C   LIG    1       -7.098   0.825  -0.533  0.00  0.00    -0.020 A 
ATOM      7  C   LIG    1       -6.085   1.429   0.238  0.00  0.00    +0.440 A 
ATOM      8  N   LIG    1       -6.362   1.987   1.393  0.00  0.00    -0.330 NA
ATOM      9  N   LIG    1       -7.672   2.001   1.878  0.00  0.00    -0.270 N 
ENDROOT
BRANCH   7  10
ATOM     10  N   LIG    1       -4.775   1.431  -0.229  0.00  0.00    -0.590 N 
ATOM     11  C   LIG    1       -4.316   0.844  -1.496  0.00  0.00    +0.280 C 
ATOM     12  C   LIG    1       -2.790   1.061  -1.577  0.00  0.00    +0.050 C 
ATOM     13  C   LIG    1       -2.389   1.259  -0.091  0.00  0.00    +0.170 C 
ATOM     14  C   LIG    1       -3.617   2.023   0.465  0.00  0.00    +0.300 C 
BRANCH  13  15
ATOM     15  O   LIG    1       -1.202   2.047   0.019  0.00  0.00    -0.290 OA
BRANCH  15  16
ATOM     16  C   LIG    1       -0.019   1.380   0.051  0.00  0.00    +0.140 A 
ATOM     17  C   LIG    1        0.009   0.006  -0.137  0.00  0.00    -0.060 A 
ATOM     18  C   LIG    1        1.214  -0.670  -0.109  0.00  0.00    +0.060 A 
ATOM     19  C   LIG    1        2.392   0.022   0.106  0.00  0.00    +0.000 A 
ATOM     20  C   LIG    1        2.368   1.392   0.294  0.00  0.00    +0.070 A 
ATOM     21  C   LIG    1        1.165   2.073   0.267  0.00  0.00    -0.070 A 
ATOM     22 CL   LIG    1        1.135   3.792   0.502  0.00  0.00    -0.050 Cl
ENDBRANCH  15  16
ENDBRANCH  13  15
ENDBRANCH   7  10
BRANCH   1  24
ATOM     23  C   LIG    1       -8.570   3.600   5.189  0.00  0.00    +0.080 C 
ATOM     24  C   LIG    1       -7.551   3.219   4.113  0.00  0.00    +0.020 C 
ATOM     25  C   LIG    1       -6.893   4.485   3.561  0.00  0.00    +0.050 C 
ATOM     26  C   LIG    1       -6.480   2.312   4.723  0.00  0.00    +0.050 C 
ENDBRANCH   1  24
TORSDOF 4
