REMARK  Name = ZINCrH000004kMOZ.0
REMARK                            x       y       z     vdW  Elec       q    Type
REMARK                         _______ _______ _______ _____ _____    ______ ____
ROOT
ATOM      1  C   LIG    1        2.502   1.453  -0.007  0.00  0.00    +0.180 A 
ATOM      2  C   LIG    1        2.860   0.161  -0.118  0.00  0.00    -0.140 A 
ATOM      3  S   LIG    1        4.619   0.079  -0.103  0.00  0.00    +0.250 S 
ATOM      4  C   LIG    1        4.711   1.777   0.060  0.00  0.00    +0.240 A 
ATOM      5  N   LIG    1        3.524   2.293   0.089  0.00  0.00    -0.500 NA
ENDROOT
BRANCH   1   8
ATOM      6  C   LIG    1       -0.744   3.188   0.046  0.00  0.00    -0.050 A 
ATOM      7  C   LIG    1        0.634   3.232   0.032  0.00  0.00    +0.110 A 
ATOM      8  C   LIG    1        1.086   1.899   0.012  0.00  0.00    -0.120 A 
ATOM      9  C   LIG    1       -0.015   1.092   0.015  0.00  0.00    +0.250 A 
ATOM     10  N   LIG    1       -1.122   1.864   0.030  0.00  0.00    -0.520 N 
ATOM     11  H   LIG    1       -2.036   1.539   0.032  0.00  0.00    +0.430 HD
BRANCH   6  12
ATOM     12  C   LIG    1       -1.645   4.343   0.068  0.00  0.00    +0.540 C 
ATOM     13  O   LIG    1       -1.188   5.471   0.075  0.00  0.00    -0.490 OA
BRANCH  12  15
ATOM     14  C   LIG    1       -3.812   5.347   0.102  0.00  0.00    +0.280 C 
ATOM     15  O   LIG    1       -2.981   4.157   0.080  0.00  0.00    -0.370 OA
ENDBRANCH  12  15
ENDBRANCH   6  12
ENDBRANCH   1   8
BRANCH   4  16
ATOM     16  N   LIG    1        5.893   2.503   0.147  0.00  0.00    -0.620 N 
ATOM     17  H   LIG    1        5.864   3.468   0.238  0.00  0.00    +0.430 HD
ATOM     18  C   LIG    1        7.080   1.865   0.106  0.00  0.00    +0.560 C 
ATOM     19  O   LIG    1        7.117   0.653   0.088  0.00  0.00    -0.490 OA
BRANCH  18  20
ATOM     20  C   LIG    1        8.361   2.658   0.083  0.00  0.00    -0.120 C 
ATOM     21  C   LIG    1        9.642   1.944   0.521  0.00  0.00    +0.110 C 
ATOM     22  C   LIG    1        9.005   3.000   1.429  0.00  0.00    +0.080 C 
BRANCH  20  23
ATOM     23  C   LIG    1        8.475   3.676  -1.022  0.00  0.00    -0.060 A 
ATOM     24  C   LIG    1        9.221   4.824  -0.829  0.00  0.00    +0.060 A 
ATOM     25  C   LIG    1        9.331   5.757  -1.843  0.00  0.00    -0.010 A 
ATOM     26  C   LIG    1        8.684   5.546  -3.049  0.00  0.00    +0.100 A 
ATOM     27  C   LIG    1        7.933   4.398  -3.239  0.00  0.00    +0.000 A 
ATOM     28  F   LIG    1        8.787   6.459  -4.039  0.00  0.00    -0.140 F 
ATOM     29  C   LIG    1        7.830   3.465  -2.225  0.00  0.00    +0.050 A 
ENDBRANCH  20  23
ENDBRANCH  18  20
ENDBRANCH   4  16
TORSDOF 6
