REMARK  Name = ZINCrH000004rrfe.0
REMARK                            x       y       z     vdW  Elec       q    Type
REMARK                         _______ _______ _______ _____ _____    ______ ____
ROOT
ATOM      1  C   LIG    1       -0.128   0.957   0.449  0.00  0.00    +0.100 C 
ATOM      2  C   LIG    1       -0.981   1.507   1.562  0.00  0.00    +0.020 A 
ATOM      3  C   LIG    1       -0.455   1.639   2.834  0.00  0.00    +0.020 A 
ATOM      4  C   LIG    1       -1.235   2.142   3.857  0.00  0.00    +0.080 A 
ATOM      5  C   LIG    1       -2.549   2.517   3.606  0.00  0.00    +0.110 A 
ATOM      6  C   LIG    1       -3.074   2.384   2.327  0.00  0.00    +0.120 A 
ATOM      7  C   LIG    1       -2.287   1.885   1.308  0.00  0.00    -0.670 A 
ENDROOT
BRANCH   7   8
ATOM      8  S   LIG    1       -2.950   1.722  -0.317  0.00  0.00    +2.690 S 
ATOM      9  O   LIG    1       -1.962   2.224  -1.205  0.00  0.00    -0.950 OA
ATOM     10  O   LIG    1       -4.276   2.230  -0.262  0.00  0.00    -0.950 OA
BRANCH   8  11
ATOM     11  N   LIG    1       -3.083   0.102  -0.632  0.00  0.00    -0.990 NA
ATOM     12  C   LIG    1       -2.005  -0.616  -1.327  0.00  0.00    +0.290 C 
ATOM     13  C   LIG    1       -1.599  -1.829  -0.476  0.00  0.00    +0.010 C 
ATOM     14  C   LIG    1       -2.837  -2.681  -0.188  0.00  0.00    +0.020 C 
ATOM     15  C   LIG    1       -3.853  -1.855   0.605  0.00  0.00    +0.010 C 
ATOM     16  C   LIG    1       -4.282  -0.644  -0.228  0.00  0.00    +0.290 C 
ENDBRANCH   8  11
ENDBRANCH   7   8
BRANCH   5  17
ATOM     17  N   LIG    1       -3.340   3.027   4.638  0.00  0.00    -1.050 N 
ATOM     18  H   LIG    1       -4.251   2.713   4.750  0.00  0.00    +0.430 HD
BRANCH  17  19
ATOM     19  S   LIG    1       -2.723   4.165   5.670  0.00  0.00    +2.690 S 
ATOM     20  O   LIG    1       -1.458   3.678   6.095  0.00  0.00    -0.940 OA
ATOM     21  O   LIG    1       -3.770   4.500   6.571  0.00  0.00    -0.940 OA
BRANCH  19  22
ATOM     22  C   LIG    1       -2.405   5.614   4.718  0.00  0.00    -0.670 A 
ATOM     23  C   LIG    1       -1.170   5.791   4.121  0.00  0.00    +0.140 A 
ATOM     24  C   LIG    1       -0.922   6.924   3.370  0.00  0.00    +0.040 A 
ATOM     25  C   LIG    1       -1.905   7.886   3.225  0.00  0.00    -0.040 A 
ATOM     26  C   LIG    1       -3.138   7.711   3.827  0.00  0.00    +0.040 A 
ATOM     27 BR   LIG    1       -1.563   9.441   2.204  0.00  0.00    -0.030 Br
ATOM     28  C   LIG    1       -3.387   6.575   4.573  0.00  0.00    +0.140 A 
ENDBRANCH  19  22
ENDBRANCH  17  19
ENDBRANCH   5  17
TORSDOF 5
