REMARK  Name = ZINCrD000000DhfW.1
REMARK                            x       y       z     vdW  Elec       q    Type
REMARK                         _______ _______ _______ _____ _____    ______ ____
ROOT
ATOM      1  C   LIG    1        4.035   0.548  -0.511  0.00  0.00    +0.180 A 
ATOM      2  N   LIG    1        4.372   1.787  -0.717  0.00  0.00    -0.350 NA
ATOM      3  O   LIG    1        3.388   2.471  -0.902  0.00  0.00    +0.110 OA
ATOM      4  C   LIG    1        2.286   1.708  -0.821  0.00  0.00    +0.240 A 
ATOM      5  N   LIG    1        2.697   0.474  -0.574  0.00  0.00    -0.460 NA
ENDROOT
BRANCH   4   6
ATOM      6  C   LIG    1        0.892   2.155  -0.981  0.00  0.00    +0.150 A 
ATOM      7  C   LIG    1        0.477   3.432  -1.236  0.00  0.00    -0.020 A 
ATOM      8  C   LIG    1       -0.926   3.419  -1.315  0.00  0.00    +0.150 A 
ATOM      9  N   LIG    1       -1.341   2.183  -1.120  0.00  0.00    -0.230 NA
ATOM     10  N   LIG    1       -0.223   1.368  -0.903  0.00  0.00    -0.440 N 
ATOM     11  H   LIG    1       -0.237   0.413  -0.731  0.00  0.00    +0.450 HD
BRANCH   8  12
ATOM     12  C   LIG    1       -1.789   4.592  -1.577  0.00  0.00    -0.130 A 
ATOM     13  C   LIG    1       -3.134   4.566  -1.655  0.00  0.00    +0.050 A 
ATOM     14  C   LIG    1       -3.721   5.789  -1.905  0.00  0.00    +0.010 A 
ATOM     15  C   LIG    1       -2.869   6.809  -2.041  0.00  0.00    -0.030 A 
ATOM     16  S   LIG    1       -1.219   6.234  -1.842  0.00  0.00    +0.150 S 
ENDBRANCH   8  12
ENDBRANCH   4   6
BRANCH   1  17
ATOM     17  C   LIG    1        4.978  -0.598  -0.249  0.00  0.00    +0.320 C 
BRANCH  17  22
ATOM     18  N   LIG    1        4.698  -2.279  -2.163  0.00  0.00    -0.430 N 
ATOM     19  C   LIG    1        5.389  -2.533  -3.310  0.00  0.00    +0.390 A 
ATOM     20  N   LIG    1        6.386  -1.691  -3.354  0.00  0.00    -0.290 NA
ATOM     21  N   LIG    1        6.361  -0.928  -2.320  0.00  0.00    -0.270 NA
ATOM     22  C   LIG    1        5.352  -1.249  -1.556  0.00  0.00    +0.180 A 
BRANCH  18  26
ATOM     23  C   LIG    1        1.287  -4.248  -0.794  0.00  0.00    +0.030 A 
ATOM     24  C   LIG    1        1.293  -3.670  -2.050  0.00  0.00    +0.040 A 
ATOM     25  C   LIG    1        2.422  -3.017  -2.506  0.00  0.00    +0.030 A 
ATOM     26  C   LIG    1        3.551  -2.941  -1.702  0.00  0.00    +0.110 A 
ATOM     27  C   LIG    1        3.544  -3.527  -0.444  0.00  0.00    +0.020 A 
ATOM     28  C   LIG    1        2.411  -4.175   0.009  0.00  0.00    +0.040 A 
ENDBRANCH  18  26
ENDBRANCH  17  22
ENDBRANCH   1  17
TORSDOF 5
