REMARK  Name = ZINCrD000000DhfW.0
REMARK                            x       y       z     vdW  Elec       q    Type
REMARK                         _______ _______ _______ _____ _____    ______ ____
ROOT
ATOM      1  C   LIG    1       -4.055   6.778  -0.421  0.00  0.00    +0.170 A 
ATOM      2  N   LIG    1       -2.804   7.126  -0.492  0.00  0.00    -0.360 NA
ATOM      3  O   LIG    1       -2.109   6.162  -0.736  0.00  0.00    +0.100 OA
ATOM      4  C   LIG    1       -2.876   5.067  -0.849  0.00  0.00    +0.260 A 
ATOM      5  N   LIG    1       -4.124   5.458  -0.653  0.00  0.00    -0.430 NA
ENDROOT
BRANCH   4   6
ATOM      6  C   LIG    1       -2.417   3.693  -1.141  0.00  0.00    +0.140 A 
ATOM      7  N   LIG    1       -3.187   2.628  -1.249  0.00  0.00    -0.210 NA
ATOM      8  N   LIG    1       -2.375   1.522  -1.532  0.00  0.00    -0.450 N 
ATOM      9  H   LIG    1       -2.679   0.610  -1.662  0.00  0.00    +0.450 HD
ATOM     10  C   LIG    1       -1.081   1.953  -1.592  0.00  0.00    +0.170 A 
ATOM     11  C   LIG    1       -1.083   3.297  -1.347  0.00  0.00    -0.050 A 
BRANCH  10  12
ATOM     12  C   LIG    1        0.103   1.119  -1.866  0.00  0.00    -0.160 A 
ATOM     13  C   LIG    1        0.084  -0.209  -2.100  0.00  0.00    +0.030 A 
ATOM     14  C   LIG    1        1.321  -0.771  -2.337  0.00  0.00    +0.010 A 
ATOM     15  C   LIG    1        2.348   0.084  -2.298  0.00  0.00    -0.030 A 
ATOM     16  S   LIG    1        1.761   1.703  -1.944  0.00  0.00    +0.180 S 
ENDBRANCH  10  12
ENDBRANCH   4   6
BRANCH   1  17
ATOM     17  C   LIG    1       -5.218   7.693  -0.136  0.00  0.00    +0.310 C 
BRANCH  17  22
ATOM     18  N   LIG    1       -5.328   9.406  -2.038  0.00  0.00    -0.430 N 
ATOM     19  C   LIG    1       -6.075   9.515  -3.173  0.00  0.00    +0.390 A 
ATOM     20  N   LIG    1       -6.873   8.483  -3.211  0.00  0.00    -0.290 NA
ATOM     21  N   LIG    1       -6.672   7.737  -2.184  0.00  0.00    -0.260 NA
ATOM     22  C   LIG    1       -5.742   8.258  -1.431  0.00  0.00    +0.180 A 
BRANCH  18  26
ATOM     23  C   LIG    1       -2.384  12.039  -0.702  0.00  0.00    +0.030 A 
ATOM     24  C   LIG    1       -2.289  11.479  -1.962  0.00  0.00    +0.040 A 
ATOM     25  C   LIG    1       -3.262  10.607  -2.408  0.00  0.00    +0.030 A 
ATOM     26  C   LIG    1       -4.338  10.291  -1.589  0.00  0.00    +0.110 A 
ATOM     27  C   LIG    1       -4.434  10.859  -0.325  0.00  0.00    +0.020 A 
ATOM     28  C   LIG    1       -3.454  11.727   0.117  0.00  0.00    +0.040 A 
ENDBRANCH  18  26
ENDBRANCH  17  22
ENDBRANCH   1  17
TORSDOF 5
