REMARK  Name = ZINCvU0000000J0n.0
REMARK                            x       y       z     vdW  Elec       q    Type
REMARK                         _______ _______ _______ _____ _____    ______ ____
ROOT
ATOM      1  O   LIG    1        1.133  -0.018  -1.924  0.00  0.00    -0.520 OA
ATOM      2  C   LIG    1        0.663  -0.641  -0.989  0.00  0.00    +0.590 C 
ATOM      3  N   LIG    1        0.069   0.016   0.027  0.00  0.00    -0.720 N 
ATOM      4  H   LIG    1       -0.305  -0.480   0.772  0.00  0.00    +0.400 HD
ENDROOT
BRANCH   2   5
ATOM      5  C   LIG    1        0.746  -2.105  -0.968  0.00  0.00    -0.240 A 
ATOM      6  C   LIG    1        1.323  -2.875  -1.938  0.00  0.00    +0.100 A 
ATOM      7  C   LIG    1        1.281  -4.221  -1.701  0.00  0.00    +0.080 A 
ATOM      8  C   LIG    1        0.668  -4.578  -0.532  0.00  0.00    -0.130 A 
ATOM      9  S   LIG    1        0.123  -3.136   0.313  0.00  0.00    +0.200 S 
BRANCH   8  10
ATOM     10  C   LIG    1        0.496  -5.958  -0.052  0.00  0.00    +0.180 A 
ATOM     11  N   LIG    1        0.899  -7.015  -0.679  0.00  0.00    -0.450 NA
ATOM     12  C   LIG    1        0.674  -8.206  -0.115  0.00  0.00    +0.080 A 
ATOM     13  C   LIG    1        1.016  -9.490  -0.593  0.00  0.00    +0.080 A 
ATOM     14  C   LIG    1        0.696 -10.603   0.123  0.00  0.00    +0.030 A 
ATOM     15  C   LIG    1        0.030 -10.500   1.336  0.00  0.00    +0.050 A 
ATOM     16  C   LIG    1       -0.316  -9.262   1.829  0.00  0.00    +0.060 A 
ATOM     17  C   LIG    1        0.001  -8.111   1.111  0.00  0.00    -0.170 A 
ATOM     18  S   LIG    1       -0.293  -6.408   1.453  0.00  0.00    +0.070 S 
ENDBRANCH   8  10
ENDBRANCH   2   5
BRANCH   3  19
ATOM     19  C   LIG    1       -0.013   1.478   0.006  0.00  0.00    +0.340 C 
BRANCH  19  20
ATOM     20  C   LIG    1       -0.720   1.960   1.247  0.00  0.00    -0.090 A 
ATOM     21  C   LIG    1       -2.095   2.118   1.239  0.00  0.00    +0.020 A 
ATOM     22  C   LIG    1       -2.748   2.554   2.373  0.00  0.00    +0.030 A 
ATOM     23  C   LIG    1       -2.018   2.845   3.527  0.00  0.00    -0.120 A 
ATOM     24  C   LIG    1       -0.631   2.688   3.526  0.00  0.00    +0.080 A 
ATOM     25  C   LIG    1        0.009   2.247   2.387  0.00  0.00    +0.020 A 
BRANCH  23  26
ATOM     26  C   LIG    1       -2.711   3.317   4.745  0.00  0.00    +0.570 C 
ATOM     27  N   LIG    1       -4.024   3.620   4.698  0.00  0.00    -0.610 N 
ATOM     28  C   LIG    1       -4.906   3.433   3.537  0.00  0.00    +0.250 C 
ATOM     29  C   LIG    1       -6.307   3.940   3.939  0.00  0.00    +0.030 C 
ATOM     30  C   LIG    1       -5.999   4.913   5.108  0.00  0.00    +0.040 C 
ATOM     31  C   LIG    1       -4.811   4.201   5.801  0.00  0.00    +0.250 C 
ATOM     32  O   LIG    1       -2.098   3.431   5.788  0.00  0.00    -0.530 OA
ENDBRANCH  23  26
ENDBRANCH  19  20
ENDBRANCH   3  19
TORSDOF 5
