REMARK  Name = ZINCtV000002IDJp.0
REMARK                            x       y       z     vdW  Elec       q    Type
REMARK                         _______ _______ _______ _____ _____    ______ ____
ROOT
ATOM      1  C   LIG    1       -2.030   3.124  10.701  0.00  0.00    -0.050 A 
ATOM      2  C   LIG    1       -0.876   2.341  10.780  0.00  0.00    +0.100 A 
ATOM      3  C   LIG    1       -0.307   1.837   9.631  0.00  0.00    -0.010 A 
ATOM      4  C   LIG    1       -0.880   2.108   8.393  0.00  0.00    +0.170 A 
ATOM      5  C   LIG    1       -2.026   2.892   8.311  0.00  0.00    +0.020 A 
ATOM      6  C   LIG    1       -2.603   3.394   9.457  0.00  0.00    +0.060 A 
ENDROOT
BRANCH   1  13
ATOM      7  C   LIG    1       -5.359   6.025  17.022  0.00  0.00    +0.100 C 
ATOM      8  C   LIG    1       -4.485   5.328  16.010  0.00  0.00    -0.060 A 
ATOM      9  C   LIG    1       -3.376   4.609  16.430  0.00  0.00    +0.030 A 
ATOM     10  C   LIG    1       -2.576   3.972  15.531  0.00  0.00    +0.080 A 
ATOM     11  C   LIG    1       -2.861   4.032  14.149  0.00  0.00    +0.080 A 
ATOM     12  N   LIG    1       -2.192   3.473  13.126  0.00  0.00    -0.460 NA
ATOM     13  C   LIG    1       -2.643   3.664  11.932  0.00  0.00    +0.160 A 
ATOM     14  S   LIG    1       -4.087   4.667  11.977  0.00  0.00    +0.070 S 
ATOM     15  C   LIG    1       -3.983   4.760  13.733  0.00  0.00    -0.170 A 
ATOM     16  C   LIG    1       -4.789   5.405  14.669  0.00  0.00    +0.050 A 
ENDBRANCH   1  13
BRANCH   4  17
ATOM     17  N   LIG    1       -0.300   1.597   7.231  0.00  0.00    -0.670 N 
ATOM     18  H   LIG    1        0.663   1.494   7.174  0.00  0.00    +0.410 HD
ATOM     19  C   LIG    1       -1.078   1.247   6.188  0.00  0.00    +0.560 C 
ATOM     20  O   LIG    1       -2.289   1.285   6.293  0.00  0.00    -0.500 OA
BRANCH  19  21
ATOM     21  C   LIG    1       -0.460   0.816   4.916  0.00  0.00    -0.110 A 
ATOM     22  C   LIG    1        0.930   0.772   4.793  0.00  0.00    +0.020 A 
ATOM     23  C   LIG    1        1.504   0.369   3.604  0.00  0.00    +0.050 A 
ATOM     24  C   LIG    1        0.706   0.004   2.535  0.00  0.00    -0.020 A 
ATOM     25  C   LIG    1       -0.677   0.051   2.647  0.00  0.00    +0.100 A 
ATOM     26  C   LIG    1       -1.263   0.453   3.834  0.00  0.00    +0.080 A 
BRANCH  25  27
ATOM     27  O   LIG    1       -1.456  -0.304   1.591  0.00  0.00    -0.320 OA
BRANCH  27  28
ATOM     28  C   LIG    1       -0.784  -0.709   0.396  0.00  0.00    +0.600 C 
ATOM     29  F   LIG    1        0.020   0.339  -0.065  0.00  0.00    -0.200 F 
ATOM     30  F   LIG    1        0.015  -1.826   0.666  0.00  0.00    -0.200 F 
ENDBRANCH  27  28
ENDBRANCH  25  27
ENDBRANCH  19  21
ENDBRANCH   4  17
TORSDOF 5
