REMARK  Name = ZINCrD000000ADzS.0
REMARK                            x       y       z     vdW  Elec       q    Type
REMARK                         _______ _______ _______ _____ _____    ______ ____
ROOT
ATOM      1  O   LIG    1       -1.087   1.906  -0.296  0.00  0.00    -0.500 OA
ATOM      2  C   LIG    1       -0.026   1.334  -0.155  0.00  0.00    +0.500 C 
ATOM      3  N   LIG    1        0.002  -0.004   0.002  0.00  0.00    -0.660 N 
ATOM      4  H   LIG    1        0.852  -0.470   0.036  0.00  0.00    +0.420 HD
ENDROOT
BRANCH   3   5
ATOM      5  C   LIG    1       -1.196  -0.722   0.115  0.00  0.00    +0.150 A 
ATOM      6  C   LIG    1       -1.283  -2.010  -0.392  0.00  0.00    +0.010 A 
ATOM      7  C   LIG    1       -2.464  -2.722  -0.283  0.00  0.00    +0.050 A 
ATOM      8  C   LIG    1       -3.560  -2.145   0.335  0.00  0.00    +0.050 A 
ATOM      9  O   LIG    1       -4.731  -2.839   0.447  0.00  0.00    -0.320 OA
ATOM     10  C   LIG    1       -5.104  -3.224   1.771  0.00  0.00    +0.230 C 
ATOM     11  C   LIG    1       -5.837  -2.093   2.476  0.00  0.00    -0.010 C 
ATOM     12  C   LIG    1       -4.950  -0.878   2.697  0.00  0.00    +0.230 C 
ATOM     13  O   LIG    1       -4.564  -0.298   1.450  0.00  0.00    -0.320 OA
ATOM     14  C   LIG    1       -3.476  -0.856   0.844  0.00  0.00    +0.090 A 
ATOM     15  C   LIG    1       -2.294  -0.144   0.741  0.00  0.00    +0.030 A 
ENDBRANCH   3   5
BRANCH   2  16
ATOM     16  C   LIG    1        1.260   2.119  -0.161  0.00  0.00    +0.360 C 
BRANCH  16  17
ATOM     17  N   LIG    1        0.963   3.542  -0.345  0.00  0.00    -0.480 N 
ATOM     18  C   LIG    1        0.749   4.330   0.741  0.00  0.00    +0.400 A 
ATOM     19  C   LIG    1        0.473   5.646   0.596  0.00  0.00    -0.280 A 
ATOM     20  C   LIG    1        0.406   6.211  -0.686  0.00  0.00    +0.180 A 
ATOM     21  C   LIG    1        0.621   5.419  -1.776  0.00  0.00    -0.150 A 
ATOM     22 CL   LIG    1        0.545   6.089  -3.376  0.00  0.00    -0.010 Cl
ATOM     23  C   LIG    1        0.910   4.055  -1.589  0.00  0.00    +0.530 A 
ATOM     24  O   LIG    1        1.109   3.336  -2.555  0.00  0.00    -0.500 OA
BRANCH  19  25
ATOM     25  C   LIG    1        0.239   6.506   1.812  0.00  0.00    +0.530 C 
ATOM     26  F   LIG    1       -0.203   5.705   2.870  0.00  0.00    -0.180 F 
ATOM     27  F   LIG    1       -0.730   7.472   1.521  0.00  0.00    -0.170 F 
ATOM     28  F   LIG    1        1.434   7.138   2.173  0.00  0.00    -0.170 F 
ENDBRANCH  19  25
ENDBRANCH  16  17
ENDBRANCH   2  16
TORSDOF 4
