REMARK  Name = ZINCqH0000004Vqi.0
REMARK                            x       y       z     vdW  Elec       q    Type
REMARK                         _______ _______ _______ _____ _____    ______ ____
ROOT
ATOM      1  N   LIG    1        2.096   0.753  -0.014  0.00  0.00    -0.380 N 
ATOM      2  N   LIG    1        1.212   1.839   0.000  0.00  0.00    -0.230 NA
ATOM      3  C   LIG    1       -0.017   1.406   0.010  0.00  0.00    +0.300 A 
ATOM      4  C   LIG    1        0.002  -0.004   0.002  0.00  0.00    -0.180 A 
ATOM      5  C   LIG    1       -1.006  -0.996   0.006  0.00  0.00    +0.000 A 
ATOM      6  C   LIG    1       -0.608  -2.329  -0.004  0.00  0.00    +0.020 A 
ATOM      7  C   LIG    1        0.755  -2.635  -0.018  0.00  0.00    +0.240 A 
ATOM      8  N   LIG    1        1.676  -1.685  -0.023  0.00  0.00    -0.470 NA
ATOM      9  C   LIG    1        1.355  -0.401  -0.013  0.00  0.00    +0.320 A 
ENDROOT
BRANCH   7  10
ATOM     10  C   LIG    1        1.179  -4.056  -0.029  0.00  0.00    -0.060 A 
ATOM     11  C   LIG    1        0.224  -5.072  -0.019  0.00  0.00    +0.040 A 
ATOM     12  C   LIG    1        0.625  -6.392  -0.034  0.00  0.00    +0.010 A 
ATOM     13  C   LIG    1        1.971  -6.709  -0.049  0.00  0.00    +0.030 A 
ATOM     14  C   LIG    1        2.924  -5.706  -0.053  0.00  0.00    +0.000 A 
ATOM     15  C   LIG    1        2.535  -4.382  -0.043  0.00  0.00    +0.060 A 
ENDBRANCH   7  10
BRANCH   1  17
ATOM     16  C   LIG    1        4.053   0.874  -1.476  0.00  0.00    +0.030 C 
ATOM     17  C   LIG    1        3.558   0.837  -0.028  0.00  0.00    +0.340 C 
ENDBRANCH   1  17
BRANCH   5  18
ATOM     18  C   LIG    1       -2.437  -0.628   0.022  0.00  0.00    +0.510 C 
ATOM     19  O   LIG    1       -2.763   0.542   0.032  0.00  0.00    -0.490 OA
BRANCH  18  20
ATOM     20  O   LIG    1       -3.380  -1.590   0.026  0.00  0.00    -0.350 OA
BRANCH  20  21
ATOM     21  C   LIG    1       -4.765  -1.155   0.042  0.00  0.00    +0.230 C 
BRANCH  21  22
ATOM     22  C   LIG    1       -5.684  -2.379   0.044  0.00  0.00    +0.040 C 
BRANCH  22  23
ATOM     23  C   LIG    1       -7.144  -1.921   0.061  0.00  0.00    +0.040 C 
BRANCH  23  24
ATOM     24  C   LIG    1       -8.062  -3.144   0.063  0.00  0.00    +0.160 C 
BRANCH  24  25
ATOM     25  O   LIG    1       -9.425  -2.716   0.079  0.00  0.00    -0.390 OA
ATOM     26  C   LIG    1      -10.371  -3.788   0.083  0.00  0.00    +0.200 C 
ENDBRANCH  24  25
ENDBRANCH  23  24
ENDBRANCH  22  23
ENDBRANCH  21  22
ENDBRANCH  20  21
ENDBRANCH  18  20
ENDBRANCH   5  18
TORSDOF 9
