REMARK  Name = ZINCrD0000071zTt.0
REMARK                            x       y       z     vdW  Elec       q    Type
REMARK                         _______ _______ _______ _____ _____    ______ ____
ROOT
ATOM      1  C   LIG    1       -2.280  -2.727  -0.686  0.00  0.00    +0.400 C 
ATOM      2  O   LIG    1       -3.305  -2.082  -0.747  0.00  0.00    -0.430 OA
ENDROOT
BRANCH   1   6
ATOM      3  C   LIG    1       -2.243  -6.769  -1.950  0.00  0.00    +0.190 A 
ATOM      4  C   LIG    1       -3.421  -6.031  -2.020  0.00  0.00    +0.000 A 
ATOM      5  C   LIG    1       -3.438  -4.722  -1.612  0.00  0.00    +0.110 A 
ATOM      6  C   LIG    1       -2.267  -4.128  -1.124  0.00  0.00    -0.190 A 
ATOM      7  C   LIG    1       -1.083  -4.873  -1.061  0.00  0.00    +0.090 A 
ATOM      8  C   LIG    1       -1.077  -6.183  -1.466  0.00  0.00    -0.020 A 
BRANCH   3  10
ATOM      9  C   LIG    1       -3.015  -8.492  -3.389  0.00  0.00    +0.510 C 
ATOM     10  N   LIG    1       -2.231  -8.099  -2.366  0.00  0.00    -0.680 N 
ATOM     11  H   LIG    1       -1.657  -8.741  -1.919  0.00  0.00    +0.420 HD
ATOM     12  O   LIG    1       -3.659  -7.673  -4.009  0.00  0.00    -0.510 OA
BRANCH   9  13
ATOM     13  C   LIG    1       -3.092  -9.950  -3.762  0.00  0.00    +0.060 C 
BRANCH  13  15
ATOM     14  C   LIG    1       -4.124 -11.604  -5.325  0.00  0.00    +0.030 C 
ATOM     15  C   LIG    1       -4.046 -10.124  -4.946  0.00  0.00    +0.030 C 
ENDBRANCH  13  15
ENDBRANCH   9  13
ENDBRANCH   3  10
ENDBRANCH   1   6
BRANCH   1  16
ATOM     16  C   LIG    1       -1.019  -2.090  -0.161  0.00  0.00    +0.170 C 
ATOM     17  C   LIG    1       -0.740  -2.601   1.253  0.00  0.00    +0.070 C 
BRANCH  16  18
ATOM     18  O   LIG    1       -1.182  -0.647  -0.132  0.00  0.00    -0.340 OA
BRANCH  18  19
ATOM     19  C   LIG    1       -0.071   0.098  -0.302  0.00  0.00    +0.540 C 
ATOM     20  O   LIG    1        1.005  -0.444  -0.471  0.00  0.00    -0.490 OA
BRANCH  19  21
ATOM     21  C   LIG    1       -0.160   1.562  -0.284  0.00  0.00    -0.050 A 
ATOM     22  C   LIG    1        0.882   2.427  -0.443  0.00  0.00    +0.130 A 
ATOM     23  C   LIG    1        0.351   3.735  -0.356  0.00  0.00    -0.270 A 
ATOM     24  C   LIG    1       -1.013   3.605  -0.144  0.00  0.00    +0.300 A 
ATOM     25  N   LIG    1       -1.312   2.298  -0.108  0.00  0.00    -0.510 N 
ATOM     26  H   LIG    1       -2.199   1.929   0.024  0.00  0.00    +0.430 HD
BRANCH  23  27
ATOM     27  C   LIG    1        1.100   4.991  -0.468  0.00  0.00    +0.420 C 
ATOM     28  O   LIG    1        2.299   4.967  -0.654  0.00  0.00    -0.470 OA
ATOM     29  C   LIG    1        0.382   6.310  -0.352  0.00  0.00    +0.060 C 
ENDBRANCH  23  27
ENDBRANCH  19  21
ENDBRANCH  18  19
ENDBRANCH  16  18
ENDBRANCH   1  16
TORSDOF 9
