REMARK  Name = ZINCqH0000007bl9.0
REMARK                            x       y       z     vdW  Elec       q    Type
REMARK                         _______ _______ _______ _____ _____    ______ ____
ROOT
ATOM      1  C   LIG    1        0.706  -0.527   1.180  0.00  0.00    +0.210 C 
ENDROOT
BRANCH   1   4
ATOM      2  N   LIG    1        3.009  -0.524   2.084  0.00  0.00    -0.730 N 
ATOM      3  H   LIG    1        2.680  -1.038   2.838  0.00  0.00    +0.400 HD
ATOM      4  C   LIG    1        2.163  -0.149   1.104  0.00  0.00    +0.510 C 
ATOM      5  O   LIG    1        2.574   0.494   0.162  0.00  0.00    -0.520 OA
BRANCH   2   6
ATOM      6  C   LIG    1        4.425  -0.156   2.010  0.00  0.00    +0.320 C 
BRANCH   6  10
ATOM      7  C   LIG    1        6.473  -1.679   5.438  0.00  0.00    +0.140 A 
ATOM      8  C   LIG    1        6.374  -2.449   4.288  0.00  0.00    -0.020 A 
ATOM      9  C   LIG    1        5.711  -1.955   3.182  0.00  0.00    +0.070 A 
ATOM     10  C   LIG    1        5.147  -0.693   3.219  0.00  0.00    -0.150 A 
ATOM     11  C   LIG    1        5.249   0.079   4.361  0.00  0.00    +0.070 A 
ATOM     12  C   LIG    1        5.906  -0.413   5.473  0.00  0.00    -0.080 A 
BRANCH   7  14
ATOM     13  C   LIG    1        7.189  -1.314   7.676  0.00  0.00    +0.250 C 
ATOM     14  O   LIG    1        7.126  -2.163   6.527  0.00  0.00    -0.320 OA
ENDBRANCH   7  14
ENDBRANCH   6  10
ENDBRANCH   2   6
ENDBRANCH   1   4
BRANCH   1  15
ATOM     15  N   LIG    1        0.002  -0.004   0.002  0.00  0.00    -0.520 NA
ATOM     16  C   LIG    1       -0.018   1.465   0.010  0.00  0.00    +0.190 C 
BRANCH  15  17
ATOM     17  C   LIG    1       -1.360  -0.549  -0.083  0.00  0.00    +0.210 C 
BRANCH  17  18
ATOM     18  C   LIG    1       -1.962  -0.191  -1.417  0.00  0.00    -0.080 A 
ATOM     19  C   LIG    1       -2.677   0.984  -1.560  0.00  0.00    +0.010 A 
ATOM     20  C   LIG    1       -3.225   1.314  -2.785  0.00  0.00    +0.010 A 
ATOM     21  C   LIG    1       -3.067   0.465  -3.865  0.00  0.00    -0.070 A 
ATOM     22  C   LIG    1       -2.357  -0.712  -3.720  0.00  0.00    +0.000 A 
ATOM     23  C   LIG    1       -1.804  -1.040  -2.496  0.00  0.00    +0.030 A 
BRANCH  21  24
ATOM     24  C   LIG    1       -3.670   0.822  -5.199  0.00  0.00    -0.030 C 
ATOM     25  C   LIG    1       -2.561   0.929  -6.247  0.00  0.00    +0.040 C 
ATOM     26  C   LIG    1       -4.397   2.164  -5.087  0.00  0.00    +0.040 C 
ATOM     27  C   LIG    1       -4.664  -0.263  -5.616  0.00  0.00    +0.040 C 
ENDBRANCH  21  24
ENDBRANCH  17  18
ENDBRANCH  15  17
ENDBRANCH   1  15
TORSDOF 8
