REMARK  Name = ZINCtV00001bB3a2.0
REMARK                            x       y       z     vdW  Elec       q    Type
REMARK                         _______ _______ _______ _____ _____    ______ ____
ROOT
ATOM      1  C   LIG    1        3.645   6.043  -0.213  0.00  0.00    +0.120 A 
ATOM      2  N   LIG    1        3.750   7.340  -0.311  0.00  0.00    -0.450 NA
ATOM      3  C   LIG    1        4.962   7.834  -0.409  0.00  0.00    +0.080 A 
ATOM      4  C   LIG    1        5.959   6.943  -0.397  0.00  0.00    -0.030 A 
ATOM      5  S   LIG    1        5.258   5.333  -0.239  0.00  0.00    +0.130 S 
ENDROOT
BRANCH   1   7
ATOM      6  C   LIG    1        2.403   3.932   0.001  0.00  0.00    +0.190 C 
ATOM      7  C   LIG    1        2.382   5.293  -0.095  0.00  0.00    -0.020 C 
BRANCH   6  11
ATOM      8  C   LIG    1       -1.224   1.749  -0.088  0.00  0.00    +0.240 A 
ATOM      9  C   LIG    1       -1.123   2.955  -0.776  0.00  0.00    -0.070 A 
ATOM     10  C   LIG    1        0.048   3.667  -0.749  0.00  0.00    +0.090 A 
ATOM     11  C   LIG    1        1.147   3.175  -0.031  0.00  0.00    -0.160 A 
ATOM     12  C   LIG    1        1.043   1.957   0.655  0.00  0.00    +0.100 A 
ATOM     13  C   LIG    1       -0.133   1.253   0.622  0.00  0.00    -0.080 A 
BRANCH   8  15
ATOM     14  C   LIG    1       -3.565   1.550  -0.863  0.00  0.00    +0.290 C 
ATOM     15  N   LIG    1       -2.418   1.033  -0.113  0.00  0.00    -0.630 N 
ATOM     16  C   LIG    1       -2.526  -0.236   0.610  0.00  0.00    +0.280 C 
ENDBRANCH   8  15
ENDBRANCH   6  11
BRANCH   7  17
ATOM     17  C   LIG    1        1.132   5.992  -0.080  0.00  0.00    +0.270 C 
ATOM     18  N   LIG    1        0.141   6.547  -0.068  0.00  0.00    -0.410 NA
ENDBRANCH   7  17
ENDBRANCH   1   7
BRANCH   3  19
ATOM     19  C   LIG    1        5.215   9.315  -0.526  0.00  0.00    +0.210 C 
BRANCH  19  20
ATOM     20  S   LIG    1        5.404  10.028   1.127  0.00  0.00    +0.030 S 
BRANCH  20  21
ATOM     21  C   LIG    1        5.680  11.716   0.702  0.00  0.00    +0.080 A 
ATOM     22  N   LIG    1        5.719  12.175  -0.503  0.00  0.00    -0.470 NA
ATOM     23  C   LIG    1        5.936  13.495  -0.667  0.00  0.00    +0.090 A 
ATOM     24  C   LIG    1        6.018  14.234  -1.866  0.00  0.00    +0.070 A 
ATOM     25  C   LIG    1        6.255  15.586  -1.835  0.00  0.00    +0.040 A 
ATOM     26  C   LIG    1        6.417  16.246  -0.626  0.00  0.00    +0.040 A 
ATOM     27  C   LIG    1        6.341  15.545   0.557  0.00  0.00    +0.060 A 
ATOM     28  C   LIG    1        6.101  14.174   0.545  0.00  0.00    -0.170 A 
ATOM     29  S   LIG    1        5.951  13.011   1.860  0.00  0.00    +0.110 S 
ENDBRANCH  20  21
ENDBRANCH  19  20
ENDBRANCH   3  19
TORSDOF 7
