REMARK  Name = ZINCwl0000000qW1.0
REMARK                            x       y       z     vdW  Elec       q    Type
REMARK                         _______ _______ _______ _____ _____    ______ ____
ROOT
ATOM      1  C   LIG    1        2.841  -0.254  -1.244  0.00  0.00    +0.620 C 
ATOM      2  N   LIG    1        3.641  -1.323  -1.064  0.00  0.00    -0.710 N 
ATOM      3  H   LIG    1        3.262  -2.216  -1.057  0.00  0.00    +0.410 HD
ATOM      4  O   LIG    1        3.315   0.866  -1.253  0.00  0.00    -0.510 OA
ENDROOT
BRANCH   2   5
ATOM      5  C   LIG    1        5.082  -1.137  -0.877  0.00  0.00    +0.260 C 
ATOM      6  C   LIG    1        5.685  -2.328  -0.096  0.00  0.00    +0.090 C 
ATOM      7  C   LIG    1        7.058  -2.486  -0.777  0.00  0.00    +0.230 C 
ATOM      8  C   LIG    1        7.462  -3.950  -0.837  0.00  0.00    +0.260 C 
ATOM      9  N   LIG    1        8.447  -4.206  -1.887  0.00  0.00    -0.370 N 
ATOM     10  C   LIG    1        8.015  -3.780  -3.215  0.00  0.00    +0.260 C 
ATOM     11  C   LIG    1        7.814  -2.257  -3.236  0.00  0.00    +0.340 C 
ATOM     12  H   LIG    1        8.643  -5.196  -1.911  0.00  0.00    +0.430 HD
ATOM     13  N   LIG    1        6.891  -1.938  -2.131  0.00  0.00    -0.640 N 
ATOM     14  C   LIG    1        5.796  -1.166  -2.211  0.00  0.00    +0.510 C 
ATOM     15  O   LIG    1        5.433  -0.578  -3.207  0.00  0.00    -0.480 OA
BRANCH   9  16
ATOM     16  C   LIG    1        9.681  -3.490  -1.539  0.00  0.00    +0.150 C 
ATOM     17  C   LIG    1       10.729  -3.720  -2.630  0.00  0.00    +0.080 C 
ATOM     18  C   LIG    1       10.214  -4.010  -0.202  0.00  0.00    +0.090 C 
ENDBRANCH   9  16
ENDBRANCH   2   5
BRANCH   1  21
ATOM     19  C   LIG    1        0.754   2.034  -1.682  0.00  0.00    +0.200 C 
ATOM     20  C   LIG    1        0.474   0.554  -1.623  0.00  0.00    +0.140 A 
ATOM     21  C   LIG    1        1.390  -0.441  -1.432  0.00  0.00    -0.110 A 
ATOM     22  N   LIG    1        0.745  -1.621  -1.444  0.00  0.00    -0.200 NA
ATOM     23  N   LIG    1       -0.513  -1.423  -1.630  0.00  0.00    -0.050 NA
ATOM     24  N   LIG    1       -0.731  -0.043  -1.750  0.00  0.00    -0.310 N 
BRANCH  24  25
ATOM     25  C   LIG    1       -1.961   0.594  -1.966  0.00  0.00    +0.120 A 
ATOM     26  C   LIG    1       -2.903  -0.006  -2.755  0.00  0.00    +0.090 A 
ATOM     27  C   LIG    1       -4.136   0.631  -2.966  0.00  0.00    -0.100 A 
ATOM     28  C   LIG    1       -5.134   0.045  -3.768  0.00  0.00    +0.100 A 
ATOM     29  C   LIG    1       -6.308   0.724  -3.935  0.00  0.00    -0.020 A 
ATOM     30  C   LIG    1       -6.489   1.960  -3.319  0.00  0.00    +0.320 A 
ATOM     31  N   LIG    1       -5.557   2.503  -2.573  0.00  0.00    -0.470 NA
ATOM     32  C   LIG    1       -4.387   1.891  -2.369  0.00  0.00    +0.130 A 
ATOM     33  C   LIG    1       -3.392   2.480  -1.567  0.00  0.00    +0.090 A 
ATOM     34  C   LIG    1       -2.209   1.838  -1.376  0.00  0.00    +0.030 A 
ENDBRANCH  24  25
ENDBRANCH   1  21
TORSDOF 4
