REMARK  Name = ZINCwl0000000qW1.1
REMARK                            x       y       z     vdW  Elec       q    Type
REMARK                         _______ _______ _______ _____ _____    ______ ____
ROOT
ATOM      1  C   LIG    1        5.076   2.078   4.301  0.00  0.00    +0.620 C 
ATOM      2  N   LIG    1        3.897   1.667   3.795  0.00  0.00    -0.710 N 
ATOM      3  H   LIG    1        3.127   1.568   4.376  0.00  0.00    +0.410 HD
ATOM      4  O   LIG    1        6.041   2.202   3.572  0.00  0.00    -0.510 OA
ENDROOT
BRANCH   2   5
ATOM      5  C   LIG    1        3.777   1.369   2.365  0.00  0.00    +0.270 C 
ATOM      6  C   LIG    1        2.625   0.368   2.115  0.00  0.00    +0.090 C 
ATOM      7  C   LIG    1        2.054   0.878   0.779  0.00  0.00    +0.240 C 
ATOM      8  C   LIG    1        0.528   0.746   0.772  0.00  0.00    +0.270 C 
ATOM      9  N   LIG    1        0.007   1.470  -0.396  0.00  0.00    -0.380 N 
ATOM     10  C   LIG    1        0.209   2.910  -0.251  0.00  0.00    +0.250 C 
ATOM     11  C   LIG    1        1.689   3.268  -0.156  0.00  0.00    +0.330 C 
ATOM     12  H   LIG    1        0.485   1.150  -1.225  0.00  0.00    +0.420 HD
ATOM     13  N   LIG    1        2.384   2.313   0.715  0.00  0.00    -0.640 N 
ATOM     14  C   LIG    1        3.367   2.607   1.599  0.00  0.00    +0.510 C 
ATOM     15  O   LIG    1        3.856   3.707   1.747  0.00  0.00    -0.470 OA
BRANCH   9  16
ATOM     16  C   LIG    1       -1.430   1.196  -0.532  0.00  0.00    +0.160 C 
ATOM     17  C   LIG    1       -1.649  -0.311  -0.684  0.00  0.00    +0.080 C 
ATOM     18  C   LIG    1       -1.972   1.918  -1.767  0.00  0.00    +0.080 C 
ENDBRANCH   9  16
ENDBRANCH   2   5
BRANCH   1  21
ATOM     19  C   LIG    1        7.678   3.034   5.747  0.00  0.00    +0.190 C 
ATOM     20  C   LIG    1        6.330   2.796   6.377  0.00  0.00    +0.140 A 
ATOM     21  C   LIG    1        5.196   2.378   5.740  0.00  0.00    -0.110 A 
ATOM     22  N   LIG    1        4.209   2.281   6.648  0.00  0.00    -0.200 NA
ATOM     23  N   LIG    1        4.655   2.616   7.808  0.00  0.00    -0.050 NA
ATOM     24  N   LIG    1        6.009   2.957   7.680  0.00  0.00    -0.310 N 
BRANCH  24  25
ATOM     25  C   LIG    1        6.867   3.377   8.706  0.00  0.00    +0.120 A 
ATOM     26  C   LIG    1        6.816   2.760   9.925  0.00  0.00    +0.090 A 
ATOM     27  C   LIG    1        7.678   3.179  10.950  0.00  0.00    -0.100 A 
ATOM     28  C   LIG    1        7.661   2.566  12.217  0.00  0.00    +0.100 A 
ATOM     29  C   LIG    1        8.525   3.029  13.168  0.00  0.00    -0.020 A 
ATOM     30  C   LIG    1        9.390   4.079  12.870  0.00  0.00    +0.320 A 
ATOM     31  N   LIG    1        9.404   4.647  11.689  0.00  0.00    -0.470 NA
ATOM     32  C   LIG    1        8.585   4.242  10.713  0.00  0.00    +0.140 A 
ATOM     33  C   LIG    1        8.606   4.857   9.448  0.00  0.00    +0.090 A 
ATOM     34  C   LIG    1        7.762   4.427   8.473  0.00  0.00    +0.040 A 
ENDBRANCH  24  25
ENDBRANCH   1  21
TORSDOF 4
