REMARK  Name = ZINCvU0000000J8h.0
REMARK                            x       y       z     vdW  Elec       q    Type
REMARK                         _______ _______ _______ _____ _____    ______ ____
ROOT
ATOM      1  C   LIG    1        1.156   2.094  -0.006  0.00  0.00    +0.080 A 
ATOM      2  C   LIG    1       -0.037   1.395  -0.133  0.00  0.00    +0.040 A 
ATOM      3  C   LIG    1       -0.035   0.012  -0.150  0.00  0.00    +0.030 A 
ATOM      4  C   LIG    1        1.152  -0.682  -0.039  0.00  0.00    +0.050 A 
ATOM      5  C   LIG    1        2.356   0.012   0.089  0.00  0.00    -0.120 A 
ATOM      6  C   LIG    1        2.353   1.407   0.106  0.00  0.00    +0.100 A 
ENDROOT
BRANCH   5   7
ATOM      7  C   LIG    1        3.630  -0.729   0.209  0.00  0.00    +0.560 C 
ATOM      8  N   LIG    1        3.630  -2.077   0.193  0.00  0.00    -0.720 N 
ATOM      9  H   LIG    1        2.794  -2.561   0.104  0.00  0.00    +0.400 HD
ATOM     10  O   LIG    1        4.678  -0.123   0.321  0.00  0.00    -0.530 OA
BRANCH   8  11
ATOM     11  C   LIG    1        4.892  -2.811   0.311  0.00  0.00    +0.320 C 
BRANCH  11  12
ATOM     12  C   LIG    1        4.618  -4.292   0.267  0.00  0.00    -0.110 A 
ATOM     13  C   LIG    1        4.379  -4.986   1.438  0.00  0.00    +0.020 A 
ATOM     14  C   LIG    1        4.122  -6.344   1.396  0.00  0.00    +0.010 A 
ATOM     15  C   LIG    1        4.115  -7.009   0.185  0.00  0.00    +0.010 A 
ATOM     16  C   LIG    1        4.361  -6.316  -0.986  0.00  0.00    +0.010 A 
ATOM     17  C   LIG    1        4.612  -4.957  -0.945  0.00  0.00    +0.020 A 
ENDBRANCH  11  12
ENDBRANCH   8  11
ENDBRANCH   5   7
BRANCH   1  18
ATOM     18  O   LIG    1        1.149   3.453   0.010  0.00  0.00    -0.230 OA
BRANCH  18  30
ATOM     19  C   LIG    1        1.455   9.636  -2.730  0.00  0.00    +0.030 C 
ATOM     20  C   LIG    1        0.967   8.468  -1.870  0.00  0.00    -0.010 C 
ATOM     21  C   LIG    1        2.003   7.340  -1.898  0.00  0.00    +0.020 C 
ATOM     22  C   LIG    1        1.400   6.091  -1.254  0.00  0.00    +0.100 C 
ATOM     23  C   LIG    1        0.813   6.470   0.100  0.00  0.00    -0.060 A 
ATOM     24  C   LIG    1        0.543   7.726   0.458  0.00  0.00    -0.180 A 
ATOM     25  S   LIG    1       -0.124   7.800   2.080  0.00  0.00    +0.180 S 
ATOM     26  C   LIG    1       -0.034   6.059   2.280  0.00  0.00    +0.110 A 
ATOM     27  N   LIG    1       -0.375   5.269   3.306  0.00  0.00    -0.500 NA
ATOM     28  C   LIG    1       -0.218   3.967   3.236  0.00  0.00    +0.560 A 
ATOM     29  N   LIG    1        0.274   3.374   2.163  0.00  0.00    -0.570 NA
ATOM     30  C   LIG    1        0.642   4.074   1.102  0.00  0.00    +0.410 A 
ATOM     31  C   LIG    1        0.493   5.483   1.125  0.00  0.00    -0.180 A 
ATOM     32  C   LIG    1        0.784   8.938  -0.425  0.00  0.00    +0.130 C 
ENDBRANCH  18  30
ENDBRANCH   1  18
TORSDOF 5
