REMARK  Name = ZINCrD00000hQ7q3.0
REMARK                            x       y       z     vdW  Elec       q    Type
REMARK                         _______ _______ _______ _____ _____    ______ ____
ROOT
ATOM      1  C   LIG    1        4.032   2.040   4.948  0.00  0.00    +0.510 C 
ATOM      2  O   LIG    1        3.373   2.427   5.893  0.00  0.00    -0.480 OA
ENDROOT
BRANCH   1   5
ATOM      3  C   LIG    1        7.513   2.261   6.343  0.00  0.00    +0.140 A 
ATOM      4  C   LIG    1        6.136   2.334   6.244  0.00  0.00    -0.020 A 
ATOM      5  C   LIG    1        5.501   1.963   5.056  0.00  0.00    -0.050 A 
ATOM      6  C   LIG    1        6.260   1.513   3.972  0.00  0.00    -0.030 A 
ATOM      7  C   LIG    1        7.637   1.447   4.074  0.00  0.00    +0.140 A 
ATOM      8  C   LIG    1        8.267   1.818   5.259  0.00  0.00    +0.070 A 
BRANCH   3  10
ATOM      9  C   LIG    1        7.297   3.068   8.569  0.00  0.00    +0.250 C 
ATOM     10  O   LIG    1        8.132   2.623   7.498  0.00  0.00    -0.300 OA
ENDBRANCH   3  10
BRANCH   7  11
ATOM     11  O   LIG    1        8.377   1.013   3.018  0.00  0.00    -0.300 OA
ATOM     12  C   LIG    1        7.665   0.649   1.834  0.00  0.00    +0.250 C 
ENDBRANCH   7  11
BRANCH   8  13
ATOM     13  O   LIG    1        9.620   1.746   5.359  0.00  0.00    -0.310 OA
ATOM     14  C   LIG    1       10.172   0.515   5.831  0.00  0.00    +0.240 C 
ENDBRANCH   8  13
ENDBRANCH   1   5
BRANCH   1  15
ATOM     15  O   LIG    1        3.421   1.681   3.802  0.00  0.00    -0.280 OA
BRANCH  15  16
ATOM     16  C   LIG    1        2.080   1.889   3.726  0.00  0.00    +0.060 A 
ATOM     17  C   LIG    1        1.210   0.803   3.708  0.00  0.00    +0.090 A 
ATOM     18  C   LIG    1       -0.153   0.997   3.632  0.00  0.00    +0.050 A 
ATOM     19  C   LIG    1       -0.670   2.284   3.572  0.00  0.00    +0.150 A 
ATOM     20  O   LIG    1       -2.003   2.488   3.497  0.00  0.00    -0.270 OA
ATOM     21  C   LIG    1       -2.521   3.724   3.438  0.00  0.00    +0.510 A 
ATOM     22  C   LIG    1       -1.702   4.874   3.459  0.00  0.00    -0.080 A 
ATOM     23  C   LIG    1       -0.353   4.739   3.527  0.00  0.00    +0.030 A 
ATOM     24  C   LIG    1        0.546   5.948   3.543  0.00  0.00    +0.130 C 
ATOM     25  O   LIG    1       -3.730   3.859   3.371  0.00  0.00    -0.460 OA
ATOM     26  C   LIG    1        0.205   3.384   3.590  0.00  0.00    -0.140 A 
ATOM     27  C   LIG    1        1.586   3.178   3.667  0.00  0.00    +0.090 A 
ENDBRANCH  15  16
ENDBRANCH   1  15
TORSDOF 6
