REMARK  Name = ZINCpe00000R9udi.0
REMARK                            x       y       z     vdW  Elec       q    Type
REMARK                         _______ _______ _______ _____ _____    ______ ____
ROOT
ATOM      1  C   LIG    1       -0.398   1.616   0.521  0.00  0.00    +0.180 C 
ATOM      2  C   LIG    1       -1.326   1.757   1.730  0.00  0.00    +0.020 C 
ENDROOT
BRANCH   1   5
ATOM      3  C   LIG    1        2.803   2.183   2.423  0.00  0.00    +0.270 C 
ATOM      4  C   LIG    1        1.399   1.640   2.145  0.00  0.00    +0.200 C 
ATOM      5  N   LIG    1        0.925   2.159   0.854  0.00  0.00    -0.510 NA
ATOM      6  C   LIG    1        0.905   3.629   0.859  0.00  0.00    +0.150 C 
ATOM      7  C   LIG    1        2.314   4.152   1.150  0.00  0.00    +0.240 C 
ATOM      8  O   LIG    1        2.771   3.612   2.393  0.00  0.00    -0.370 OA
BRANCH   3  13
ATOM      9  C   LIG    1        5.477   0.127   6.184  0.00  0.00    +0.200 C 
ATOM     10  C   LIG    1        4.410   0.837   5.392  0.00  0.00    +0.190 A 
ATOM     11  N   LIG    1        3.315   1.364   5.868  0.00  0.00    -0.290 NA
ATOM     12  N   LIG    1        2.637   1.892   4.912  0.00  0.00    -0.260 NA
ATOM     13  C   LIG    1        3.264   1.718   3.780  0.00  0.00    +0.180 A 
ATOM     14  N   LIG    1        4.409   1.046   4.053  0.00  0.00    -0.570 N 
ATOM     15  H   LIG    1        5.090   0.772   3.419  0.00  0.00    +0.430 HD
ENDBRANCH   3  13
ENDBRANCH   1   5
BRANCH   1  16
ATOM     16  C   LIG    1       -0.267   0.160   0.157  0.00  0.00    +0.520 C 
ATOM     17  N   LIG    1       -1.313  -0.498  -0.381  0.00  0.00    -0.650 N 
ATOM     18  H   LIG    1       -2.126  -0.017  -0.604  0.00  0.00    +0.400 HD
ATOM     19  O   LIG    1        0.781  -0.421   0.348  0.00  0.00    -0.500 OA
BRANCH  17  20
ATOM     20  C   LIG    1       -1.227  -1.882  -0.621  0.00  0.00    -0.010 A 
ATOM     21  C   LIG    1       -2.169  -2.808  -0.307  0.00  0.00    +0.070 A 
ATOM     22  N   LIG    1       -1.700  -4.020  -0.703  0.00  0.00    -0.370 N 
ATOM     23  N   LIG    1       -0.436  -3.826  -1.275  0.00  0.00    -0.290 NA
ATOM     24  C   LIG    1       -2.394  -5.302  -0.557  0.00  0.00    +0.360 C 
ATOM     25  C   LIG    1       -3.493  -2.540   0.361  0.00  0.00    +0.140 C 
ATOM     26  C   LIG    1       -0.155  -2.549  -1.232  0.00  0.00    +0.100 A 
ATOM     27  C   LIG    1        1.106  -1.906  -1.747  0.00  0.00    +0.150 C 
ENDBRANCH  17  20
ENDBRANCH   1  16
TORSDOF 4
