REMARK  Name = ZINCpe00000R9udi.1
REMARK                            x       y       z     vdW  Elec       q    Type
REMARK                         _______ _______ _______ _____ _____    ______ ____
ROOT
ATOM      1  C   LIG    1       -0.485   1.465   0.678  0.00  0.00    +0.180 C 
ATOM      2  C   LIG    1        0.073   1.319  -0.739  0.00  0.00    +0.030 C 
ENDROOT
BRANCH   1   5
ATOM      3  C   LIG    1        2.804   0.966   2.444  0.00  0.00    +0.290 C 
ATOM      4  C   LIG    1        1.833   1.484   1.380  0.00  0.00    +0.190 C 
ATOM      5  N   LIG    1        0.491   0.945   1.645  0.00  0.00    -0.510 NA
ATOM      6  C   LIG    1        0.509  -0.525   1.639  0.00  0.00    +0.150 C 
ATOM      7  C   LIG    1        1.494  -1.023   2.700  0.00  0.00    +0.250 C 
ATOM      8  O   LIG    1        2.785  -0.465   2.444  0.00  0.00    -0.370 OA
BRANCH   3  12
ATOM      9  C   LIG    1        7.058   3.595   2.705  0.00  0.00    +0.190 C 
ATOM     10  C   LIG    1        6.028   2.591   2.256  0.00  0.00    +0.290 A 
ATOM     11  N   LIG    1        4.840   2.423   2.778  0.00  0.00    -0.530 NA
ATOM     12  C   LIG    1        4.197   1.450   2.133  0.00  0.00    +0.240 A 
ATOM     13  N   LIG    1        4.972   0.980   1.191  0.00  0.00    -0.290 NA
ATOM     14  N   LIG    1        6.169   1.713   1.248  0.00  0.00    -0.480 N 
ATOM     15  H   LIG    1        6.945   1.604   0.676  0.00  0.00    +0.440 HD
ENDBRANCH   3  12
ENDBRANCH   1   5
BRANCH   1  16
ATOM     16  C   LIG    1       -0.753   2.920   0.966  0.00  0.00    +0.520 C 
ATOM     17  N   LIG    1       -1.764   3.555   0.342  0.00  0.00    -0.650 N 
ATOM     18  H   LIG    1       -2.366   3.059  -0.234  0.00  0.00    +0.400 HD
ATOM     19  O   LIG    1       -0.058   3.518   1.760  0.00  0.00    -0.500 OA
BRANCH  17  20
ATOM     20  C   LIG    1       -1.947   4.939   0.527  0.00  0.00    -0.010 A 
ATOM     21  C   LIG    1       -2.179   5.852  -0.450  0.00  0.00    +0.070 A 
ATOM     22  N   LIG    1       -2.295   7.068   0.145  0.00  0.00    -0.370 N 
ATOM     23  N   LIG    1       -2.130   6.889   1.525  0.00  0.00    -0.290 NA
ATOM     24  C   LIG    1       -2.549   8.340  -0.535  0.00  0.00    +0.360 C 
ATOM     25  C   LIG    1       -2.286   5.569  -1.926  0.00  0.00    +0.140 C 
ATOM     26  C   LIG    1       -1.927   5.617   1.755  0.00  0.00    +0.100 A 
ATOM     27  C   LIG    1       -1.707   4.989   3.107  0.00  0.00    +0.160 C 
ENDBRANCH  17  20
ENDBRANCH   1  16
TORSDOF 4
