REMARK  Name = ZINCrH000004nQFC.0
REMARK                            x       y       z     vdW  Elec       q    Type
REMARK                         _______ _______ _______ _____ _____    ______ ____
ROOT
ATOM      1  C   LIG    1        0.127   1.170   2.324  0.00  0.00    +0.260 C 
ENDROOT
BRANCH   1   2
ATOM      2  C   LIG    1       -0.633   1.434   3.598  0.00  0.00    +0.500 C 
ATOM      3  N   LIG    1       -1.883   0.954   3.749  0.00  0.00    -0.720 N 
ATOM      4  H   LIG    1       -2.293   0.437   3.038  0.00  0.00    +0.400 HD
ATOM      5  O   LIG    1       -0.120   2.080   4.487  0.00  0.00    -0.510 OA
BRANCH   3   6
ATOM      6  C   LIG    1       -2.622   1.211   4.988  0.00  0.00    +0.330 C 
BRANCH   6   7
ATOM      7  C   LIG    1       -3.983   0.570   4.903  0.00  0.00    -0.100 A 
ATOM      8  C   LIG    1       -4.245  -0.591   5.606  0.00  0.00    +0.050 A 
ATOM      9  C   LIG    1       -5.494  -1.179   5.528  0.00  0.00    +0.010 A 
ATOM     10  C   LIG    1       -6.481  -0.607   4.747  0.00  0.00    +0.030 A 
ATOM     11  C   LIG    1       -6.219   0.554   4.044  0.00  0.00    +0.030 A 
ATOM     12  C   LIG    1       -4.972   1.146   4.127  0.00  0.00    -0.020 A 
ATOM     13 CL   LIG    1       -4.646   2.609   3.250  0.00  0.00    -0.060 Cl
ENDBRANCH   6   7
ENDBRANCH   3   6
ENDBRANCH   1   2
BRANCH   1  14
ATOM     14  N   LIG    1        1.450   1.793   2.406  0.00  0.00    -1.090 NA
ATOM     15  H   LIG    1        1.561   2.729   2.176  0.00  0.00    +0.430 HD
BRANCH  14  16
ATOM     16  S   LIG    1        2.757   0.900   2.892  0.00  0.00    +2.690 S 
ATOM     17  O   LIG    1        2.372   0.245   4.093  0.00  0.00    -0.940 OA
ATOM     18  O   LIG    1        3.886   1.759   2.804  0.00  0.00    -0.950 OA
BRANCH  16  19
ATOM     19  C   LIG    1        3.000  -0.366   1.691  0.00  0.00    -0.680 A 
ATOM     20  C   LIG    1        2.315  -1.562   1.800  0.00  0.00    +0.140 A 
ATOM     21  C   LIG    1        2.501  -2.554   0.855  0.00  0.00    +0.020 A 
ATOM     22  C   LIG    1        3.382  -2.353  -0.193  0.00  0.00    +0.020 A 
ATOM     23  C   LIG    1        4.071  -1.159  -0.298  0.00  0.00    +0.020 A 
ATOM     24 CL   LIG    1        3.622  -3.602  -1.376  0.00  0.00    -0.050 Cl
ATOM     25  C   LIG    1        3.880  -0.166   0.644  0.00  0.00    +0.150 A 
ENDBRANCH  16  19
ENDBRANCH  14  16
ENDBRANCH   1  14
BRANCH   1  26
ATOM     26  C   LIG    1       -0.641   1.760   1.140  0.00  0.00    +0.070 C 
BRANCH  26  27
ATOM     27  C   LIG    1        0.057   1.373  -0.165  0.00  0.00    +0.090 C 
BRANCH  27  29
ATOM     28  C   LIG    1        0.269   1.735  -2.974  0.00  0.00    +0.140 C 
ATOM     29  S   LIG    1       -0.775   2.182  -1.560  0.00  0.00    -0.250 S 
ENDBRANCH  27  29
ENDBRANCH  26  27
ENDBRANCH   1  26
TORSDOF 9
