REMARK  Name = ZINCvU0000000BHJ.0
REMARK                            x       y       z     vdW  Elec       q    Type
REMARK                         _______ _______ _______ _____ _____    ______ ____
ROOT
ATOM      1  C   LIG    1        0.724   5.582  -0.596  0.00  0.00    +0.160 A 
ATOM      2  N   LIG    1        0.748   5.494   0.714  0.00  0.00    -0.290 NA
ATOM      3  N   LIG    1        0.929   4.271   1.066  0.00  0.00    -0.250 NA
ATOM      4  C   LIG    1        1.030   3.512   0.011  0.00  0.00    +0.180 A 
ATOM      5  N   LIG    1        0.908   4.321  -1.085  0.00  0.00    -0.450 N 
ENDROOT
BRANCH   1   6
ATOM      6  S   LIG    1        0.501   7.051  -1.542  0.00  0.00    +0.070 S 
BRANCH   6   7
ATOM      7  C   LIG    1        0.336   8.263  -0.208  0.00  0.00    +0.110 C 
BRANCH   7   9
ATOM      8  O   LIG    1        0.100   9.779  -2.002  0.00  0.00    -0.430 OA
ATOM      9  C   LIG    1        0.131   9.635  -0.798  0.00  0.00    +0.420 C 
BRANCH   9  10
ATOM     10  C   LIG    1       -0.031  10.798   0.086  0.00  0.00    -0.180 A 
ATOM     11  C   LIG    1       -0.001  10.634   1.476  0.00  0.00    +0.110 A 
ATOM     12  C   LIG    1       -0.150  11.729   2.298  0.00  0.00    -0.020 A 
ATOM     13  C   LIG    1       -0.338  12.991   1.752  0.00  0.00    +0.140 A 
ATOM     14  C   LIG    1       -0.373  13.159   0.376  0.00  0.00    -0.020 A 
ATOM     15  F   LIG    1       -0.488  14.060   2.565  0.00  0.00    -0.130 F 
ATOM     16  C   LIG    1       -0.221  12.073  -0.458  0.00  0.00    +0.120 A 
ENDBRANCH   9  10
ENDBRANCH   7   9
ENDBRANCH   6   7
ENDBRANCH   1   6
BRANCH   4  17
ATOM     17  C   LIG    1        1.248   2.021   0.001  0.00  0.00    +0.340 C 
BRANCH  17  18
ATOM     18  O   LIG    1       -0.016   1.355   0.009  0.00  0.00    -0.300 OA
BRANCH  18  19
ATOM     19  C   LIG    1        0.002  -0.004   0.002  0.00  0.00    +0.140 A 
ATOM     20  C   LIG    1        1.212  -0.682  -0.019  0.00  0.00    -0.060 A 
ATOM     21  C   LIG    1        1.229  -2.063  -0.022  0.00  0.00    +0.070 A 
ATOM     22  C   LIG    1        0.040  -2.771  -0.014  0.00  0.00    -0.070 A 
ATOM     23  C   LIG    1       -1.168  -2.096   0.002  0.00  0.00    +0.070 A 
ATOM     24 CL   LIG    1        0.063  -4.506  -0.024  0.00  0.00    -0.070 Cl
ATOM     25  C   LIG    1       -1.189  -0.715   0.010  0.00  0.00    +0.010 A 
ENDBRANCH  18  19
ENDBRANCH  17  18
ENDBRANCH   4  17
BRANCH   5  26
ATOM     26  C   LIG    1        0.961   3.917  -2.492  0.00  0.00    +0.440 C 
BRANCH  26  27
ATOM     27  C   LIG    1       -0.427   3.574  -2.969  0.00  0.00    -0.060 A 
ATOM     28  C   LIG    1       -1.303   4.432  -3.521  0.00  0.00    -0.010 A 
ATOM     29  C   LIG    1       -2.471   3.691  -3.817  0.00  0.00    -0.070 A 
ATOM     30  C   LIG    1       -2.238   2.425  -3.428  0.00  0.00    +0.200 A 
ATOM     31  O   LIG    1       -0.996   2.359  -2.920  0.00  0.00    -0.160 OA
ENDBRANCH  26  27
ENDBRANCH   5  26
TORSDOF 9
