REMARK  Name = ZINCpe00000gMUwL.0
REMARK                            x       y       z     vdW  Elec       q    Type
REMARK                         _______ _______ _______ _____ _____    ______ ____
ROOT
ATOM      1  C   LIG    1       -0.014   1.209   0.009  0.00  0.00    +0.520 C 
ATOM      2  N   LIG    1        1.143   1.898   0.001  0.00  0.00    -0.720 N 
ATOM      3  H   LIG    1        1.130   2.868   0.007  0.00  0.00    +0.410 HD
ATOM      4  O   LIG    1        0.002  -0.004   0.002  0.00  0.00    -0.510 OA
ENDROOT
BRANCH   1   5
ATOM      5  C   LIG    1       -1.330   1.944   0.019  0.00  0.00    +0.270 C 
BRANCH   5   6
ATOM      6  O   LIG    1       -2.420   0.986   0.019  0.00  0.00    -0.310 OA
BRANCH   6   7
ATOM      7  C   LIG    1       -3.672   1.484   0.028  0.00  0.00    +0.530 C 
ATOM      8  O   LIG    1       -3.847   2.685   0.035  0.00  0.00    -0.490 OA
BRANCH   7  13
ATOM      9  C   LIG    1       -8.151  -1.986   0.031  0.00  0.00    +0.160 C 
ATOM     10  C   LIG    1       -6.969  -1.051   0.029  0.00  0.00    +0.120 A 
ATOM     11  C   LIG    1       -5.680  -1.565   0.021  0.00  0.00    +0.230 A 
ATOM     12  N   LIG    1       -4.644  -0.751   0.015  0.00  0.00    -0.380 NA
ATOM     13  C   LIG    1       -4.833   0.566   0.028  0.00  0.00    +0.030 A 
ATOM     14  C   LIG    1       -6.130   1.079   0.037  0.00  0.00    +0.320 A 
ATOM     15  N   LIG    1       -7.163   0.256   0.037  0.00  0.00    -0.440 NA
ENDBRANCH   7  13
ENDBRANCH   6   7
ENDBRANCH   5   6
ENDBRANCH   1   5
BRANCH   2  16
ATOM     16  C   LIG    1        2.422   1.183  -0.015  0.00  0.00    +0.320 C 
BRANCH  16  17
ATOM     17  C   LIG    1        3.571   2.193  -0.020  0.00  0.00    +0.140 C 
ATOM     18  C   LIG    1        4.913   1.450  -0.052  0.00  0.00    +0.240 C 
ATOM     19  O   LIG    1        5.964   2.422  -0.070  0.00  0.00    -0.300 OA
ATOM     20  C   LIG    1        5.823   3.459  -0.941  0.00  0.00    +0.050 A 
ATOM     21  C   LIG    1        6.930   4.225  -1.272  0.00  0.00    +0.030 A 
ATOM     22  C   LIG    1        6.802   5.283  -2.152  0.00  0.00    +0.020 A 
ATOM     23  C   LIG    1        5.570   5.582  -2.703  0.00  0.00    +0.020 A 
ATOM     24  C   LIG    1        4.463   4.821  -2.379  0.00  0.00    +0.030 A 
ATOM     25  C   LIG    1        4.585   3.757  -1.497  0.00  0.00    +0.050 A 
ATOM     26  O   LIG    1        3.486   3.015  -1.189  0.00  0.00    -0.300 OA
ENDBRANCH  16  17
ENDBRANCH   2  16
TORSDOF 6
