REMARK  Name = ZINCqH0000050F6R.0
REMARK                            x       y       z     vdW  Elec       q    Type
REMARK                         _______ _______ _______ _____ _____    ______ ____
ROOT
ATOM      1  C   LIG    1        6.100   3.020  -0.385  0.00  0.00    +0.080 A 
ATOM      2  C   LIG    1        5.943   1.880  -1.160  0.00  0.00    +0.040 A 
ATOM      3  C   LIG    1        4.706   1.274  -1.256  0.00  0.00    +0.040 A 
ATOM      4  C   LIG    1        3.618   1.807  -0.577  0.00  0.00    +0.150 A 
ATOM      5  C   LIG    1        3.774   2.951   0.194  0.00  0.00    +0.010 A 
ATOM      6  C   LIG    1        5.013   3.553   0.294  0.00  0.00    +0.050 A 
ENDROOT
BRANCH   4   7
ATOM      7  N   LIG    1        2.363   1.193  -0.674  0.00  0.00    -0.670 N 
ATOM      8  H   LIG    1        1.558   1.734  -0.675  0.00  0.00    +0.410 HD
ATOM      9  C   LIG    1        2.274  -0.149  -0.766  0.00  0.00    +0.550 C 
ATOM     10  O   LIG    1        3.282  -0.819  -0.848  0.00  0.00    -0.510 OA
BRANCH   9  11
ATOM     11  C   LIG    1        0.923  -0.816  -0.766  0.00  0.00    -0.050 C 
ATOM     12  C   LIG    1        0.551  -1.658   0.456  0.00  0.00    +0.080 C 
ATOM     13  C   LIG    1        0.889  -2.342  -0.870  0.00  0.00    +0.050 C 
BRANCH  13  14
ATOM     14  C   LIG    1       -0.247  -2.962  -1.644  0.00  0.00    -0.010 A 
ATOM     15  C   LIG    1       -1.562  -2.762  -1.254  0.00  0.00    -0.030 A 
ATOM     16  C   LIG    1       -2.578  -3.343  -1.990  0.00  0.00    +0.260 A 
ATOM     17  N   LIG    1       -2.306  -4.086  -3.045  0.00  0.00    -0.490 NA
ATOM     18  C   LIG    1       -1.067  -4.301  -3.442  0.00  0.00    +0.260 A 
ATOM     19  C   LIG    1       -0.000  -3.749  -2.758  0.00  0.00    -0.020 A 
ENDBRANCH  13  14
ENDBRANCH   9  11
ENDBRANCH   4   7
BRANCH   1  20
ATOM     20  O   LIG    1        7.319   3.615  -0.290  0.00  0.00    -0.230 OA
BRANCH  20  26
ATOM     21  C   LIG    1       10.646   6.485  -2.134  0.00  0.00    +0.160 C 
ATOM     22  C   LIG    1        9.351   5.724  -2.260  0.00  0.00    +0.210 A 
ATOM     23  C   LIG    1        8.625   5.765  -3.440  0.00  0.00    -0.120 A 
ATOM     24  C   LIG    1        7.440   5.050  -3.513  0.00  0.00    +0.360 A 
ATOM     25  N   LIG    1        7.043   4.351  -2.462  0.00  0.00    -0.560 NA
ATOM     26  C   LIG    1        7.758   4.338  -1.349  0.00  0.00    +0.500 A 
ATOM     27  N   LIG    1        8.893   5.009  -1.246  0.00  0.00    -0.520 NA
ENDBRANCH  20  26
ENDBRANCH   1  20
TORSDOF 5
