REMARK  Name = ZINCkj000005gFSU.0
REMARK                            x       y       z     vdW  Elec       q    Type
REMARK                         _______ _______ _______ _____ _____    ______ ____
ROOT
ATOM      1  C   LIG    1       -0.718   1.572   1.248  0.00  0.00    +0.500 C 
ATOM      2  N   LIG    1       -0.515   0.950   2.426  0.00  0.00    -0.580 N 
ATOM      3  C   LIG    1        0.386  -0.207   2.516  0.00  0.00    +0.270 C 
ATOM      4  C   LIG    1        1.422   0.065   3.617  0.00  0.00    +0.040 C 
ATOM      5  C   LIG    1        0.696   0.400   4.922  0.00  0.00    +0.050 C 
ATOM      6  C   LIG    1       -0.146   1.663   4.730  0.00  0.00    +0.080 C 
ATOM      7  C   LIG    1       -1.196   1.412   3.643  0.00  0.00    +0.320 C 
ATOM      8  O   LIG    1       -1.468   2.523   1.185  0.00  0.00    -0.520 OA
ENDROOT
BRANCH   6   9
ATOM      9  C   LIG    1       -0.835   2.010   6.025  0.00  0.00    +0.160 A 
ATOM     10  N   LIG    1       -1.682   1.260   6.676  0.00  0.00    -0.280 NA
ATOM     11  N   LIG    1       -2.069   1.869   7.740  0.00  0.00    -0.290 NA
ATOM     12  C   LIG    1       -1.494   3.038   7.812  0.00  0.00    +0.380 A 
ATOM     13  N   LIG    1       -0.694   3.161   6.726  0.00  0.00    -0.460 N 
BRANCH  13  14
ATOM     14  C   LIG    1        0.151   4.306   6.379  0.00  0.00    +0.230 C 
ATOM     15  C   LIG    1        1.173   4.542   7.493  0.00  0.00    +0.060 C 
ATOM     16  C   LIG    1       -0.721   5.553   6.214  0.00  0.00    +0.050 C 
ENDBRANCH  13  14
ENDBRANCH   6   9
BRANCH   1  17
ATOM     17  C   LIG    1       -0.013   1.086   0.008  0.00  0.00    +0.180 C 
BRANCH  17  18
ATOM     18  N   LIG    1       -0.723   1.572  -1.182  0.00  0.00    -0.620 N 
ATOM     19  H   LIG    1       -0.737   2.581  -1.177  0.00  0.00    +0.440 HD
ATOM     20  H   LIG    1       -1.670   1.223  -1.175  0.00  0.00    +0.440 HD
ATOM     21  H   LIG    1       -0.251   1.247  -2.012  0.00  0.00    +0.440 HD
ENDBRANCH  17  18
BRANCH  17  23
ATOM     22  C   LIG    1        2.176   1.022  -1.195  0.00  0.00    +0.060 C 
ATOM     23  C   LIG    1        1.423   1.615  -0.003  0.00  0.00    +0.070 C 
ENDBRANCH  17  23
ENDBRANCH   1  17
TORSDOF 5
