REMARK  Name = ZINCnE000001CF27.1
REMARK                            x       y       z     vdW  Elec       q    Type
REMARK                         _______ _______ _______ _____ _____    ______ ____
ROOT
ATOM      1  C   LIG    1        2.386   1.261  -0.107  0.00  0.00    +0.080 A 
ATOM      2  C   LIG    1        2.453  -0.125  -0.215  0.00  0.00    +0.000 A 
ATOM      3  C   LIG    1        3.655  -0.757  -0.321  0.00  0.00    +0.020 A 
ATOM      4  C   LIG    1        4.857  -0.019  -0.323  0.00  0.00    +0.150 A 
ATOM      5  N   LIG    1        6.124  -0.472  -0.418  0.00  0.00    -0.560 NA
ATOM      6  C   LIG    1        7.077   0.394  -0.399  0.00  0.00    +0.400 A 
ATOM      7  S   LIG    1        6.424   2.019  -0.244  0.00  0.00    -0.030 S 
ATOM      8  C   LIG    1        4.785   1.373  -0.213  0.00  0.00    -0.210 A 
ATOM      9  C   LIG    1        3.551   2.009  -0.112  0.00  0.00    +0.090 A 
ENDROOT
BRANCH   1  12
ATOM     10  C   LIG    1       -0.284   3.771   0.759  0.00  0.00    +0.090 C 
ATOM     11  C   LIG    1        1.024   3.024   0.734  0.00  0.00    +0.500 C 
ATOM     12  N   LIG    1        1.143   1.898   0.001  0.00  0.00    -0.660 N 
ATOM     13  H   LIG    1        0.369   1.530  -0.451  0.00  0.00    +0.410 HD
ATOM     14  O   LIG    1        1.968   3.432   1.376  0.00  0.00    -0.530 OA
ENDBRANCH   1  12
BRANCH   6  15
ATOM     15  N   LIG    1        8.425   0.088  -0.486  0.00  0.00    -0.690 NA
ATOM     16  C   LIG    1        8.819  -1.195  -0.603  0.00  0.00    +0.460 C 
ATOM     17  O   LIG    1        7.993  -2.083  -0.631  0.00  0.00    -0.570 OA
BRANCH  16  18
ATOM     18  C   LIG    1       10.286  -1.528  -0.699  0.00  0.00    +0.050 C 
BRANCH  18  19
ATOM     19  C   LIG    1       10.458  -3.043  -0.823  0.00  0.00    +0.150 C 
BRANCH  19  20
ATOM     20  C   LIG    1       11.925  -3.376  -0.918  0.00  0.00    +0.010 A 
ATOM     21  C   LIG    1       12.744  -3.627   0.119  0.00  0.00    -0.070 A 
ATOM     22  C   LIG    1       14.022  -3.892  -0.423  0.00  0.00    -0.070 A 
ATOM     23  C   LIG    1       13.910  -3.779  -1.759  0.00  0.00    +0.140 A 
ATOM     24  O   LIG    1       12.637  -3.466  -2.053  0.00  0.00    -0.180 OA
ENDBRANCH  19  20
ENDBRANCH  18  19
ENDBRANCH  16  18
ENDBRANCH   6  15
TORSDOF 5
