REMARK  Name = ZINCpe00000zhuHm.0
REMARK                            x       y       z     vdW  Elec       q    Type
REMARK                         _______ _______ _______ _____ _____    ______ ____
ROOT
ATOM      1  C   LIG    1        5.739   0.983  -1.761  0.00  0.00    +0.360 C 
ATOM      2  N   LIG    1        5.029  -0.215  -2.216  0.00  0.00    -0.350 N 
ATOM      3  N   LIG    1        4.945  -0.664  -3.538  0.00  0.00    -0.290 NA
ATOM      4  C   LIG    1        4.235  -1.758  -3.569  0.00  0.00    +0.270 A 
ATOM      5  C   LIG    1        3.836  -2.057  -2.247  0.00  0.00    -0.290 A 
ATOM      6  C   LIG    1        4.347  -1.067  -1.433  0.00  0.00    +0.160 A 
ENDROOT
BRANCH   5   7
ATOM      7  C   LIG    1        3.023  -3.210  -1.819  0.00  0.00    +0.600 C 
ATOM      8  N   LIG    1        1.839  -3.458  -2.413  0.00  0.00    -0.610 N 
ATOM      9  C   LIG    1        1.399  -2.640  -3.550  0.00  0.00    +0.280 C 
ATOM     10  C   LIG    1        1.115  -3.558  -4.750  0.00  0.00    +0.330 C 
ATOM     11  N   LIG    1        0.318  -4.691  -4.256  0.00  0.00    -0.630 N 
ATOM     12  C   LIG    1       -0.851  -5.139  -4.716  0.00  0.00    +0.700 C 
ATOM     13  N   LIG    1       -1.421  -6.064  -3.929  0.00  0.00    -0.740 N 
ATOM     14  H   LIG    1       -2.293  -6.464  -4.073  0.00  0.00    +0.430 HD
ATOM     15  C   LIG    1       -0.513  -6.375  -2.813  0.00  0.00    +0.280 C 
ATOM     16  O   LIG    1       -1.353  -4.746  -5.752  0.00  0.00    -0.580 OA
ATOM     17  C   LIG    1        0.727  -5.511  -3.096  0.00  0.00    +0.200 C 
ATOM     18  C   LIG    1        0.986  -4.555  -1.931  0.00  0.00    +0.300 C 
ATOM     19  O   LIG    1        3.420  -3.936  -0.928  0.00  0.00    -0.530 OA
ENDBRANCH   5   7
BRANCH   6  20
ATOM     20  C   LIG    1        4.177  -0.964   0.061  0.00  0.00    +0.170 C 
BRANCH  20  21
ATOM     21  C   LIG    1        2.942  -0.159   0.372  0.00  0.00    -0.080 A 
ATOM     22  C   LIG    1        1.721  -0.793   0.509  0.00  0.00    +0.020 A 
ATOM     23  C   LIG    1        0.587  -0.055   0.795  0.00  0.00    +0.010 A 
ATOM     24  C   LIG    1        0.675   1.317   0.943  0.00  0.00    +0.000 A 
ATOM     25  C   LIG    1        1.896   1.950   0.806  0.00  0.00    +0.000 A 
ATOM     26  C   LIG    1        3.029   1.212   0.520  0.00  0.00    +0.000 A 
ENDBRANCH  20  21
ENDBRANCH   6  20
TORSDOF 3
