REMARK  Name = ZINCqH0000004Hiw.0
REMARK                            x       y       z     vdW  Elec       q    Type
REMARK                         _______ _______ _______ _____ _____    ______ ____
ROOT
ATOM      1  N   LIG    1       -0.017   1.380   0.010  0.00  0.00    -0.620 N 
ATOM      2  H   LIG    1       -0.863   1.854   0.016  0.00  0.00    +0.430 HD
ATOM      3  C   LIG    1        1.141   2.070   0.002  0.00  0.00    +0.610 C 
ATOM      4  O   LIG    1        2.202   1.476  -0.011  0.00  0.00    -0.460 OA
ENDROOT
BRANCH   1  10
ATOM      5  C   LIG    1        0.251  -4.775  -0.028  0.00  0.00    -0.070 A 
ATOM      6  C   LIG    1        1.583  -4.389  -0.039  0.00  0.00    +0.040 A 
ATOM      7  C   LIG    1        1.926  -3.060  -0.035  0.00  0.00    +0.080 A 
ATOM      8  C   LIG    1        0.926  -2.065  -0.019  0.00  0.00    +0.100 A 
ATOM      9  N   LIG    1        1.069  -0.725  -0.018  0.00  0.00    -0.470 NA
ATOM     10  C   LIG    1        0.002  -0.004   0.002  0.00  0.00    +0.340 A 
ATOM     11  S   LIG    1       -1.428  -1.027   0.010  0.00  0.00    +0.070 S 
ATOM     12  C   LIG    1       -0.413  -2.468  -0.008  0.00  0.00    -0.170 A 
ATOM     13  C   LIG    1       -0.742  -3.821  -0.013  0.00  0.00    +0.060 A 
BRANCH   5  15
ATOM     14  C   LIG    1       -0.246  -6.725  -1.477  0.00  0.00    +0.030 C 
ATOM     15  C   LIG    1       -0.109  -6.238  -0.033  0.00  0.00    +0.070 C 
ENDBRANCH   5  15
ENDBRANCH   1  10
BRANCH   3  16
ATOM     16  C   LIG    1        1.121   3.544   0.010  0.00  0.00    -0.110 A 
ATOM     17  C   LIG    1        2.219   4.358   0.010  0.00  0.00    +0.320 A 
ATOM     18  N   LIG    1        1.764   5.627   0.017  0.00  0.00    -0.350 N 
ATOM     19  N   LIG    1        0.364   5.556   0.029  0.00  0.00    -0.040 NA
ATOM     20  N   LIG    1        0.020   4.315   0.025  0.00  0.00    -0.210 NA
BRANCH  18  21
ATOM     21  C   LIG    1        2.577   6.846   0.015  0.00  0.00    +0.390 C 
BRANCH  21  22
ATOM     22  C   LIG    1        2.166   7.723  -1.140  0.00  0.00    -0.120 A 
ATOM     23  C   LIG    1        2.790   7.588  -2.366  0.00  0.00    +0.020 A 
ATOM     24  C   LIG    1        2.410   8.389  -3.427  0.00  0.00    +0.010 A 
ATOM     25  C   LIG    1        1.412   9.331  -3.259  0.00  0.00    +0.030 A 
ATOM     26  C   LIG    1        0.791   9.469  -2.031  0.00  0.00    +0.010 A 
ATOM     27  C   LIG    1        1.168   8.665  -0.972  0.00  0.00    +0.050 A 
ENDBRANCH  21  22
ENDBRANCH  18  21
ENDBRANCH   3  16
TORSDOF 5
