REMARK  Name = ZINCrH000008uzl1.0
REMARK                            x       y       z     vdW  Elec       q    Type
REMARK                         _______ _______ _______ _____ _____    ______ ____
ROOT
ATOM      1  C   LIG    1        0.016   1.152   0.132  0.00  0.00    +0.350 C 
ENDROOT
BRANCH   1   2
ATOM      2  C   LIG    1       -0.736   1.613   1.354  0.00  0.00    -0.260 A 
ATOM      3  C   LIG    1       -0.520   2.762   2.035  0.00  0.00    +0.120 A 
ATOM      4  N   LIG    1       -1.400   2.805   3.061  0.00  0.00    -0.320 N 
ATOM      5  N   LIG    1       -2.176   1.639   3.011  0.00  0.00    -0.280 NA
ATOM      6  C   LIG    1        0.514   3.809   1.707  0.00  0.00    +0.150 C 
ATOM      7  C   LIG    1       -1.777   0.926   1.988  0.00  0.00    +0.100 A 
ATOM      8  C   LIG    1       -2.342  -0.406   1.566  0.00  0.00    +0.160 C 
BRANCH   4   9
ATOM      9  C   LIG    1       -1.514   3.831   4.009  0.00  0.00    +0.140 A 
ATOM     10  C   LIG    1       -0.387   4.282   4.683  0.00  0.00    +0.010 A 
ATOM     11  C   LIG    1       -0.502   5.294   5.617  0.00  0.00    +0.020 A 
ATOM     12  C   LIG    1       -1.737   5.857   5.880  0.00  0.00    +0.020 A 
ATOM     13  C   LIG    1       -2.861   5.409   5.210  0.00  0.00    +0.020 A 
ATOM     14  C   LIG    1       -2.752   4.402   4.271  0.00  0.00    -0.070 A 
ATOM     15  C   LIG    1       -3.976   3.919   3.537  0.00  0.00    +0.110 C 
ENDBRANCH   4   9
ENDBRANCH   1   2
BRANCH   1  17
ATOM     16  C   LIG    1       -0.159   1.356  -2.289  0.00  0.00    +0.520 C 
ATOM     17  N   LIG    1       -0.657   1.647  -1.071  0.00  0.00    -0.730 N 
ATOM     18  H   LIG    1       -1.461   2.184  -0.991  0.00  0.00    +0.400 HD
ATOM     19  O   LIG    1        0.846   0.684  -2.389  0.00  0.00    -0.540 OA
BRANCH  16  20
ATOM     20  C   LIG    1       -0.852   1.865  -3.527  0.00  0.00    +0.040 C 
BRANCH  20  21
ATOM     21  C   LIG    1       -0.088   1.396  -4.768  0.00  0.00    +0.130 C 
BRANCH  21  22
ATOM     22  C   LIG    1       -0.791   1.913  -6.025  0.00  0.00    +0.040 C 
ATOM     23  N   LIG    1       -1.547   3.166  -5.941  0.00  0.00    -0.120 NA
ATOM     24  N   LIG    1       -2.239   2.135  -5.977  0.00  0.00    -0.120 NA
BRANCH  22  25
ATOM     25  C   LIG    1       -0.152   1.532  -7.361  0.00  0.00    +0.120 C 
BRANCH  25  26
ATOM     26  C   LIG    1       -0.975   2.125  -8.507  0.00  0.00    +0.160 C 
BRANCH  26  28
ATOM     27  C   LIG    1        0.130   1.465 -10.819  0.00  0.00    +0.030 C 
ATOM     28  C   LIG    1       -0.360   1.758  -9.793  0.00  0.00    -0.190 C 
ENDBRANCH  26  28
ENDBRANCH  25  26
ENDBRANCH  22  25
ENDBRANCH  21  22
ENDBRANCH  20  21
ENDBRANCH  16  20
ENDBRANCH   1  17
TORSDOF 9
