REMARK  Name = ZINCpe000000UbKu.0
REMARK                            x       y       z     vdW  Elec       q    Type
REMARK                         _______ _______ _______ _____ _____    ______ ____
ROOT
ATOM      1  C   LIG    1       -1.293  -0.775   0.010  0.00  0.00    +0.170 C 
ATOM      2  N   LIG    1       -2.360   0.011   0.654  0.00  0.00    -0.710 N 
ATOM      3  H   LIG    1       -2.374   0.326   1.572  0.00  0.00    +0.440 HD
ATOM      4  C   LIG    1       -3.309   0.206  -0.283  0.00  0.00    +0.710 C 
ATOM      5  N   LIG    1       -2.995  -0.358  -1.455  0.00  0.00    -0.560 N 
ATOM      6  O   LIG    1       -4.337   0.823  -0.084  0.00  0.00    -0.530 OA
ATOM      7  C   LIG    1       -1.801  -0.980  -1.403  0.00  0.00    +0.540 C 
ATOM      8  O   LIG    1       -1.248  -1.579  -2.300  0.00  0.00    -0.450 OA
ENDROOT
BRANCH   1   9
ATOM      9  C   LIG    1        0.002  -0.004   0.002  0.00  0.00    -0.110 A 
ATOM     10  C   LIG    1       -0.017   1.378   0.010  0.00  0.00    +0.060 A 
ATOM     11  C   LIG    1        1.170   2.086   0.002  0.00  0.00    -0.010 A 
ATOM     12  C   LIG    1        2.379   1.410  -0.013  0.00  0.00    +0.110 A 
ATOM     13  C   LIG    1        2.396   0.026  -0.020  0.00  0.00    -0.010 A 
ATOM     14  F   LIG    1        3.540   2.101  -0.019  0.00  0.00    -0.130 F 
ATOM     15  C   LIG    1        1.208  -0.680  -0.013  0.00  0.00    +0.080 A 
ENDBRANCH   1   9
BRANCH   1  17
ATOM     16  C   LIG    1       -2.440  -2.880   0.712  0.00  0.00    +0.030 C 
ATOM     17  C   LIG    1       -1.113  -2.119   0.718  0.00  0.00    +0.060 C 
ENDBRANCH   1  17
BRANCH   5  18
ATOM     18  C   LIG    1       -3.845  -0.306  -2.647  0.00  0.00    +0.360 C 
BRANCH  18  19
ATOM     19  C   LIG    1       -4.779  -1.488  -2.650  0.00  0.00    +0.510 C 
ATOM     20  N   LIG    1       -5.659  -1.650  -3.658  0.00  0.00    -0.610 N 
ATOM     21  C   LIG    1       -5.730  -0.681  -4.764  0.00  0.00    +0.250 C 
ATOM     22  C   LIG    1       -5.667  -1.459  -6.088  0.00  0.00    +0.220 C 
ATOM     23  O   LIG    1       -6.663  -2.484  -6.077  0.00  0.00    -0.380 OA
ATOM     24  C   LIG    1       -6.480  -3.468  -5.057  0.00  0.00    +0.220 C 
ATOM     25  C   LIG    1       -6.581  -2.796  -3.683  0.00  0.00    +0.260 C 
ATOM     26  O   LIG    1       -4.739  -2.295  -1.746  0.00  0.00    -0.520 OA
ENDBRANCH  18  19
ENDBRANCH   5  18
TORSDOF 4
