REMARK  Name = ZINCpe00000MJKTz.0
REMARK                            x       y       z     vdW  Elec       q    Type
REMARK                         _______ _______ _______ _____ _____    ______ ____
ROOT
ATOM      1  C   LIG    1       -4.008  -0.161   0.527  0.00  0.00    +0.300 C 
ENDROOT
BRANCH   1   3
ATOM      2  C   LIG    1       -5.400  -2.185   0.068  0.00  0.00    +0.200 C 
ATOM      3  C   LIG    1       -3.976  -1.673   0.295  0.00  0.00    +0.170 C 
ATOM      4  O   LIG    1       -3.180  -1.962  -0.857  0.00  0.00    -0.370 OA
ATOM      5  C   LIG    1       -3.115  -3.355  -1.176  0.00  0.00    +0.230 C 
ATOM      6  C   LIG    1       -4.531  -3.885  -1.419  0.00  0.00    +0.170 C 
ATOM      7  N   LIG    1       -5.356  -3.624  -0.230  0.00  0.00    -0.540 NA
ATOM      8  C   LIG    1       -6.710  -4.169  -0.399  0.00  0.00    +0.210 C 
BRANCH   2  14
ATOM      9  C   LIG    1       -4.826  -3.293   2.906  0.00  0.00    +0.350 C 
ATOM     10  N   LIG    1       -5.961  -2.443   2.540  0.00  0.00    -0.350 N 
ATOM     11  N   LIG    1       -6.965  -1.991   3.406  0.00  0.00    -0.290 NA
ATOM     12  C   LIG    1       -7.804  -1.263   2.715  0.00  0.00    +0.240 A 
ATOM     13  C   LIG    1       -7.359  -1.223   1.389  0.00  0.00    -0.110 A 
ATOM     14  C   LIG    1       -6.223  -1.954   1.310  0.00  0.00    +0.090 A 
ENDBRANCH   2  14
ENDBRANCH   1   3
BRANCH   1  15
ATOM     15  N   LIG    1       -2.644   0.330   0.742  0.00  0.00    -0.720 N 
ATOM     16  H   LIG    1       -1.898  -0.289   0.722  0.00  0.00    +0.400 HD
ATOM     17  C   LIG    1       -2.427   1.640   0.968  0.00  0.00    +0.590 C 
ATOM     18  O   LIG    1       -3.363   2.417   0.993  0.00  0.00    -0.510 OA
BRANCH  17  19
ATOM     19  C   LIG    1       -1.057   2.133   1.184  0.00  0.00    -0.040 A 
ATOM     20  C   LIG    1       -0.673   3.439   1.430  0.00  0.00    +0.030 A 
ATOM     21  C   LIG    1        0.717   3.399   1.559  0.00  0.00    +0.060 A 
ATOM     22  N   LIG    1        1.098   2.156   1.403  0.00  0.00    -0.260 NA
ATOM     23  N   LIG    1        0.090   1.391   1.186  0.00  0.00    -0.380 N 
ATOM     24  H   LIG    1        0.136   0.433   1.041  0.00  0.00    +0.440 HD
BRANCH  21  25
ATOM     25  C   LIG    1        1.618   4.576   1.829  0.00  0.00    +0.040 C 
ATOM     26  C   LIG    1        1.041   5.974   1.601  0.00  0.00    +0.030 C 
ATOM     27  C   LIG    1        2.075   5.406   0.627  0.00  0.00    +0.030 C 
ENDBRANCH  21  25
ENDBRANCH  17  19
ENDBRANCH   1  15
TORSDOF 5
