REMARK  Name = ZINCvU0000000FYt.0
REMARK                            x       y       z     vdW  Elec       q    Type
REMARK                         _______ _______ _______ _____ _____    ______ ____
ROOT
ATOM      1  N   LIG    1        5.958   5.439  -1.763  0.00  0.00    -0.730 N 
ATOM      2  H   LIG    1        5.742   6.285  -1.339  0.00  0.00    +0.400 HD
ATOM      3  C   LIG    1        5.014   4.486  -1.889  0.00  0.00    +0.520 C 
ATOM      4  O   LIG    1        5.285   3.430  -2.419  0.00  0.00    -0.500 OA
ENDROOT
BRANCH   1   5
ATOM      5  C   LIG    1        7.313   5.199  -2.267  0.00  0.00    +0.350 C 
BRANCH   5   6
ATOM      6  C   LIG    1        8.290   6.064  -1.513  0.00  0.00    +0.280 A 
ATOM      7  N   LIG    1        9.561   6.154  -1.775  0.00  0.00    -0.470 NA
ATOM      8  C   LIG    1       10.145   7.021  -0.909  0.00  0.00    +0.050 A 
ATOM      9  C   LIG    1       11.454   7.482  -0.742  0.00  0.00    +0.070 A 
ATOM     10  C   LIG    1       11.739   8.374   0.253  0.00  0.00    +0.000 A 
ATOM     11  C   LIG    1       10.742   8.830   1.103  0.00  0.00    +0.030 A 
ATOM     12  C   LIG    1        9.444   8.388   0.957  0.00  0.00    +0.010 A 
ATOM     13  C   LIG    1        9.135   7.482  -0.048  0.00  0.00    +0.050 A 
ATOM     14  N   LIG    1        7.973   6.858  -0.456  0.00  0.00    -0.600 N 
ATOM     15  H   LIG    1        7.093   6.966  -0.061  0.00  0.00    +0.420 HD
ENDBRANCH   5   6
BRANCH   5  17
ATOM     16  C   LIG    1        7.130   7.043  -3.943  0.00  0.00    +0.020 C 
ATOM     17  C   LIG    1        7.371   5.544  -3.757  0.00  0.00    -0.010 C 
ATOM     18  C   LIG    1        8.749   5.176  -4.312  0.00  0.00    +0.050 C 
ENDBRANCH   5  17
ENDBRANCH   1   5
BRANCH   3  19
ATOM     19  C   LIG    1        3.621   4.733  -1.370  0.00  0.00    +0.230 C 
BRANCH  19  20
ATOM     20  O   LIG    1        2.809   3.584  -1.618  0.00  0.00    -0.290 OA
BRANCH  20  21
ATOM     21  C   LIG    1        1.514   3.643  -1.209  0.00  0.00    +0.090 A 
ATOM     22  C   LIG    1        0.670   2.561  -1.419  0.00  0.00    +0.030 A 
ATOM     23  C   LIG    1       -0.647   2.622  -1.009  0.00  0.00    +0.010 A 
ATOM     24  C   LIG    1       -1.124   3.762  -0.375  0.00  0.00    +0.150 A 
ATOM     25  C   LIG    1       -0.280   4.844  -0.166  0.00  0.00    +0.010 A 
ATOM     26  C   LIG    1        1.036   4.784  -0.582  0.00  0.00    -0.050 A 
BRANCH  24  27
ATOM     27  N   LIG    1       -2.457   3.822   0.046  0.00  0.00    -0.690 N 
ATOM     28  H   LIG    1       -3.139   3.321  -0.428  0.00  0.00    +0.410 HD
BRANCH  27  29
ATOM     29  C   LIG    1       -2.806   4.604   1.151  0.00  0.00    +0.180 A 
ATOM     30  C   LIG    1       -1.902   4.783   2.190  0.00  0.00    -0.050 A 
ATOM     31  C   LIG    1       -2.248   5.560   3.278  0.00  0.00    +0.030 A 
ATOM     32  C   LIG    1       -3.497   6.151   3.338  0.00  0.00    -0.030 A 
ATOM     33  C   LIG    1       -4.401   5.971   2.308  0.00  0.00    +0.030 A 
ATOM     34  C   LIG    1       -4.060   5.199   1.214  0.00  0.00    -0.050 A 
ENDBRANCH  27  29
ENDBRANCH  24  27
ENDBRANCH  20  21
ENDBRANCH  19  20
ENDBRANCH   3  19
TORSDOF 8
