REMARK  Name = ZINCvU000000044P.0
REMARK                            x       y       z     vdW  Elec       q    Type
REMARK                         _______ _______ _______ _____ _____    ______ ____
ROOT
ATOM      1  C   LIG    1        0.673  12.953   0.862  0.00  0.00    +0.150 C 
ATOM      2  C   LIG    1        1.494  11.694   0.750  0.00  0.00    +0.020 A 
ATOM      3  C   LIG    1        1.003  10.462   0.541  0.00  0.00    +0.000 A 
ATOM      4  C   LIG    1        2.159   9.555   0.502  0.00  0.00    -0.200 A 
ATOM      5  C   LIG    1        3.274  10.353   0.703  0.00  0.00    +0.110 A 
ATOM      6  C   LIG    1        4.704   9.879   0.752  0.00  0.00    +0.160 C 
ATOM      7  N   LIG    1        2.856  11.626   0.843  0.00  0.00    -0.390 N 
ENDROOT
BRANCH   7   8
ATOM      8  C   LIG    1        3.699  12.725   1.059  0.00  0.00    +0.110 A 
ATOM      9  C   LIG    1        4.606  13.109   0.080  0.00  0.00    +0.090 A 
ATOM     10  C   LIG    1        5.432  14.195   0.293  0.00  0.00    +0.070 A 
ATOM     11  C   LIG    1        5.364  14.894   1.485  0.00  0.00    +0.020 A 
ATOM     12  C   LIG    1        4.465  14.511   2.464  0.00  0.00    -0.170 A 
ATOM     13 CL   LIG    1        6.408  16.255   1.752  0.00  0.00    -0.020 Cl
ATOM     14  C   LIG    1        3.633  13.429   2.254  0.00  0.00    +0.110 A 
BRANCH  12  15
ATOM     15  C   LIG    1        4.392  15.275   3.761  0.00  0.00    +0.510 C 
ATOM     16  F   LIG    1        4.059  16.608   3.499  0.00  0.00    -0.170 F 
ATOM     17  F   LIG    1        5.634  15.222   4.404  0.00  0.00    -0.160 F 
ATOM     18  F   LIG    1        3.416  14.704   4.585  0.00  0.00    -0.170 F 
ENDBRANCH  12  15
ENDBRANCH   7   8
BRANCH   4  19
ATOM     19  C   LIG    1        2.137   8.151   0.306  0.00  0.00    +0.290 C 
ATOM     20  C   LIG    1        0.957   7.450   0.461  0.00  0.00    -0.170 C 
BRANCH  20  21
ATOM     21  C   LIG    1        0.937   5.994   0.268  0.00  0.00    +0.570 C 
ATOM     22  N   LIG    1       -0.214   5.310   0.420  0.00  0.00    -0.660 N 
ATOM     23  H   LIG    1       -1.045   5.786   0.572  0.00  0.00    +0.420 HD
ATOM     24  O   LIG    1        1.960   5.405  -0.028  0.00  0.00    -0.470 OA
BRANCH  22  25
ATOM     25  C   LIG    1       -0.211   3.918   0.357  0.00  0.00    +0.360 A 
ATOM     26  C   LIG    1       -1.377   3.213   0.636  0.00  0.00    -0.070 A 
ATOM     27  C   LIG    1       -1.360   1.831   0.571  0.00  0.00    +0.090 A 
ATOM     28  C   LIG    1       -0.173   1.199   0.227  0.00  0.00    -0.060 A 
ATOM     29  C   LIG    1        0.949   1.962  -0.032  0.00  0.00    +0.290 A 
ATOM     30  N   LIG    1        0.902   3.278   0.033  0.00  0.00    -0.480 NA
ENDBRANCH  22  25
ENDBRANCH  20  21
BRANCH  20  31
ATOM     31  C   LIG    1       -0.246   8.143   0.810  0.00  0.00    +0.260 C 
ATOM     32  N   LIG    1       -1.201   8.692   1.086  0.00  0.00    -0.420 NA
ENDBRANCH  20  31
ENDBRANCH   4  19
TORSDOF 6
