REMARK  Name = ZINCpk00000y6wwC.0
REMARK                            x       y       z     vdW  Elec       q    Type
REMARK                         _______ _______ _______ _____ _____    ______ ____
ROOT
ATOM      1  S   LIG    1        1.409  -0.774   3.681  0.00  0.00    +2.700 S 
ATOM      2  O   LIG    1        2.624  -0.121   3.342  0.00  0.00    -0.950 OA
ATOM      3  O   LIG    1        1.253  -2.186   3.658  0.00  0.00    -0.960 OA
ENDROOT
BRANCH   1   7
ATOM      4  C   LIG    1        0.368   0.560   7.881  0.00  0.00    +0.190 A 
ATOM      5  C   LIG    1       -0.132  -0.637   7.389  0.00  0.00    -0.030 A 
ATOM      6  C   LIG    1        0.188  -1.042   6.107  0.00  0.00    +0.170 A 
ATOM      7  C   LIG    1        1.004  -0.255   5.315  0.00  0.00    -0.720 A 
ATOM      8  C   LIG    1        1.507   0.936   5.806  0.00  0.00    +0.160 A 
ATOM      9  C   LIG    1        1.186   1.348   7.085  0.00  0.00    -0.090 A 
BRANCH   4  10
ATOM     10  O   LIG    1        0.055   0.961   9.142  0.00  0.00    -0.300 OA
BRANCH  10  11
ATOM     11  C   LIG    1        0.605   2.204   9.582  0.00  0.00    +0.220 C 
BRANCH  11  12
ATOM     12  C   LIG    1        0.145   2.486  11.014  0.00  0.00    +0.200 C 
BRANCH  12  14
ATOM     13  C   LIG    1        0.321   1.671  13.262  0.00  0.00    +0.200 C 
ATOM     14  O   LIG    1        0.691   1.499  11.892  0.00  0.00    -0.390 OA
ENDBRANCH  12  14
ENDBRANCH  11  12
ENDBRANCH  10  11
ENDBRANCH   4  10
ENDBRANCH   1   7
BRANCH   1  15
ATOM     15  N   LIG    1        0.250  -0.159   2.670  0.00  0.00    -1.120 NA
ATOM     16  H   LIG    1       -0.345  -0.759   2.193  0.00  0.00    +0.420 HD
BRANCH  15  17
ATOM     17  C   LIG    1        0.123   1.290   2.497  0.00  0.00    +0.290 C 
BRANCH  17  18
ATOM     18  C   LIG    1       -0.736   1.583   1.265  0.00  0.00    -0.020 C 
ATOM     19  C   LIG    1       -0.975   3.092   1.153  0.00  0.00    +0.050 C 
ATOM     20  C   LIG    1       -2.021   3.361   0.063  0.00  0.00    +0.160 C 
ATOM     21  C   LIG    1       -1.626   2.586  -1.172  0.00  0.00    +0.200 A 
ATOM     22  N   LIG    1       -2.066   2.754  -2.385  0.00  0.00    -0.490 NA
ATOM     23  C   LIG    1       -1.469   1.868  -3.198  0.00  0.00    +0.140 A 
ATOM     24  C   LIG    1       -0.626   1.120  -2.456  0.00  0.00    +0.130 A 
ATOM     25  N   LIG    1       -0.726   1.574  -1.174  0.00  0.00    -0.460 N 
ATOM     26  C   LIG    1       -0.013   1.086   0.008  0.00  0.00    +0.290 C 
ENDBRANCH  17  18
ENDBRANCH  15  17
ENDBRANCH   1  15
TORSDOF 8
