REMARK  Name = ZINCkj00000vq97w.0
REMARK                            x       y       z     vdW  Elec       q    Type
REMARK                         _______ _______ _______ _____ _____    ______ ____
ROOT
ATOM      1  N   LIG    1       -4.979   5.247   1.135  0.00  0.00    -0.530 NA
ATOM      2  C   LIG    1       -4.821   4.480  -0.109  0.00  0.00    +0.180 C 
ATOM      3  C   LIG    1       -3.515   3.684  -0.052  0.00  0.00    +0.200 C 
ATOM      4  N   LIG    1       -2.389   4.608   0.141  0.00  0.00    -0.490 N 
ATOM      5  C   LIG    1       -2.547   5.375   1.385  0.00  0.00    +0.210 C 
ATOM      6  C   LIG    1       -3.853   6.171   1.328  0.00  0.00    +0.200 C 
ENDROOT
BRANCH   4   7
ATOM      7  C   LIG    1       -1.172   3.924   0.127  0.00  0.00    +0.120 A 
ATOM      8  C   LIG    1        0.019   4.618   0.294  0.00  0.00    +0.000 A 
ATOM      9  C   LIG    1        1.222   3.939   0.279  0.00  0.00    +0.060 A 
ATOM     10  C   LIG    1        1.242   2.568   0.098  0.00  0.00    +0.010 A 
ATOM     11  C   LIG    1        0.057   1.873  -0.069  0.00  0.00    -0.010 A 
ATOM     12 CL   LIG    1        0.086   0.152  -0.297  0.00  0.00    -0.060 Cl
ATOM     13  C   LIG    1       -1.149   2.547  -0.060  0.00  0.00    -0.020 A 
ENDBRANCH   4   7
BRANCH   1  17
ATOM     14  C   LIG    1       -8.234   5.198   2.420  0.00  0.00    +0.180 C 
ATOM     15  C   LIG    1       -7.899   6.657   2.820  0.00  0.00    +0.020 C 
ATOM     16  C   LIG    1       -6.397   6.773   2.458  0.00  0.00    +0.200 C 
ATOM     17  C   LIG    1       -6.260   5.967   1.150  0.00  0.00    +0.160 C 
ATOM     18  C   LIG    1       -7.428   4.965   1.126  0.00  0.00    +0.060 C 
BRANCH  14  19
ATOM     19  N   LIG    1       -9.673   5.054   2.162  0.00  0.00    -0.630 N 
ATOM     20  H   LIG    1       -9.961   5.731   1.471  0.00  0.00    +0.430 HD
ATOM     21  H   LIG    1      -10.186   5.210   3.018  0.00  0.00    +0.440 HD
ATOM     22  H   LIG    1       -9.863   4.124   1.821  0.00  0.00    +0.440 HD
ENDBRANCH  14  19
BRANCH  16  23
ATOM     23  O   LIG    1       -6.039   8.140   2.243  0.00  0.00    -0.550 OA
ATOM     24  H   LIG    1       -6.107   8.693   3.033  0.00  0.00    +0.390 HD
ENDBRANCH  16  23
ENDBRANCH   1  17
TORSDOF 4
