REMARK  Name = ZINCrD0000074R9l.0
REMARK                            x       y       z     vdW  Elec       q    Type
REMARK                         _______ _______ _______ _____ _____    ______ ____
ROOT
ATOM      1  C   LIG    1        1.675   3.798  -0.533  0.00  0.00    -0.040 A 
ATOM      2  C   LIG    1        0.737   4.743  -0.836  0.00  0.00    +0.030 A 
ATOM      3  C   LIG    1        1.102   5.910  -0.145  0.00  0.00    +0.080 A 
ATOM      4  C   LIG    1        2.237   5.631   0.534  0.00  0.00    -0.550 A 
ATOM      5  O   LIG    1        2.579   4.358   0.298  0.00  0.00    -0.100 OA
ENDROOT
BRANCH   1  16
ATOM      6  C   LIG    1        0.174   1.350   0.542  0.00  0.00    +0.090 C 
ATOM      7  C   LIG    1        1.226   0.279   0.678  0.00  0.00    -0.130 A 
ATOM      8  C   LIG    1        0.962  -0.856   1.419  0.00  0.00    +0.040 A 
ATOM      9  C   LIG    1        1.926  -1.841   1.537  0.00  0.00    -0.010 A 
ATOM     10  C   LIG    1        3.153  -1.689   0.922  0.00  0.00    +0.040 A 
ATOM     11  C   LIG    1        3.429  -0.550   0.183  0.00  0.00    -0.120 A 
ATOM     12  C   LIG    1        4.780  -0.411  -0.466  0.00  0.00    +0.080 C 
ATOM     13  C   LIG    1        4.725   0.606  -1.606  0.00  0.00    +0.030 C 
ATOM     14  C   LIG    1        4.090   1.901  -1.084  0.00  0.00    +0.290 C 
ATOM     15  N   LIG    1        2.710   1.596  -0.684  0.00  0.00    -0.610 N 
ATOM     16  C   LIG    1        1.699   2.418  -1.028  0.00  0.00    +0.640 C 
ATOM     17  O   LIG    1        0.806   2.015  -1.750  0.00  0.00    -0.440 OA
ATOM     18  C   LIG    1        2.462   0.436   0.062  0.00  0.00    +0.190 A 
ENDBRANCH   1  16
BRANCH   4  19
ATOM     19  S   LIG    1        3.120   6.758   1.561  0.00  0.00    +2.710 S 
ATOM     20  O   LIG    1        2.775   8.062   1.116  0.00  0.00    -0.930 OA
ATOM     21  O   LIG    1        4.459   6.284   1.617  0.00  0.00    -0.930 OA
BRANCH  19  22
ATOM     22  N   LIG    1        2.507   6.609   3.092  0.00  0.00    -0.990 NA
ATOM     23  C   LIG    1        1.383   7.445   3.533  0.00  0.00    +0.290 C 
ATOM     24  C   LIG    1        0.275   6.528   4.073  0.00  0.00    +0.010 C 
ATOM     25  C   LIG    1        0.854   5.627   5.167  0.00  0.00    +0.020 C 
ATOM     26  C   LIG    1        1.959   4.749   4.574  0.00  0.00    +0.010 C 
ATOM     27  C   LIG    1        3.082   5.642   4.038  0.00  0.00    +0.290 C 
ENDBRANCH  19  22
ENDBRANCH   4  19
TORSDOF 3
