REMARK  Name = ZINCtV00000L6kS5.1
REMARK                            x       y       z     vdW  Elec       q    Type
REMARK                         _______ _______ _______ _____ _____    ______ ____
ROOT
ATOM      1  C   LIG    1       -2.436   1.302  -0.716  0.00  0.00    +0.110 C 
ATOM      2  C   LIG    1       -1.081   1.947  -0.850  0.00  0.00    -0.090 A 
ATOM      3  C   LIG    1        0.062   1.214  -0.600  0.00  0.00    +0.080 A 
ATOM      4  C   LIG    1        1.306   1.803  -0.727  0.00  0.00    -0.090 A 
ATOM      5  C   LIG    1        1.410   3.132  -1.100  0.00  0.00    +0.010 A 
ATOM      6  C   LIG    1        0.270   3.873  -1.346  0.00  0.00    -0.020 A 
ATOM      7 CL   LIG    1        2.974   3.868  -1.258  0.00  0.00    -0.050 Cl
ATOM      8  C   LIG    1       -0.981   3.283  -1.218  0.00  0.00    +0.190 A 
ENDROOT
BRANCH   8   9
ATOM      9  N   LIG    1       -2.135   4.029  -1.466  0.00  0.00    -1.040 N 
ATOM     10  H   LIG    1       -2.947   3.847  -0.967  0.00  0.00    +0.430 HD
BRANCH   9  11
ATOM     11  S   LIG    1       -2.118   5.225  -2.611  0.00  0.00    +2.680 S 
ATOM     12  O   LIG    1       -3.432   5.765  -2.647  0.00  0.00    -0.920 OA
ATOM     13  O   LIG    1       -1.471   4.679  -3.752  0.00  0.00    -0.930 OA
BRANCH  11  14
ATOM     14  C   LIG    1       -1.070   6.508  -2.011  0.00  0.00    -0.660 A 
ATOM     15  C   LIG    1        0.083   6.836  -2.698  0.00  0.00    +0.140 A 
ATOM     16  C   LIG    1        0.906   7.843  -2.227  0.00  0.00    +0.030 A 
ATOM     17  C   LIG    1        0.576   8.520  -1.069  0.00  0.00    +0.090 A 
ATOM     18  C   LIG    1       -0.577   8.193  -0.381  0.00  0.00    +0.040 A 
ATOM     19  C   LIG    1       -1.404   7.190  -0.855  0.00  0.00    -0.000 A 
ATOM     20 BR   LIG    1       -2.985   6.746   0.083  0.00  0.00    -0.020 Br
ENDBRANCH  11  14
ENDBRANCH   9  11
ENDBRANCH   8   9
BRANCH   4  21
ATOM     21  C   LIG    1        2.551   0.997  -0.461  0.00  0.00    +0.230 C 
BRANCH  21  22
ATOM     22  C   LIG    1        2.684  -0.082  -1.504  0.00  0.00    -0.080 A 
ATOM     23  C   LIG    1        1.800  -1.145  -1.516  0.00  0.00    +0.040 A 
ATOM     24  C   LIG    1        1.919  -2.131  -2.476  0.00  0.00    +0.040 A 
ATOM     25  C   LIG    1        2.929  -2.061  -3.419  0.00  0.00    -0.030 A 
ATOM     26  C   LIG    1        3.816  -1.000  -3.404  0.00  0.00    +0.030 A 
ATOM     27 CL   LIG    1        3.082  -3.304  -4.622  0.00  0.00    -0.060 Cl
ATOM     28  C   LIG    1        3.694  -0.011  -2.446  0.00  0.00    +0.060 A 
ENDBRANCH  21  22
BRANCH  21  29
ATOM     29  C   LIG    1        2.460   0.381   0.873  0.00  0.00    +0.210 C 
ATOM     30  N   LIG    1        2.390  -0.094   1.903  0.00  0.00    -0.400 NA
ENDBRANCH  21  29
ENDBRANCH   4  21
TORSDOF 6
