REMARK  Name = ZINCb70000002hm1.0
REMARK                            x       y       z     vdW  Elec       q    Type
REMARK                         _______ _______ _______ _____ _____    ______ ____
ROOT
ATOM      1  C   LIG    1       -1.510   3.553  -0.044  0.00  0.00    +0.020 C 
ATOM      2  C   LIG    1       -0.761   2.984  -1.252  0.00  0.00    +0.220 C 
ATOM      3  O   LIG    1       -0.705   1.560  -1.149  0.00  0.00    -0.360 OA
ATOM      4  C   LIG    1       -0.013   1.086   0.008  0.00  0.00    +0.200 C 
ATOM      5  C   LIG    1       -0.730   1.580   1.266  0.00  0.00    +0.060 C 
ATOM      6  C   LIG    1        0.042   1.125   2.507  0.00  0.00    +0.270 C 
ATOM      7  N   LIG    1        0.059  -0.344   2.559  0.00  0.00    -0.510 N 
ATOM      8  C   LIG    1       -1.320  -0.847   2.624  0.00  0.00    +0.240 C 
ATOM      9  C   LIG    1       -2.087  -0.389   1.381  0.00  0.00    +0.250 C 
ATOM     10  H   LIG    1        0.511  -0.705   1.732  0.00  0.00    +0.430 HD
ATOM     11  H   LIG    1        0.566  -0.645   3.378  0.00  0.00    +0.440 HD
ATOM     12  O   LIG    1       -2.053   1.040   1.305  0.00  0.00    -0.330 OA
ATOM     13  C   LIG    1       -0.803   3.108   1.240  0.00  0.00    +0.070 C 
ENDROOT
TORSDOF 0
