REMARK  Name = ZINCqH0000000kkh.0
REMARK                            x       y       z     vdW  Elec       q    Type
REMARK                         _______ _______ _______ _____ _____    ______ ____
ROOT
ATOM      1  N   LIG    1        2.734   1.005   3.872  0.00  0.00    -0.450 N 
ATOM      2  C   LIG    1        2.064   0.976   2.683  0.00  0.00    +0.140 A 
ATOM      3  N   LIG    1        1.564  -0.232   2.546  0.00  0.00    -0.260 NA
ATOM      4  N   LIG    1        1.881  -0.957   3.559  0.00  0.00    -0.260 NA
ATOM      5  C   LIG    1        2.595  -0.255   4.407  0.00  0.00    +0.230 A 
ENDROOT
BRANCH   5   6
ATOM      6  C   LIG    1        3.146  -0.728   5.695  0.00  0.00    -0.030 A 
ATOM      7  C   LIG    1        3.529   0.191   6.674  0.00  0.00    +0.020 A 
ATOM      8  C   LIG    1        4.036  -0.258   7.876  0.00  0.00    +0.010 A 
ATOM      9  C   LIG    1        4.176  -1.615   8.108  0.00  0.00    -0.070 A 
ATOM     10  C   LIG    1        3.803  -2.530   7.140  0.00  0.00    +0.010 A 
ATOM     11  C   LIG    1        4.737  -2.097   9.421  0.00  0.00    +0.100 C 
ATOM     12  C   LIG    1        3.289  -2.095   5.936  0.00  0.00    +0.070 A 
ENDBRANCH   5   6
BRANCH   1  13
ATOM     13  C   LIG    1        3.451   2.141   4.457  0.00  0.00    +0.340 C 
BRANCH  13  15
ATOM     14  C   LIG    1        2.676   3.294   6.465  0.00  0.00    +0.070 C 
ATOM     15  C   LIG    1        2.478   3.021   5.199  0.00  0.00    -0.070 C 
ENDBRANCH  13  15
ENDBRANCH   1  13
BRANCH   2  16
ATOM     16  S   LIG    1        1.895   2.312   1.546  0.00  0.00    +0.050 S 
BRANCH  16  17
ATOM     17  C   LIG    1        0.904   1.508   0.262  0.00  0.00    +0.080 C 
BRANCH  17  18
ATOM     18  C   LIG    1        0.732   2.449  -0.902  0.00  0.00    -0.080 A 
ATOM     19  C   LIG    1        1.016   2.021  -2.186  0.00  0.00    +0.040 A 
ATOM     20  C   LIG    1        0.853   2.883  -3.254  0.00  0.00    +0.020 A 
ATOM     21  C   LIG    1        0.415   4.176  -3.038  0.00  0.00    +0.020 A 
ATOM     22  C   LIG    1        0.136   4.606  -1.754  0.00  0.00    +0.020 A 
ATOM     23  C   LIG    1        0.294   3.742  -0.686  0.00  0.00    +0.020 A 
ENDBRANCH  17  18
BRANCH  17  24
ATOM     24  C   LIG    1       -0.448   1.147   0.822  0.00  0.00    +0.530 C 
ATOM     25  O   LIG    1       -0.786  -0.015   0.887  0.00  0.00    -0.500 OA
ATOM     26  N   LIG    1       -1.282   2.118   1.244  0.00  0.00    -0.850 N 
ATOM     27  H   LIG    1       -1.042   3.050   1.125  0.00  0.00    +0.400 HD
ATOM     28  H   LIG    1       -2.123   1.884   1.667  0.00  0.00    +0.410 HD
ENDBRANCH  17  24
ENDBRANCH  16  17
ENDBRANCH   2  16
TORSDOF 7
