REMARK  Name = ZINCkj00000dEaB8.0
REMARK                            x       y       z     vdW  Elec       q    Type
REMARK                         _______ _______ _______ _____ _____    ______ ____
ROOT
ATOM      1  O   LIG    1       -3.618   2.914   0.137  0.00  0.00    -0.510 OA
ATOM      2  C   LIG    1       -3.602   1.701   0.129  0.00  0.00    +0.490 C 
ATOM      3  N   LIG    1       -2.432   1.043   0.018  0.00  0.00    -0.640 N 
ATOM      4  H   LIG    1       -2.424   0.076  -0.066  0.00  0.00    +0.420 HD
ENDROOT
BRANCH   3   5
ATOM      5  C   LIG    1       -1.225   1.754   0.023  0.00  0.00    +0.090 A 
ATOM      6  C   LIG    1       -0.147   1.307  -0.729  0.00  0.00    +0.050 A 
ATOM      7  C   LIG    1        1.045   2.001  -0.718  0.00  0.00    +0.020 A 
ATOM      8  C   LIG    1        1.177   3.160   0.043  0.00  0.00    +0.110 A 
ATOM      9  O   LIG    1        2.253   3.980   0.204  0.00  0.00    -0.300 OA
ATOM     10  C   LIG    1        1.809   5.250   0.710  0.00  0.00    +0.240 C 
ATOM     11  C   LIG    1        0.522   4.880   1.485  0.00  0.00    +0.090 C 
ATOM     12  C   LIG    1        0.089   3.607   0.784  0.00  0.00    -0.160 A 
ATOM     13  C   LIG    1       -1.101   2.916   0.777  0.00  0.00    +0.080 A 
ENDBRANCH   3   5
BRANCH   2  14
ATOM     14  C   LIG    1       -4.892   0.930   0.243  0.00  0.00    +0.300 C 
BRANCH  14  15
ATOM     15  N   LIG    1       -6.016   1.870   0.351  0.00  0.00    -0.490 N 
ATOM     16  H   LIG    1       -6.046   2.455  -0.471  0.00  0.00    +0.440 HD
ATOM     17  H   LIG    1       -5.896   2.446   1.170  0.00  0.00    +0.440 HD
BRANCH  15  18
ATOM     18  C   LIG    1       -7.274   1.118   0.462  0.00  0.00    +0.290 C 
BRANCH  18  19
ATOM     19  C   LIG    1       -8.444   2.097   0.574  0.00  0.00    +0.150 C 
ATOM     20  C   LIG    1       -9.779   1.324   0.728  0.00  0.00    +0.040 C 
ATOM     21  C   LIG    1      -10.653   2.387   1.449  0.00  0.00    +0.030 C 
ATOM     22  C   LIG    1       -9.620   3.116   2.335  0.00  0.00    +0.210 C 
ATOM     23  O   LIG    1       -8.324   2.882   1.771  0.00  0.00    -0.390 OA
ENDBRANCH  18  19
ENDBRANCH  15  18
ENDBRANCH  14  15
ENDBRANCH   2  14
TORSDOF 5
