REMARK  Name = ZINCvU0000000Bkt.0
REMARK                            x       y       z     vdW  Elec       q    Type
REMARK                         _______ _______ _______ _____ _____    ______ ____
ROOT
ATOM      1  C   LIG    1       -2.826   3.551  -1.543  0.00  0.00    +0.540 C 
ATOM      2  N   LIG    1       -4.015   2.974  -1.275  0.00  0.00    -0.620 N 
ATOM      3  C   LIG    1       -4.237   1.537  -1.034  0.00  0.00    +0.260 C 
ATOM      4  C   LIG    1       -5.723   1.298  -1.391  0.00  0.00    +0.050 C 
ATOM      5  C   LIG    1       -6.382   2.609  -0.885  0.00  0.00    +0.060 C 
ATOM      6  C   LIG    1       -5.304   3.673  -1.179  0.00  0.00    +0.320 C 
ATOM      7  O   LIG    1       -2.762   4.747  -1.730  0.00  0.00    -0.510 OA
ENDROOT
BRANCH   6   8
ATOM      8  C   LIG    1       -5.260   4.681  -0.060  0.00  0.00    +0.090 A 
ATOM      9  N   LIG    1       -5.697   5.879  -0.152  0.00  0.00    -0.450 NA
ATOM     10  C   LIG    1       -5.592   6.673   0.931  0.00  0.00    +0.080 A 
ATOM     11  C   LIG    1       -5.987   8.014   1.106  0.00  0.00    +0.080 A 
ATOM     12  C   LIG    1       -5.789   8.642   2.299  0.00  0.00    +0.030 A 
ATOM     13  C   LIG    1       -5.197   7.975   3.362  0.00  0.00    +0.040 A 
ATOM     14  C   LIG    1       -4.801   6.664   3.220  0.00  0.00    +0.060 A 
ATOM     15  C   LIG    1       -4.996   6.006   2.007  0.00  0.00    -0.180 A 
ATOM     16  S   LIG    1       -4.625   4.364   1.492  0.00  0.00    +0.100 S 
ENDBRANCH   6   8
BRANCH   1  23
ATOM     17  O   LIG    1       -0.990  -0.593   0.384  0.00  0.00    -0.530 OA
ATOM     18  C   LIG    1        0.002  -0.004   0.002  0.00  0.00    +0.560 C 
ATOM     19  N   LIG    1       -0.068   1.306  -0.305  0.00  0.00    -0.600 N 
ATOM     20  C   LIG    1        1.139   2.051  -0.688  0.00  0.00    +0.270 C 
ATOM     21  C   LIG    1        0.886   2.743  -2.031  0.00  0.00    +0.030 C 
ATOM     22  C   LIG    1       -0.377   3.602  -1.929  0.00  0.00    +0.050 C 
ATOM     23  C   LIG    1       -1.578   2.709  -1.611  0.00  0.00    -0.020 C 
ATOM     24  C   LIG    1       -1.355   2.016  -0.269  0.00  0.00    +0.310 C 
BRANCH  18  25
ATOM     25  C   LIG    1        1.286  -0.725  -0.126  0.00  0.00    -0.120 A 
ATOM     26  C   LIG    1        1.346  -1.930  -0.828  0.00  0.00    +0.080 A 
ATOM     27  C   LIG    1        2.547  -2.596  -0.947  0.00  0.00    +0.030 A 
ATOM     28  C   LIG    1        3.692  -2.076  -0.364  0.00  0.00    -0.020 A 
ATOM     29  C   LIG    1        3.637  -0.884   0.338  0.00  0.00    +0.030 A 
ATOM     30 CL   LIG    1        5.199  -2.924  -0.514  0.00  0.00    -0.060 Cl
ATOM     31  C   LIG    1        2.442  -0.206   0.460  0.00  0.00    +0.060 A 
ENDBRANCH  18  25
ENDBRANCH   1  23
TORSDOF 3
