REMARK  Name = ZINCrD00000hQ5Zi.0
REMARK                            x       y       z     vdW  Elec       q    Type
REMARK                         _______ _______ _______ _____ _____    ______ ____
ROOT
ATOM      1  N   LIG    1        1.430   9.206  -1.199  0.00  0.00    -0.530 NA
ATOM      2  C   LIG    1        0.857   9.875  -0.025  0.00  0.00    +0.180 C 
ATOM      3  C   LIG    1        1.439   9.259   1.250  0.00  0.00    +0.040 C 
ATOM      4  C   LIG    1        1.114   7.763   1.282  0.00  0.00    +0.030 C 
ATOM      5  C   LIG    1        1.680   7.099   0.024  0.00  0.00    +0.090 C 
ATOM      6  C   LIG    1        1.092   7.777  -1.215  0.00  0.00    +0.200 C 
ENDROOT
BRANCH   5   7
ATOM      7  C   LIG    1        1.314   5.637   0.019  0.00  0.00    +0.100 A 
ATOM      8  N   LIG    1        0.113   5.196   0.028  0.00  0.00    -0.460 NA
ATOM      9  C   LIG    1       -0.067   3.861   0.022  0.00  0.00    +0.080 A 
ATOM     10  C   LIG    1       -1.262   3.114   0.029  0.00  0.00    +0.070 A 
ATOM     11  C   LIG    1       -1.224   1.752   0.017  0.00  0.00    +0.030 A 
ATOM     12  C   LIG    1       -0.013   1.076   0.008  0.00  0.00    +0.040 A 
ATOM     13  C   LIG    1        1.171   1.780   0.000  0.00  0.00    +0.060 A 
ATOM     14  C   LIG    1        1.152   3.172   0.008  0.00  0.00    -0.180 A 
ATOM     15  S   LIG    1        2.449   4.363   0.002  0.00  0.00    +0.110 S 
ENDBRANCH   5   7
BRANCH   1  16
ATOM     16  C   LIG    1        1.000   9.862  -2.441  0.00  0.00    +0.480 C 
BRANCH  16  27
ATOM     17  O   LIG    1        0.244   7.728  -4.269  0.00  0.00    -0.460 OA
ATOM     18  C   LIG    1       -0.570   8.318  -3.592  0.00  0.00    +0.540 C 
ATOM     19  C   LIG    1       -2.030   8.001  -3.457  0.00  0.00    +0.000 C 
ATOM     20  C   LIG    1       -2.763   7.480  -4.675  0.00  0.00    +0.110 C 
ATOM     21  C   LIG    1       -4.244   7.587  -4.377  0.00  0.00    -0.040 C 
ATOM     22  C   LIG    1       -4.752   8.335  -3.446  0.00  0.00    -0.040 C 
ATOM     23  C   LIG    1       -3.942   9.233  -2.534  0.00  0.00    +0.100 C 
ATOM     24  C   LIG    1       -2.594   9.431  -3.195  0.00  0.00    +0.000 C 
ATOM     25  C   LIG    1       -1.480  10.008  -2.377  0.00  0.00    +0.540 C 
ATOM     26  O   LIG    1       -1.574  10.851  -1.510  0.00  0.00    -0.460 OA
ATOM     27  N   LIG    1       -0.342   9.398  -2.800  0.00  0.00    -0.610 N 
ENDBRANCH  16  27
ENDBRANCH   1  16
TORSDOF 3
