REMARK  Name = ZINCpe00000FUq9x.0
REMARK                            x       y       z     vdW  Elec       q    Type
REMARK                         _______ _______ _______ _____ _____    ______ ____
ROOT
ATOM      1  C   LIG    1       -3.630   2.368  -0.074  0.00  0.00    +0.050 C 
ENDROOT
BRANCH   1   2
ATOM      2  C   LIG    1       -4.894   1.551  -0.148  0.00  0.00    +0.540 C 
ATOM      3  N   LIG    1       -6.094   2.156  -0.041  0.00  0.00    -0.620 N 
ATOM      4  C   LIG    1       -6.314   3.596   0.156  0.00  0.00    +0.250 C 
ATOM      5  C   LIG    1       -7.838   3.820   0.244  0.00  0.00    +0.050 C 
ATOM      6  C   LIG    1       -8.367   2.424   0.668  0.00  0.00    +0.130 C 
ATOM      7  C   LIG    1       -7.404   1.481  -0.095  0.00  0.00    +0.280 C 
ATOM      8  O   LIG    1       -4.832   0.350  -0.303  0.00  0.00    -0.530 OA
BRANCH   6   9
ATOM      9  N   LIG    1       -9.755   2.230   0.225  0.00  0.00    -0.530 NA
ATOM     10  C   LIG    1      -10.648   3.221   0.842  0.00  0.00    +0.160 C 
ATOM     11  C   LIG    1      -12.069   3.020   0.309  0.00  0.00    +0.220 C 
ATOM     12  O   LIG    1      -12.486   1.677   0.571  0.00  0.00    -0.380 OA
ATOM     13  C   LIG    1      -11.639   0.686  -0.016  0.00  0.00    +0.220 C 
ATOM     14  C   LIG    1      -10.213   0.863   0.514  0.00  0.00    +0.150 C 
ENDBRANCH   6   9
ENDBRANCH   1   2
BRANCH   1  15
ATOM     15  C   LIG    1       -2.418   1.446  -0.222  0.00  0.00    +0.290 C 
BRANCH  15  18
ATOM     16  O   LIG    1        0.074   0.432  -0.413  0.00  0.00    -0.530 OA
ATOM     17  C   LIG    1        0.011   1.636  -0.258  0.00  0.00    +0.560 C 
ATOM     18  N   LIG    1       -1.189   2.241  -0.151  0.00  0.00    -0.730 N 
ATOM     19  H   LIG    1       -1.239   3.201  -0.026  0.00  0.00    +0.400 HD
BRANCH  17  20
ATOM     20  C   LIG    1        1.250   2.438  -0.192  0.00  0.00    -0.150 A 
ATOM     21  C   LIG    1        1.181   3.822  -0.019  0.00  0.00    +0.080 A 
ATOM     22  C   LIG    1        2.341   4.564   0.047  0.00  0.00    -0.020 A 
ATOM     23  C   LIG    1        3.574   3.941  -0.068  0.00  0.00    +0.130 A 
ATOM     24  C   LIG    1        3.648   2.568  -0.246  0.00  0.00    -0.010 A 
ATOM     25  F   LIG    1        4.707   4.674  -0.008  0.00  0.00    -0.130 F 
ATOM     26  C   LIG    1        2.495   1.815  -0.308  0.00  0.00    +0.120 A 
ENDBRANCH  17  20
ENDBRANCH  15  18
ENDBRANCH   1  15
TORSDOF 5
