REMARK  Name = ZINCpe000000YW60.0
REMARK                            x       y       z     vdW  Elec       q    Type
REMARK                         _______ _______ _______ _____ _____    ______ ____
ROOT
ATOM      1  C   LIG    1       -5.993   2.913   0.472  0.00  0.00    +0.240 C 
ENDROOT
BRANCH   1   3
ATOM      2  O   LIG    1       -7.098   4.959   0.073  0.00  0.00    -0.510 OA
ATOM      3  C   LIG    1       -7.207   3.804   0.424  0.00  0.00    +0.520 C 
ATOM      4  N   LIG    1       -8.415   3.316   0.772  0.00  0.00    -0.730 N 
ATOM      5  H   LIG    1       -8.502   2.392   1.052  0.00  0.00    +0.410 HD
BRANCH   4   6
ATOM      6  C   LIG    1       -9.596   4.182   0.725  0.00  0.00    +0.420 C 
BRANCH   6   7
ATOM      7  C   LIG    1      -10.809   3.400   1.158  0.00  0.00    +0.170 A 
ATOM      8  N   LIG    1      -11.262   3.286   2.376  0.00  0.00    -0.260 NA
ATOM      9  N   LIG    1      -12.313   2.545   2.380  0.00  0.00    -0.280 NA
ATOM     10  C   LIG    1      -12.577   2.152   1.162  0.00  0.00    +0.170 A 
ATOM     11  C   LIG    1      -13.548   1.325   0.347  0.00  0.00    +0.180 C 
ATOM     12  C   LIG    1      -12.818   1.092  -0.995  0.00  0.00    +0.070 C 
ATOM     13  C   LIG    1      -11.857   2.300  -1.046  0.00  0.00    +0.300 C 
ATOM     14  N   LIG    1      -11.637   2.690   0.352  0.00  0.00    -0.490 N 
ENDBRANCH   6   7
ENDBRANCH   4   6
ENDBRANCH   1   3
BRANCH   1  15
ATOM     15  O   LIG    1       -4.842   3.654   0.062  0.00  0.00    -0.290 OA
BRANCH  15  16
ATOM     16  C   LIG    1       -3.654   2.992   0.049  0.00  0.00    +0.110 A 
ATOM     17  C   LIG    1       -3.600   1.658   0.423  0.00  0.00    -0.050 A 
ATOM     18  C   LIG    1       -2.393   0.985   0.411  0.00  0.00    +0.020 A 
ATOM     19  C   LIG    1       -1.236   1.645   0.017  0.00  0.00    +0.120 A 
ATOM     20  N   LIG    1       -0.011   0.966   0.007  0.00  0.00    -0.660 N 
ATOM     21  H   LIG    1        0.002  -0.004   0.002  0.00  0.00    +0.410 HD
ATOM     22  C   LIG    1        1.148   1.650   0.000  0.00  0.00    +0.520 C 
ATOM     23  C   LIG    1        1.153   3.155   0.026  0.00  0.00    +0.080 C 
ATOM     24  C   LIG    1       -0.033   3.694  -0.774  0.00  0.00    +0.110 C 
ATOM     25  O   LIG    1        2.200   1.047  -0.028  0.00  0.00    -0.530 OA
ATOM     26  C   LIG    1       -1.291   2.981  -0.353  0.00  0.00    -0.080 A 
ATOM     27  C   LIG    1       -2.497   3.652  -0.339  0.00  0.00    +0.030 A 
ENDBRANCH  15  16
ENDBRANCH   1  15
TORSDOF 5
