REMARK  Name = ZINCqH0000005jCy.0
REMARK                            x       y       z     vdW  Elec       q    Type
REMARK                         _______ _______ _______ _____ _____    ______ ____
ROOT
ATOM      1  C   LIG    1       -1.870   5.726   0.083  0.00  0.00    +0.270 C 
ATOM      2  N   LIG    1       -1.554   5.563   1.504  0.00  0.00    -0.630 N 
ATOM      3  C   LIG    1       -2.054   6.427   2.409  0.00  0.00    +0.710 C 
ATOM      4  N   LIG    1       -2.844   7.442   2.007  0.00  0.00    -0.740 N 
ATOM      5  H   LIG    1       -3.054   7.550   1.067  0.00  0.00    +0.400 HD
ATOM      6  O   LIG    1       -1.791   6.291   3.589  0.00  0.00    -0.570 OA
ENDROOT
BRANCH   4   7
ATOM      7  C   LIG    1       -3.387   8.382   2.992  0.00  0.00    +0.250 C 
ATOM      8  C   LIG    1       -3.681   9.688   2.306  0.00  0.00    +0.030 C 
ATOM      9  C   LIG    1       -3.392  10.836   3.295  0.00  0.00    +0.020 C 
ATOM     10  C   LIG    1       -4.476  11.037   4.245  0.00  0.00    +0.010 C 
ATOM     11  C   LIG    1       -4.717   9.800   5.133  0.00  0.00    +0.020 C 
ATOM     12  C   LIG    1       -5.524   8.799   4.351  0.00  0.00    +0.010 C 
ATOM     13  C   LIG    1       -4.641   7.759   3.636  0.00  0.00    +0.170 C 
ATOM     14  F   LIG    1       -5.397   7.133   2.640  0.00  0.00    -0.210 F 
ENDBRANCH   4   7
BRANCH   2  15
ATOM     15  C   LIG    1       -0.695   4.460   1.941  0.00  0.00    +0.430 C 
BRANCH  15  16
ATOM     16  C   LIG    1       -1.544   3.253   2.250  0.00  0.00    +0.190 A 
ATOM     17  N   LIG    1       -2.152   3.021   3.381  0.00  0.00    -0.460 NA
ATOM     18  C   LIG    1       -2.813   1.857   3.296  0.00  0.00    +0.140 A 
ATOM     19  C   LIG    1       -2.612   1.352   2.064  0.00  0.00    +0.120 A 
ATOM     20  N   LIG    1       -1.802   2.235   1.402  0.00  0.00    -0.450 N 
BRANCH  20  21
ATOM     21  C   LIG    1       -1.311   2.101   0.028  0.00  0.00    +0.340 C 
BRANCH  21  22
ATOM     22  C   LIG    1        0.039   1.432   0.040  0.00  0.00    -0.120 A 
ATOM     23  C   LIG    1        1.190   2.197  -0.002  0.00  0.00    +0.020 A 
ATOM     24  C   LIG    1        2.428   1.583   0.001  0.00  0.00    +0.010 A 
ATOM     25  C   LIG    1        2.516   0.204   0.048  0.00  0.00    +0.020 A 
ATOM     26  C   LIG    1        1.365  -0.560   0.090  0.00  0.00    +0.010 A 
ATOM     27  C   LIG    1        0.127   0.054   0.086  0.00  0.00    +0.020 A 
ENDBRANCH  21  22
ENDBRANCH  20  21
ENDBRANCH  15  16
ENDBRANCH   2  15
TORSDOF 5
