REMARK  Name = ZINCvU00000003LY.0
REMARK                            x       y       z     vdW  Elec       q    Type
REMARK                         _______ _______ _______ _____ _____    ______ ____
ROOT
ATOM      1  C   LIG    1       -2.161   5.551  -3.340  0.00  0.00    -0.230 C 
ATOM      2  C   LIG    1       -3.090   4.619  -3.028  0.00  0.00    +0.110 C 
ATOM      3  C   LIG    1       -2.983   4.287  -1.593  0.00  0.00    +0.530 C 
ATOM      4  N   LIG    1       -1.997   5.006  -1.027  0.00  0.00    -0.590 N 
ATOM      5  O   LIG    1       -3.682   3.482  -1.010  0.00  0.00    -0.500 OA
ATOM      6  C   LIG    1       -1.407   5.858  -2.067  0.00  0.00    +0.340 C 
ENDROOT
BRANCH   6   7
ATOM      7  C   LIG    1       -1.572   7.311  -1.701  0.00  0.00    -0.110 A 
ATOM      8  C   LIG    1       -2.780   7.767  -1.209  0.00  0.00    +0.030 A 
ATOM      9  C   LIG    1       -2.930   9.099  -0.870  0.00  0.00    +0.010 A 
ATOM     10  C   LIG    1       -1.873   9.976  -1.032  0.00  0.00    -0.060 A 
ATOM     11  C   LIG    1       -0.667   9.521  -1.529  0.00  0.00    +0.020 A 
ATOM     12  C   LIG    1       -0.516   8.188  -1.864  0.00  0.00    +0.020 A 
BRANCH  10  13
ATOM     13  C   LIG    1       -2.038  11.428  -0.665  0.00  0.00    +0.020 C 
ATOM     14  C   LIG    1       -2.390  11.543   0.819  0.00  0.00    +0.030 C 
ATOM     15  C   LIG    1       -3.159  12.043  -1.505  0.00  0.00    +0.030 C 
ENDBRANCH  10  13
ENDBRANCH   6   7
BRANCH   1  16
ATOM     16  C   LIG    1       -1.932   6.152  -4.659  0.00  0.00    +0.510 C 
ATOM     17  O   LIG    1       -2.783   6.864  -5.160  0.00  0.00    -0.420 OA
BRANCH  16  22
ATOM     18  C   LIG    1        2.869   4.627  -6.588  0.00  0.00    +0.190 C 
ATOM     19  C   LIG    1        1.515   5.199  -6.255  0.00  0.00    +0.070 A 
ATOM     20  N   LIG    1        0.880   6.061  -6.983  0.00  0.00    -0.480 NA
ATOM     21  C   LIG    1       -0.290   6.464  -6.559  0.00  0.00    +0.170 A 
ATOM     22  C   LIG    1       -0.677   5.895  -5.374  0.00  0.00    -0.330 A 
ATOM     23  C   LIG    1       -1.136   7.463  -7.305  0.00  0.00    +0.170 C 
ATOM     24  S   LIG    1        0.608   4.803  -4.862  0.00  0.00    +0.180 S 
ENDBRANCH  16  22
ENDBRANCH   1  16
BRANCH   2  25
ATOM     25  O   LIG    1       -3.978   4.077  -3.895  0.00  0.00    -0.430 OA
ATOM     26  H   LIG    1       -4.569   3.425  -3.495  0.00  0.00    +0.410 HD
ENDBRANCH   2  25
BRANCH   4  27
ATOM     27  C   LIG    1       -1.589   4.953   0.379  0.00  0.00    +0.450 C 
BRANCH  27  28
ATOM     28  C   LIG    1       -0.520   3.906   0.553  0.00  0.00    -0.050 A 
ATOM     29  C   LIG    1        0.805   4.109   0.449  0.00  0.00    -0.030 A 
ATOM     30  C   LIG    1        1.431   2.864   0.684  0.00  0.00    -0.070 A 
ATOM     31  C   LIG    1        0.450   1.973   0.918  0.00  0.00    +0.170 A 
ATOM     32  O   LIG    1       -0.730   2.608   0.831  0.00  0.00    -0.170 OA
ENDBRANCH  27  28
ENDBRANCH   4  27
TORSDOF 7
