REMARK  Name = ZINCqH00000386FU.0
REMARK                            x       y       z     vdW  Elec       q    Type
REMARK                         _______ _______ _______ _____ _____    ______ ____
ROOT
ATOM      1  C   LIG    1       -0.715   1.602   1.266  0.00  0.00    +0.290 C 
ENDROOT
BRANCH   1   2
ATOM      2  N   LIG    1       -0.000   1.127   2.454  0.00  0.00    -0.730 N 
ATOM      3  H   LIG    1        0.796   0.583   2.354  0.00  0.00    +0.400 HD
ATOM      4  C   LIG    1       -0.450   1.446   3.683  0.00  0.00    +0.520 C 
ATOM      5  O   LIG    1       -1.446   2.126   3.808  0.00  0.00    -0.530 OA
BRANCH   4   6
ATOM      6  C   LIG    1        0.286   0.957   4.905  0.00  0.00    -0.070 C 
ATOM      7  C   LIG    1        1.719   1.492   4.885  0.00  0.00    +0.040 C 
ATOM      8  C   LIG    1        2.466   0.996   6.125  0.00  0.00    -0.010 C 
ATOM      9  C   LIG    1        2.492  -0.534   6.126  0.00  0.00    +0.020 C 
ATOM     10  C   LIG    1        1.058  -1.069   6.146  0.00  0.00    -0.010 C 
ATOM     11  C   LIG    1        0.345  -0.570   7.404  0.00  0.00    +0.010 C 
ATOM     12  C   LIG    1        0.319   0.960   7.403  0.00  0.00    -0.020 C 
ATOM     13  C   LIG    1        1.753   1.495   7.383  0.00  0.00    +0.010 C 
ATOM     14  C   LIG    1        0.312  -0.572   4.906  0.00  0.00    +0.040 C 
ATOM     15  C   LIG    1       -0.427   1.456   6.163  0.00  0.00    +0.050 C 
ENDBRANCH   4   6
ENDBRANCH   1   2
BRANCH   1  16
ATOM     16  C   LIG    1       -0.002   1.103   0.008  0.00  0.00    +0.070 C 
BRANCH  16  19
ATOM     17  N   LIG    1       -0.288   1.272  -2.443  0.00  0.00    -0.670 N 
ATOM     18  H   LIG    1        0.543   0.783  -2.544  0.00  0.00    +0.410 HD
ATOM     19  C   LIG    1       -0.738   1.591  -1.213  0.00  0.00    +0.520 C 
ATOM     20  O   LIG    1       -1.734   2.272  -1.089  0.00  0.00    -0.510 OA
BRANCH  17  26
ATOM     21  C   LIG    1       -3.198   4.517  -4.719  0.00  0.00    +0.100 C 
ATOM     22  C   LIG    1       -2.442   3.214  -4.707  0.00  0.00    -0.080 A 
ATOM     23  C   LIG    1       -2.473   2.387  -5.814  0.00  0.00    +0.030 A 
ATOM     24  C   LIG    1       -1.781   1.190  -5.807  0.00  0.00    +0.010 A 
ATOM     25  C   LIG    1       -1.055   0.816  -4.691  0.00  0.00    +0.070 A 
ATOM     26  C   LIG    1       -1.022   1.647  -3.576  0.00  0.00    +0.120 A 
ATOM     27  F   LIG    1       -0.380  -0.354  -4.683  0.00  0.00    -0.140 F 
ATOM     28  C   LIG    1       -1.723   2.845  -3.586  0.00  0.00    +0.050 A 
ENDBRANCH  17  26
ENDBRANCH  16  19
ENDBRANCH   1  16
TORSDOF 5
