REMARK  Name = ZINCvU0000000EOi.0
REMARK                            x       y       z     vdW  Elec       q    Type
REMARK                         _______ _______ _______ _____ _____    ______ ____
ROOT
ATOM      1  O   LIG    1       -1.742   2.260  -1.088  0.00  0.00    -0.500 OA
ATOM      2  C   LIG    1       -0.743   1.583  -1.213  0.00  0.00    +0.510 C 
ATOM      3  N   LIG    1       -0.288   1.272  -2.443  0.00  0.00    -0.670 N 
ATOM      4  H   LIG    1        0.546   0.789  -2.544  0.00  0.00    +0.420 HD
ENDROOT
BRANCH   3   5
ATOM      5  C   LIG    1       -1.022   1.647  -3.576  0.00  0.00    +0.150 A 
ATOM      6  C   LIG    1       -1.045   0.822  -4.692  0.00  0.00    +0.010 A 
ATOM      7  C   LIG    1       -1.773   1.187  -5.810  0.00  0.00    +0.060 A 
ATOM      8  C   LIG    1       -2.471   2.381  -5.822  0.00  0.00    +0.020 A 
ATOM      9  O   LIG    1       -3.251   2.973  -6.782  0.00  0.00    -0.290 OA
ATOM     10  C   LIG    1       -4.065   3.895  -6.044  0.00  0.00    +0.250 C 
ATOM     11  O   LIG    1       -3.209   4.321  -4.974  0.00  0.00    -0.290 OA
ATOM     12  C   LIG    1       -4.491   5.080  -6.918  0.00  0.00    +0.070 C 
ATOM     13  C   LIG    1       -5.938   4.724  -7.351  0.00  0.00    +0.040 C 
ATOM     14  C   LIG    1       -6.518   4.041  -6.087  0.00  0.00    +0.040 C 
ATOM     15  C   LIG    1       -5.334   3.227  -5.517  0.00  0.00    +0.020 C 
ATOM     16  C   LIG    1       -2.446   3.215  -4.704  0.00  0.00    +0.050 A 
ATOM     17  C   LIG    1       -1.723   2.846  -3.584  0.00  0.00    +0.050 A 
ENDBRANCH   3   5
BRANCH   2  18
ATOM     18  C   LIG    1       -0.009   1.091   0.008  0.00  0.00    +0.170 C 
BRANCH  18  19
ATOM     19  C   LIG    1       -0.716   1.574   1.248  0.00  0.00    +0.080 A 
ATOM     20  C   LIG    1       -1.599   0.805   1.861  0.00  0.00    +0.020 A 
ATOM     21  S   LIG    1       -2.173   1.751   3.247  0.00  0.00    +0.170 S 
ATOM     22  C   LIG    1       -1.152   3.152   2.886  0.00  0.00    +0.160 A 
ATOM     23  N   LIG    1       -0.820   4.357   3.279  0.00  0.00    -0.440 NA
ATOM     24  C   LIG    1        0.112   4.850   2.439  0.00  0.00    +0.090 A 
ATOM     25  C   LIG    1        0.354   3.918   1.486  0.00  0.00    +0.150 A 
ATOM     26  N   LIG    1       -0.451   2.821   1.766  0.00  0.00    -0.410 N 
BRANCH  24  27
ATOM     27  C   LIG    1        0.752   6.185   2.535  0.00  0.00    -0.010 A 
ATOM     28  C   LIG    1        1.703   6.574   1.593  0.00  0.00    +0.010 A 
ATOM     29  C   LIG    1        2.291   7.819   1.683  0.00  0.00    +0.010 A 
ATOM     30  C   LIG    1        1.948   8.676   2.713  0.00  0.00    +0.000 A 
ATOM     31  C   LIG    1        1.010   8.293   3.655  0.00  0.00    +0.010 A 
ATOM     32  C   LIG    1        0.411   7.052   3.571  0.00  0.00    +0.040 A 
ENDBRANCH  24  27
ENDBRANCH  18  19
ENDBRANCH   2  18
TORSDOF 4
