REMARK  Name = ZINCpk00000e9yNw.0
REMARK                            x       y       z     vdW  Elec       q    Type
REMARK                         _______ _______ _______ _____ _____    ______ ____
ROOT
ATOM      1  N   LIG    1        1.478   1.759  -0.048  0.00  0.00    -0.720 N 
ATOM      2  H   LIG    1        2.130   1.062  -0.222  0.00  0.00    +0.410 HD
ATOM      3  C   LIG    1        1.879   3.040   0.076  0.00  0.00    +0.610 C 
ATOM      4  O   LIG    1        1.062   3.914   0.293  0.00  0.00    -0.520 OA
ENDROOT
BRANCH   3   5
ATOM      5  C   LIG    1        3.311   3.382  -0.051  0.00  0.00    -0.060 A 
ATOM      6  N   LIG    1        4.296   2.532  -0.279  0.00  0.00    -0.200 NA
ATOM      7  N   LIG    1        5.410   3.173  -0.332  0.00  0.00    -0.150 N 
ATOM      8  N   LIG    1        5.161   4.535  -0.118  0.00  0.00    -0.270 NA
ATOM      9  C   LIG    1        3.867   4.669   0.056  0.00  0.00    +0.300 A 
BRANCH   7  10
ATOM     10  C   LIG    1        6.669   2.601  -0.561  0.00  0.00    +0.150 A 
ATOM     11  C   LIG    1        6.786   1.231  -0.753  0.00  0.00    +0.030 A 
ATOM     12  C   LIG    1        8.028   0.671  -0.983  0.00  0.00    +0.040 A 
ATOM     13  C   LIG    1        9.155   1.472  -1.012  0.00  0.00    +0.020 A 
ATOM     14  C   LIG    1        9.042   2.836  -0.815  0.00  0.00    +0.040 A 
ATOM     15  C   LIG    1        7.803   3.403  -0.590  0.00  0.00    +0.040 A 
ENDBRANCH   7  10
ENDBRANCH   3   5
BRANCH   1  16
ATOM     16  C   LIG    1        0.059   1.420   0.078  0.00  0.00    +0.300 C 
BRANCH  16  17
ATOM     17  C   LIG    1       -0.105  -0.101   0.063  0.00  0.00    +0.100 C 
ATOM     18  C   LIG    1        0.639  -0.683  -1.140  0.00  0.00    +0.010 C 
BRANCH  17  19
ATOM     19  N   LIG    1        0.448  -0.665   1.302  0.00  0.00    -0.520 NA
ATOM     20  C   LIG    1        1.811  -0.169   1.543  0.00  0.00    +0.140 C 
ATOM     21  C   LIG    1        2.326  -0.733   2.870  0.00  0.00    +0.220 C 
ATOM     22  O   LIG    1        2.269  -2.162   2.829  0.00  0.00    -0.380 OA
ATOM     23  C   LIG    1        0.956  -2.679   2.596  0.00  0.00    +0.220 C 
ATOM     24  C   LIG    1        0.427  -2.135   1.266  0.00  0.00    +0.150 C 
ENDBRANCH  17  19
BRANCH  17  26
ATOM     25  C   LIG    1       -2.313   0.015   1.228  0.00  0.00    +0.020 C 
ATOM     26  C   LIG    1       -1.591  -0.452  -0.037  0.00  0.00    +0.030 C 
ENDBRANCH  17  26
ENDBRANCH  16  17
ENDBRANCH   1  16
TORSDOF 6
