REMARK  Name = ZINCtV00001bB3PX.0
REMARK                            x       y       z     vdW  Elec       q    Type
REMARK                         _______ _______ _______ _____ _____    ______ ____
ROOT
ATOM      1  O   LIG    1       -2.839   4.154  -2.189  0.00  0.00    -0.500 OA
ATOM      2  C   LIG    1       -2.756   3.836  -1.017  0.00  0.00    +0.630 C 
ATOM      3  N   LIG    1       -1.795   2.979  -0.618  0.00  0.00    -0.480 N 
ATOM      4  N   LIG    1       -1.648   2.444   0.667  0.00  0.00    -0.230 NA
ATOM      5  C   LIG    1       -0.783   1.490   0.730  0.00  0.00    +0.140 C 
ATOM      6  C   LIG    1       -0.218   0.865   1.869  0.00  0.00    -0.070 C 
ATOM      7  C   LIG    1        1.015   0.022   1.751  0.00  0.00    +0.090 C 
ATOM      8  C   LIG    1        1.473  -0.212   0.326  0.00  0.00    +0.030 C 
ATOM      9  C   LIG    1        1.192   0.967  -0.603  0.00  0.00    +0.040 C 
ATOM     10  C   LIG    1       -0.798   1.031   3.075  0.00  0.00    +0.090 C 
ATOM     11  C   LIG    1       -0.323   1.161  -0.685  0.00  0.00    +0.010 C 
ATOM     12  C   LIG    1       -0.694   2.432  -1.469  0.00  0.00    +0.260 C 
ENDROOT
BRANCH  10  13
ATOM     13  C   LIG    1       -2.207   1.450   3.163  0.00  0.00    -0.060 A 
ATOM     14  C   LIG    1       -2.641   2.233   4.237  0.00  0.00    +0.030 A 
ATOM     15  C   LIG    1       -3.961   2.626   4.310  0.00  0.00    -0.010 A 
ATOM     16  C   LIG    1       -4.857   2.238   3.329  0.00  0.00    +0.010 A 
ATOM     17  C   LIG    1       -4.436   1.458   2.266  0.00  0.00    +0.010 A 
ATOM     18  C   LIG    1       -3.119   1.062   2.176  0.00  0.00    +0.040 A 
ENDBRANCH  10  13
BRANCH  12  19
ATOM     19  C   LIG    1       -1.184   2.089  -2.852  0.00  0.00    -0.080 A 
ATOM     20  C   LIG    1       -2.483   1.655  -3.037  0.00  0.00    +0.030 A 
ATOM     21  C   LIG    1       -2.934   1.346  -4.307  0.00  0.00    +0.000 A 
ATOM     22  C   LIG    1       -2.083   1.461  -5.390  0.00  0.00    +0.010 A 
ATOM     23  C   LIG    1       -0.782   1.889  -5.204  0.00  0.00    +0.000 A 
ATOM     24  C   LIG    1       -0.332   2.204  -3.935  0.00  0.00    +0.020 A 
ENDBRANCH  12  19
BRANCH   2  25
ATOM     25  C   LIG    1       -3.700   4.385  -0.040  0.00  0.00    -0.300 A 
ATOM     26  C   LIG    1       -4.790   5.155  -0.337  0.00  0.00    +0.090 A 
ATOM     27  C   LIG    1       -5.505   5.535   0.774  0.00  0.00    -0.020 A 
ATOM     28  C   LIG    1       -5.020   5.094   1.940  0.00  0.00    -0.110 A 
ATOM     29  S   LIG    1       -3.617   4.153   1.701  0.00  0.00    +0.320 S 
ENDBRANCH   2  25
TORSDOF 3
