REMARK  Name = ZINCrD000000A1yL.1
REMARK                            x       y       z     vdW  Elec       q    Type
REMARK                         _______ _______ _______ _____ _____    ______ ____
ROOT
ATOM      1  C   LIG    1        3.159   6.616   0.008  0.00  0.00    +0.380 C 
ENDROOT
BRANCH   1   2
ATOM      2  C   LIG    1        2.022   5.627   0.013  0.00  0.00    +0.050 A 
ATOM      3  C   LIG    1        0.743   6.016   0.027  0.00  0.00    -0.030 A 
ATOM      4  S   LIG    1       -0.272   4.575   0.029  0.00  0.00    +0.120 S 
ATOM      5  C   LIG    1        1.171   3.565   0.009  0.00  0.00    +0.100 A 
ATOM      6  N   LIG    1        2.225   4.330   0.009  0.00  0.00    -0.440 NA
BRANCH   5   7
ATOM      7  C   LIG    1        1.184   2.087   0.002  0.00  0.00    +0.010 A 
ATOM      8  C   LIG    1       -0.017   1.375   0.010  0.00  0.00    +0.040 A 
ATOM      9  C   LIG    1        0.002  -0.004   0.002  0.00  0.00    +0.080 A 
ATOM     10  C   LIG    1        1.208  -0.682  -0.014  0.00  0.00    -0.170 A 
ATOM     11  C   LIG    1        2.402   0.017  -0.021  0.00  0.00    +0.080 A 
ATOM     12  C   LIG    1        2.397   1.396  -0.013  0.00  0.00    +0.080 A 
BRANCH  10  13
ATOM     13  C   LIG    1        1.221  -2.189  -0.022  0.00  0.00    +0.510 C 
ATOM     14  F   LIG    1        0.089  -2.669   0.646  0.00  0.00    -0.170 F 
ATOM     15  F   LIG    1        2.373  -2.649   0.624  0.00  0.00    -0.170 F 
ATOM     16  F   LIG    1        1.212  -2.649  -1.343  0.00  0.00    -0.170 F 
ENDBRANCH  10  13
ENDBRANCH   5   7
ENDBRANCH   1   2
BRANCH   1  18
ATOM     17  C   LIG    1        4.636   7.689   1.621  0.00  0.00    +0.530 C 
ATOM     18  N   LIG    1        3.620   6.838   1.381  0.00  0.00    -0.730 N 
ATOM     19  H   LIG    1        3.193   6.371   2.117  0.00  0.00    +0.400 HD
ATOM     20  O   LIG    1        5.170   8.272   0.701  0.00  0.00    -0.510 OA
BRANCH  17  21
ATOM     21  C   LIG    1        5.110   7.917   3.034  0.00  0.00    +0.200 C 
BRANCH  21  22
ATOM     22  C   LIG    1        4.170   8.901   3.734  0.00  0.00    +0.120 C 
ATOM     23  C   LIG    1        4.720   9.230   5.124  0.00  0.00    +0.000 C 
ATOM     24  C   LIG    1        3.807  10.261   5.795  0.00  0.00    +0.010 C 
ATOM     25  C   LIG    1        3.709  11.500   4.900  0.00  0.00    -0.010 C 
ATOM     26  C   LIG    1        3.199  11.083   3.518  0.00  0.00    +0.210 C 
ATOM     27  O   LIG    1        4.076  10.101   2.964  0.00  0.00    -0.370 OA
ENDBRANCH  21  22
BRANCH  21  28
ATOM     28  N   LIG    1        6.470   8.472   3.010  0.00  0.00    -0.820 NA
ATOM     29  H   LIG    1        6.835   8.573   3.946  0.00  0.00    +0.350 HD
ATOM     30  H   LIG    1        6.494   9.350   2.515  0.00  0.00    +0.360 HD
ENDBRANCH  21  28
ENDBRANCH  17  21
ENDBRANCH   1  18
TORSDOF 7
