REMARK  Name = ZINCrg000000qTQT.0
REMARK                            x       y       z     vdW  Elec       q    Type
REMARK                         _______ _______ _______ _____ _____    ______ ____
ROOT
ATOM      1  C   LIG    1        4.971   1.224  -0.370  0.00  0.00    +0.110 A 
ATOM      2  C   LIG    1        4.922  -0.158  -0.261  0.00  0.00    -0.060 A 
ATOM      3  C   LIG    1        3.721  -0.785  -0.000  0.00  0.00    +0.060 A 
ATOM      4  C   LIG    1        2.561  -0.034   0.154  0.00  0.00    +0.110 A 
ATOM      5  C   LIG    1        2.608   1.347   0.049  0.00  0.00    -0.070 A 
ATOM      6  C   LIG    1        1.373   2.192   0.217  0.00  0.00    +0.090 C 
ATOM      7  C   LIG    1        0.115   1.352  -0.007  0.00  0.00    +0.020 C 
ATOM      8  C   LIG    1        0.197   0.095   0.870  0.00  0.00    +0.280 C 
ATOM      9  N   LIG    1        1.350  -0.694   0.416  0.00  0.00    -0.550 N 
ATOM     10  C   LIG    1        1.248  -2.028   0.255  0.00  0.00    +0.520 C 
ATOM     11  O   LIG    1        2.170  -2.653  -0.226  0.00  0.00    -0.510 OA
ATOM     12  C   LIG    1        3.816   1.973  -0.211  0.00  0.00    +0.000 A 
ENDROOT
BRANCH  10  13
ATOM     13  C   LIG    1       -0.012  -2.743   0.670  0.00  0.00    +0.000 C 
ATOM     14  C   LIG    1       -0.978  -2.903  -0.527  0.00  0.00    +0.090 C 
ATOM     15  C   LIG    1       -0.645  -4.266  -1.092  0.00  0.00    +0.520 C 
ATOM     16  N   LIG    1        0.065  -4.976  -0.199  0.00  0.00    -0.600 N 
ATOM     17  O   LIG    1       -0.971  -4.660  -2.192  0.00  0.00    -0.520 OA
ATOM     18  C   LIG    1        0.282  -4.214   1.036  0.00  0.00    +0.300 C 
BRANCH  16  19
ATOM     19  C   LIG    1        0.558  -6.337  -0.429  0.00  0.00    +0.290 C 
ATOM     20  C   LIG    1       -0.621  -7.283  -0.714  0.00  0.00    +0.070 C 
ATOM     21  C   LIG    1       -0.067  -8.606  -1.281  0.00  0.00    -0.310 C 
ATOM     22  S   LIG    1        1.498  -8.150  -2.111  0.00  0.00    +2.390 S 
ATOM     23  O   LIG    1        1.348  -8.304  -3.516  0.00  0.00    -0.930 OA
ATOM     24  O   LIG    1        2.585  -8.774  -1.442  0.00  0.00    -0.930 OA
ATOM     25  C   LIG    1        1.467  -6.367  -1.685  0.00  0.00    -0.320 C 
ENDBRANCH  16  19
ENDBRANCH  10  13
BRANCH   1  27
ATOM     26  C   LIG    1        7.304   1.011  -0.776  0.00  0.00    +0.250 C 
ATOM     27  O   LIG    1        6.153   1.844  -0.629  0.00  0.00    -0.320 OA
ENDBRANCH   1  27
TORSDOF 3
