REMARK  Name = ZINCrg000000mRnv.0
REMARK                            x       y       z     vdW  Elec       q    Type
REMARK                         _______ _______ _______ _____ _____    ______ ____
ROOT
ATOM      1  S   LIG    1       -0.022   1.758   0.012  0.00  0.00    +2.690 S 
ATOM      2  O   LIG    1       -0.560   2.145   1.269  0.00  0.00    -0.950 OA
ATOM      3  O   LIG    1       -0.584   2.158  -1.231  0.00  0.00    -0.950 OA
ENDROOT
BRANCH   1  12
ATOM      4  C   LIG    1        0.096  -3.663   4.655  0.00  0.00    +0.110 C 
ATOM      5  C   LIG    1        0.072  -2.612   3.575  0.00  0.00    +0.520 C 
ATOM      6  N   LIG    1        0.064  -2.978   2.278  0.00  0.00    -0.560 N 
ATOM      7  C   LIG    1        0.077  -4.362   1.796  0.00  0.00    +0.280 C 
ATOM      8  C   LIG    1        0.061  -4.254   0.262  0.00  0.00    +0.110 C 
ATOM      9  C   LIG    1        0.039  -2.768  -0.015  0.00  0.00    -0.080 A 
ATOM     10  C   LIG    1        0.018  -2.069  -1.206  0.00  0.00    +0.040 A 
ATOM     11  C   LIG    1       -0.006  -0.687  -1.200  0.00  0.00    +0.110 A 
ATOM     12  C   LIG    1        0.002  -0.004   0.002  0.00  0.00    -0.650 A 
ATOM     13  C   LIG    1        0.023  -0.698   1.194  0.00  0.00    +0.130 A 
ATOM     14  C   LIG    1        0.041  -2.093   1.196  0.00  0.00    +0.120 A 
ATOM     15  O   LIG    1        0.059  -1.436   3.873  0.00  0.00    -0.520 OA
ENDBRANCH   1  12
BRANCH   1  16
ATOM     16  N   LIG    1        1.553   2.269  -0.001  0.00  0.00    -1.000 NA
ATOM     17  C   LIG    1        2.284   2.503   1.255  0.00  0.00    +0.270 C 
ATOM     18  C   LIG    1        2.928   3.888   1.195  0.00  0.00    +0.220 C 
ATOM     19  O   LIG    1        3.686   4.004  -0.012  0.00  0.00    -0.370 OA
ATOM     20  C   LIG    1        2.905   3.900  -1.205  0.00  0.00    +0.240 C 
ATOM     21  C   LIG    1        2.261   2.510  -1.268  0.00  0.00    +0.270 C 
BRANCH  20  22
ATOM     22  C   LIG    1        3.793   4.098  -2.406  0.00  0.00    -0.240 A 
ATOM     23  C   LIG    1        3.475   4.786  -3.527  0.00  0.00    +0.250 A 
ATOM     24  N   LIG    1        4.535   4.729  -4.360  0.00  0.00    -0.370 N 
ATOM     25  N   LIG    1        5.538   3.979  -3.731  0.00  0.00    -0.300 NA
ATOM     26  C   LIG    1        4.622   5.340  -5.688  0.00  0.00    +0.360 C 
ATOM     27  C   LIG    1        5.095   3.607  -2.557  0.00  0.00    +0.270 A 
ENDBRANCH  20  22
ENDBRANCH   1  16
TORSDOF 3
