REMARK  Name = ZINCrH00000No4Lh.0
REMARK                            x       y       z     vdW  Elec       q    Type
REMARK                         _______ _______ _______ _____ _____    ______ ____
ROOT
ATOM      1  N   LIG    1       -2.455  -0.698  -0.319  0.00  0.00    -0.560 N 
ATOM      2  C   LIG    1       -2.906  -0.956   0.923  0.00  0.00    +0.500 C 
ATOM      3  C   LIG    1       -2.905   0.470   1.400  0.00  0.00    +0.190 C 
ATOM      4  O   LIG    1       -3.211  -1.993   1.474  0.00  0.00    -0.470 OA
ATOM      5  C   LIG    1       -2.395   0.733  -0.017  0.00  0.00    +0.310 C 
ENDROOT
BRANCH   1   9
ATOM      6  C   LIG    1       -1.584  -3.027  -3.666  0.00  0.00    +0.110 A 
ATOM      7  C   LIG    1       -2.045  -3.628  -2.504  0.00  0.00    +0.020 A 
ATOM      8  C   LIG    1       -2.334  -2.857  -1.395  0.00  0.00    +0.030 A 
ATOM      9  C   LIG    1       -2.162  -1.480  -1.443  0.00  0.00    +0.140 A 
ATOM     10  C   LIG    1       -1.704  -0.879  -2.608  0.00  0.00    +0.030 A 
ATOM     11  C   LIG    1       -1.411  -1.652  -3.714  0.00  0.00    -0.040 A 
BRANCH   6  13
ATOM     12  C   LIG    1       -0.829  -3.102  -5.919  0.00  0.00    +0.250 C 
ATOM     13  O   LIG    1       -1.300  -3.787  -4.757  0.00  0.00    -0.320 OA
ENDBRANCH   6  13
ENDBRANCH   1   9
BRANCH   5  14
ATOM     14  C   LIG    1       -0.993   1.284  -0.047  0.00  0.00    -0.150 A 
ATOM     15  C   LIG    1       -0.776   2.644  -0.209  0.00  0.00    +0.090 A 
ATOM     16  C   LIG    1        0.531   3.106  -0.236  0.00  0.00    -0.030 A 
ATOM     17  C   LIG    1        1.567   2.202  -0.096  0.00  0.00    +0.270 A 
ATOM     18  N   LIG    1        1.324   0.916   0.063  0.00  0.00    -0.480 NA
ATOM     19  C   LIG    1        0.094   0.441   0.094  0.00  0.00    +0.290 A 
ENDBRANCH   5  14
BRANCH   3  20
ATOM     20  O   LIG    1       -1.954   0.746   2.430  0.00  0.00    -0.260 OA
BRANCH  20  21
ATOM     21  C   LIG    1       -2.446   1.008   3.670  0.00  0.00    +0.090 A 
ATOM     22  C   LIG    1       -3.804   0.881   3.920  0.00  0.00    -0.030 A 
ATOM     23  C   LIG    1       -4.301   1.142   5.183  0.00  0.00    +0.050 A 
ATOM     24  C   LIG    1       -3.448   1.540   6.195  0.00  0.00    +0.020 A 
ATOM     25  C   LIG    1       -2.093   1.674   5.949  0.00  0.00    +0.030 A 
ATOM     26  C   LIG    1       -1.589   1.408   4.688  0.00  0.00    +0.080 A 
ATOM     27  F   LIG    1       -0.267   1.539   4.447  0.00  0.00    -0.130 F 
ENDBRANCH  20  21
ENDBRANCH   3  20
TORSDOF 5
