REMARK  Name = ZINCrD0000075Eqs.0
REMARK                            x       y       z     vdW  Elec       q    Type
REMARK                         _______ _______ _______ _____ _____    ______ ____
ROOT
ATOM      1  O   LIG    1       -0.391   4.098   0.642  0.00  0.00    -0.570 OA
ATOM      2  C   LIG    1       -0.842   3.297   1.438  0.00  0.00    +0.710 C 
ATOM      3  N   LIG    1       -1.474   3.732   2.546  0.00  0.00    -0.680 N 
ATOM      4  H   LIG    1       -1.892   3.096   3.147  0.00  0.00    +0.410 HD
ATOM      5  N   LIG    1       -0.709   1.975   1.213  0.00  0.00    -0.740 N 
ATOM      6  H   LIG    1       -1.069   1.336   1.848  0.00  0.00    +0.400 HD
ENDROOT
BRANCH   3   7
ATOM      7  C   LIG    1       -1.527   5.101   2.830  0.00  0.00    +0.160 A 
ATOM      8  C   LIG    1       -1.632   6.023   1.796  0.00  0.00    +0.020 A 
ATOM      9  C   LIG    1       -1.684   7.372   2.082  0.00  0.00    +0.030 A 
ATOM     10  C   LIG    1       -1.632   7.812   3.394  0.00  0.00    -0.110 A 
ATOM     11  C   LIG    1       -1.671   9.216   3.959  0.00  0.00    +0.070 C 
ATOM     12  C   LIG    1       -1.141   9.085   5.403  0.00  0.00    +0.030 C 
ATOM     13  C   LIG    1       -1.489   7.623   5.753  0.00  0.00    +0.080 C 
ATOM     14  C   LIG    1       -1.528   6.896   4.426  0.00  0.00    -0.080 A 
ATOM     15  C   LIG    1       -1.481   5.542   4.145  0.00  0.00    -0.010 A 
ENDBRANCH   3   7
BRANCH   5  16
ATOM     16  C   LIG    1       -0.022   1.502   0.008  0.00  0.00    +0.400 C 
BRANCH  16  17
ATOM     17  C   LIG    1       -0.010  -0.004  -0.004  0.00  0.00    -0.170 A 
ATOM     18  C   LIG    1       -0.954  -0.776  -0.546  0.00  0.00    +0.010 A 
ATOM     19  C   LIG    1       -0.726  -2.138  -0.439  0.00  0.00    +0.170 A 
ATOM     20  C   LIG    1        0.398  -2.471   0.197  0.00  0.00    -0.790 A 
ATOM     21  S   LIG    1        1.246  -1.014   0.699  0.00  0.00    +0.240 S 
BRANCH  20  22
ATOM     22  S   LIG    1        0.948  -4.119   0.490  0.00  0.00    +2.730 S 
ATOM     23  O   LIG    1       -0.209  -4.942   0.448  0.00  0.00    -0.940 OA
ATOM     24  O   LIG    1        1.818  -4.058   1.613  0.00  0.00    -0.940 OA
BRANCH  22  25
ATOM     25  N   LIG    1        1.884  -4.561  -0.802  0.00  0.00    -1.010 NA
ATOM     26  C   LIG    1        1.400  -5.218  -2.026  0.00  0.00    +0.270 C 
ATOM     27  C   LIG    1        2.625  -5.457  -2.933  0.00  0.00    +0.030 C 
ATOM     28  C   LIG    1        3.807  -5.442  -1.928  0.00  0.00    +0.040 C 
ATOM     29  C   LIG    1        3.341  -4.367  -0.915  0.00  0.00    +0.270 C 
ENDBRANCH  22  25
ENDBRANCH  20  22
ENDBRANCH  16  17
ENDBRANCH   5  16
TORSDOF 5
