REMARK  Name = ZINCrD00000e3XKi.0
REMARK                            x       y       z     vdW  Elec       q    Type
REMARK                         _______ _______ _______ _____ _____    ______ ____
ROOT
ATOM      1  C   LIG    1       -3.445   4.272   6.311  0.00  0.00    +0.120 C 
ATOM      2  C   LIG    1       -4.533   3.484   5.569  0.00  0.00    +0.320 C 
ATOM      3  N   LIG    1       -3.495   3.039   4.627  0.00  0.00    -0.630 N 
ATOM      4  C   LIG    1       -3.459   2.648   3.337  0.00  0.00    +0.640 C 
ATOM      5  O   LIG    1       -4.483   2.614   2.683  0.00  0.00    -0.520 OA
ATOM      6  C   LIG    1       -2.517   3.202   5.712  0.00  0.00    +0.280 C 
ENDROOT
BRANCH   4   7
ATOM      7  C   LIG    1       -2.175   2.261   2.720  0.00  0.00    +0.000 A 
ATOM      8  N   LIG    1       -0.994   2.250   3.308  0.00  0.00    -0.250 NA
ATOM      9  N   LIG    1       -0.092   1.861   2.480  0.00  0.00    -0.240 N 
ATOM     10  C   LIG    1       -0.652   1.589   1.273  0.00  0.00    +0.020 A 
ATOM     11  C   LIG    1        0.068   1.107   0.040  0.00  0.00    +0.160 C 
ATOM     12  C   LIG    1       -1.978   1.837   1.384  0.00  0.00    +0.000 A 
BRANCH   9  13
ATOM     13  C   LIG    1        1.271   1.734   2.780  0.00  0.00    +0.120 A 
ATOM     14  C   LIG    1        2.017   0.712   2.207  0.00  0.00    +0.060 A 
ATOM     15  C   LIG    1        3.361   0.592   2.499  0.00  0.00    +0.020 A 
ATOM     16  C   LIG    1        3.963   1.483   3.371  0.00  0.00    +0.110 A 
ATOM     17  C   LIG    1        3.220   2.500   3.948  0.00  0.00    +0.010 A 
ATOM     18  F   LIG    1        5.278   1.361   3.660  0.00  0.00    -0.130 F 
ATOM     19  C   LIG    1        1.877   2.627   3.654  0.00  0.00    +0.080 A 
ENDBRANCH   9  13
ENDBRANCH   4   7
BRANCH   1  20
ATOM     20  C   LIG    1       -3.558   4.216   7.813  0.00  0.00    -0.110 A 
ATOM     21  C   LIG    1       -3.008   3.156   8.509  0.00  0.00    +0.020 A 
ATOM     22  C   LIG    1       -3.108   3.107   9.887  0.00  0.00    +0.010 A 
ATOM     23  C   LIG    1       -3.766   4.114  10.568  0.00  0.00    +0.010 A 
ATOM     24  C   LIG    1       -4.320   5.172   9.872  0.00  0.00    +0.010 A 
ATOM     25  C   LIG    1       -4.216   5.223   8.494  0.00  0.00    +0.030 A 
ENDBRANCH   1  20
BRANCH   1  27
ATOM     26  C   LIG    1       -2.133   6.275   6.418  0.00  0.00    +0.200 C 
ATOM     27  O   LIG    1       -3.231   5.593   5.809  0.00  0.00    -0.340 OA
ENDBRANCH   1  27
TORSDOF 4
