REMARK  Name = ZINCvU0000000Iyo.0
REMARK                            x       y       z     vdW  Elec       q    Type
REMARK                         _______ _______ _______ _____ _____    ______ ____
ROOT
ATOM      1  C   LIG    1        4.719  -0.256  -2.133  0.00  0.00    +0.500 C 
ATOM      2  O   LIG    1        3.986  -1.103  -2.607  0.00  0.00    -0.510 OA
ENDROOT
BRANCH   1   4
ATOM      3  C   LIG    1        5.696   0.151  -4.285  0.00  0.00    +0.150 C 
ATOM      4  C   LIG    1        5.636   0.434  -2.965  0.00  0.00    -0.070 C 
BRANCH   3   7
ATOM      5  C   LIG    1        7.606   1.250  -7.320  0.00  0.00    +0.100 A 
ATOM      6  C   LIG    1        6.715   0.571  -6.514  0.00  0.00    +0.000 A 
ATOM      7  C   LIG    1        6.647   0.867  -5.147  0.00  0.00    -0.080 A 
ATOM      8  C   LIG    1        7.490   1.842  -4.604  0.00  0.00    +0.050 A 
ATOM      9  C   LIG    1        8.381   2.511  -5.415  0.00  0.00    -0.030 A 
ATOM     10  C   LIG    1        8.443   2.221  -6.771  0.00  0.00    +0.120 A 
BRANCH   5  12
ATOM     11  C   LIG    1        6.785  -0.036  -9.144  0.00  0.00    +0.240 C 
ATOM     12  O   LIG    1        7.671   0.969  -8.649  0.00  0.00    -0.300 OA
ENDBRANCH   5  12
BRANCH  10  13
ATOM     13  O   LIG    1        9.323   2.885  -7.565  0.00  0.00    -0.290 OA
BRANCH  13  14
ATOM     14  C   LIG    1       10.151   3.866  -6.938  0.00  0.00    +0.380 C 
BRANCH  14  15
ATOM     15  C   LIG    1       11.035   4.478  -7.944  0.00  0.00    +0.210 C 
ATOM     16  N   LIG    1       11.716   4.950  -8.720  0.00  0.00    -0.390 NA
ENDBRANCH  14  15
ENDBRANCH  13  14
ENDBRANCH  10  13
ENDBRANCH   3   7
ENDBRANCH   1   4
BRANCH   1  17
ATOM     17  O   LIG    1        4.658   0.027  -0.815  0.00  0.00    -0.340 OA
BRANCH  17  18
ATOM     18  C   LIG    1        3.711  -0.707  -0.037  0.00  0.00    +0.230 C 
BRANCH  18  19
ATOM     19  C   LIG    1        2.396   0.029  -0.021  0.00  0.00    -0.110 A 
ATOM     20  C   LIG    1        1.208  -0.679  -0.013  0.00  0.00    +0.020 A 
ATOM     21  C   LIG    1        0.002  -0.004   0.002  0.00  0.00    +0.000 A 
ATOM     22  C   LIG    1       -0.017   1.378   0.010  0.00  0.00    +0.010 A 
ATOM     23  C   LIG    1        1.171   2.086   0.002  0.00  0.00    +0.000 A 
ATOM     24  C   LIG    1        2.377   1.411  -0.015  0.00  0.00    +0.030 A 
ENDBRANCH  18  19
BRANCH  18  25
ATOM     25  C   LIG    1        4.231  -0.853   1.395  0.00  0.00    +0.120 C 
BRANCH  25  26
ATOM     26  C   LIG    1        5.482  -1.693   1.392  0.00  0.00    -0.090 A 
ATOM     27  C   LIG    1        5.393  -3.065   1.537  0.00  0.00    +0.000 A 
ATOM     28  C   LIG    1        6.540  -3.837   1.529  0.00  0.00    +0.000 A 
ATOM     29  C   LIG    1        7.776  -3.236   1.388  0.00  0.00    +0.000 A 
ATOM     30  C   LIG    1        7.866  -1.863   1.248  0.00  0.00    +0.000 A 
ATOM     31  C   LIG    1        6.718  -1.092   1.250  0.00  0.00    +0.020 A 
ENDBRANCH  25  26
ENDBRANCH  18  25
ENDBRANCH  17  18
ENDBRANCH   1  17
TORSDOF 11
