REMARK  Name = ZINCpe000000TTH2.0
REMARK                            x       y       z     vdW  Elec       q    Type
REMARK                         _______ _______ _______ _____ _____    ______ ____
ROOT
ATOM      1  C   LIG    1       -2.990   1.468   2.469  0.00  0.00    +0.170 C 
ATOM      2  C   LIG    1       -2.607   0.040   2.891  0.00  0.00    -0.010 C 
ATOM      3  C   LIG    1       -2.482  -0.287   1.393  0.00  0.00    +0.170 C 
ATOM      4  C   LIG    1       -2.213   1.206   1.172  0.00  0.00    -0.060 C 
ATOM      5  C   LIG    1       -0.731   1.579   1.265  0.00  0.00    +0.060 C 
ATOM      6  C   LIG    1       -0.012   1.082   0.006  0.00  0.00    +0.300 C 
ATOM      7  N   LIG    1       -0.729   1.575  -1.177  0.00  0.00    -0.620 N 
ATOM      8  C   LIG    1       -2.159   1.273  -1.321  0.00  0.00    +0.270 C 
ATOM      9  C   LIG    1       -0.084   2.294  -2.118  0.00  0.00    +0.710 C 
ATOM     10  N   LIG    1       -0.723   2.651  -3.249  0.00  0.00    -0.750 N 
ATOM     11  H   LIG    1       -1.667   2.455  -3.355  0.00  0.00    +0.400 HD
ATOM     12  O   LIG    1        1.075   2.619  -1.946  0.00  0.00    -0.590 OA
ATOM     13  C   LIG    1       -2.896   1.772  -0.072  0.00  0.00    +0.050 C 
ENDROOT
BRANCH   3  14
ATOM     14  O   LIG    1       -3.702  -0.743   0.803  0.00  0.00    -0.550 OA
ATOM     15  H   LIG    1       -3.877  -1.684   0.939  0.00  0.00    +0.380 HD
ENDBRANCH   3  14
BRANCH   1  16
ATOM     16  O   LIG    1       -2.410   2.484   3.289  0.00  0.00    -0.370 OA
BRANCH  16  18
ATOM     17  C   LIG    1       -2.628   4.263   4.910  0.00  0.00    +0.040 C 
ATOM     18  C   LIG    1       -3.358   3.208   4.076  0.00  0.00    +0.160 C 
ENDBRANCH  16  18
ENDBRANCH   1  16
BRANCH  10  19
ATOM     19  C   LIG    1        0.007   3.337  -4.318  0.00  0.00    +0.420 C 
BRANCH  19  20
ATOM     20  C   LIG    1       -0.930   3.624  -5.463  0.00  0.00    -0.000 A 
ATOM     21  C   LIG    1       -1.672   4.744  -5.611  0.00  0.00    -0.030 A 
ATOM     22  C   LIG    1       -2.397   4.604  -6.804  0.00  0.00    +0.050 A 
ATOM     23  C   LIG    1       -2.057   3.390  -7.331  0.00  0.00    -0.070 A 
ATOM     24  O   LIG    1       -1.161   2.813  -6.504  0.00  0.00    -0.160 OA
BRANCH  23  25
ATOM     25  C   LIG    1       -2.572   2.817  -8.579  0.00  0.00    +0.610 C 
ATOM     26  O   LIG    1       -3.378   3.438  -9.246  0.00  0.00    -0.520 OA
ATOM     27  N   LIG    1       -2.152   1.603  -8.986  0.00  0.00    -0.840 N 
ATOM     28  H   LIG    1       -2.492   1.225  -9.812  0.00  0.00    +0.410 HD
ATOM     29  H   LIG    1       -1.509   1.109  -8.454  0.00  0.00    +0.410 HD
ENDBRANCH  23  25
ENDBRANCH  19  20
ENDBRANCH  10  19
TORSDOF 6
