REMARK  Name = ZINCpk000000pGTP.0
REMARK                            x       y       z     vdW  Elec       q    Type
REMARK                         _______ _______ _______ _____ _____    ______ ____
ROOT
ATOM      1  N   LIG    1       -5.000   2.648   5.104  0.00  0.00    -0.560 N 
ATOM      2  C   LIG    1       -4.907   3.933   4.742  0.00  0.00    +0.530 C 
ATOM      3  C   LIG    1       -3.455   4.274   4.484  0.00  0.00    +0.110 C 
ATOM      4  C   LIG    1       -2.718   2.949   4.763  0.00  0.00    +0.060 C 
ATOM      5  O   LIG    1       -5.838   4.702   4.638  0.00  0.00    -0.480 OA
ATOM      6  C   LIG    1       -3.827   1.996   5.151  0.00  0.00    +0.540 C 
ATOM      7  O   LIG    1       -3.679   0.832   5.454  0.00  0.00    -0.460 OA
ENDROOT
BRANCH   4   8
ATOM      8  C   LIG    1       -2.012   2.464   3.522  0.00  0.00    -0.090 A 
ATOM      9  C   LIG    1       -0.646   2.251   3.543  0.00  0.00    +0.040 A 
ATOM     10  C   LIG    1        0.001   1.806   2.405  0.00  0.00    +0.010 A 
ATOM     11  C   LIG    1       -0.718   1.572   1.248  0.00  0.00    -0.080 A 
ATOM     12  C   LIG    1       -2.083   1.789   1.226  0.00  0.00    +0.000 A 
ATOM     13  C   LIG    1       -0.013   1.086   0.008  0.00  0.00    +0.090 C 
ATOM     14  C   LIG    1       -2.731   2.231   2.365  0.00  0.00    +0.020 A 
ENDBRANCH   4   8
BRANCH   1  15
ATOM     15  C   LIG    1       -6.276   2.005   5.425  0.00  0.00    +0.340 C 
BRANCH  15  21
ATOM     16  C   LIG    1      -10.102   0.653   2.917  0.00  0.00    +0.140 C 
ATOM     17  C   LIG    1       -8.648   0.177   3.018  0.00  0.00    +0.260 C 
ATOM     18  N   LIG    1       -8.050   0.765   4.227  0.00  0.00    -0.610 N 
ATOM     19  C   LIG    1       -8.777   0.621   5.498  0.00  0.00    +0.250 C 
ATOM     20  C   LIG    1      -10.227   1.079   5.276  0.00  0.00    +0.220 C 
ATOM     21  C   LIG    1       -6.868   1.411   4.173  0.00  0.00    +0.510 C 
ATOM     22  O   LIG    1       -6.282   1.515   3.116  0.00  0.00    -0.520 OA
ATOM     23  O   LIG    1      -10.771   0.385   4.151  0.00  0.00    -0.370 OA
BRANCH  16  25
ATOM     24  C   LIG    1      -12.217   0.471   1.599  0.00  0.00    +0.020 C 
ATOM     25  C   LIG    1      -10.806  -0.092   1.781  0.00  0.00    +0.030 C 
ENDBRANCH  16  25
ENDBRANCH  15  21
ENDBRANCH   1  15
TORSDOF 4
