REMARK  Name = ZINCb80000002tW2.0
REMARK                            x       y       z     vdW  Elec       q    Type
REMARK                         _______ _______ _______ _____ _____    ______ ____
ROOT
ATOM      1  C   LIG    1       -0.013   1.086   0.008  0.00  0.00    +0.190 C 
ATOM      2  C   LIG    1       -0.763   1.592  -1.229  0.00  0.00    +0.150 C 
ATOM      3  S   LIG    1        0.067   0.944  -2.712  0.00  0.00    -0.240 S 
ATOM      4  C   LIG    1        1.798   1.413  -2.410  0.00  0.00    +0.120 C 
ATOM      5  C   LIG    1        2.195   0.932  -1.011  0.00  0.00    +0.210 C 
ATOM      6  N   LIG    1        1.362   1.591  -0.002  0.00  0.00    -0.680 NA
ATOM      7  H   LIG    1        1.780   1.522   0.913  0.00  0.00    +0.360 HD
ENDROOT
BRANCH   1   8
ATOM      8  C   LIG    1       -0.715   1.570   1.250  0.00  0.00    +0.460 C 
ATOM      9  O   LIG    1       -0.290   2.530   1.849  0.00  0.00    -0.490 OA
BRANCH   8  10
ATOM     10  O   LIG    1       -1.813   0.936   1.691  0.00  0.00    -0.360 OA
BRANCH  10  12
ATOM     11  C   LIG    1       -3.664   0.612   3.240  0.00  0.00    +0.070 C 
ATOM     12  C   LIG    1       -2.437   1.458   2.894  0.00  0.00    +0.200 C 
ENDBRANCH  10  12
ENDBRANCH   8  10
ENDBRANCH   1   8
TORSDOF 3
