REMARK  Name = ZINCrg000000p9rW.0
REMARK                            x       y       z     vdW  Elec       q    Type
REMARK                         _______ _______ _______ _____ _____    ______ ____
ROOT
ATOM      1  C   LIG    1        1.720  -0.447   5.811  0.00  0.00    +0.350 C 
ENDROOT
BRANCH   1   5
ATOM      2  C   LIG    1       -0.099   1.061   2.358  0.00  0.00    +0.500 A 
ATOM      3  N   LIG    1        0.952   0.264   2.240  0.00  0.00    -0.550 NA
ATOM      4  C   LIG    1        1.554  -0.225   3.311  0.00  0.00    +0.370 A 
ATOM      5  C   LIG    1        1.065   0.096   4.568  0.00  0.00    -0.250 A 
ATOM      6  C   LIG    1       -0.040   0.928   4.655  0.00  0.00    +0.370 A 
ATOM      7  N   LIG    1       -0.592   1.388   3.545  0.00  0.00    -0.530 NA
BRANCH   2  12
ATOM      8  C   LIG    1       -1.445   3.591  -2.413  0.00  0.00    +0.190 C 
ATOM      9  N   LIG    1       -0.806   3.062  -1.200  0.00  0.00    -0.550 NA
ATOM     10  C   LIG    1       -0.754   1.593  -1.231  0.00  0.00    +0.190 C 
ATOM     11  C   LIG    1       -0.013   1.086   0.008  0.00  0.00    +0.220 C 
ATOM     12  N   LIG    1       -0.701   1.560   1.216  0.00  0.00    -0.460 N 
ATOM     13  C   LIG    1       -0.754   3.029   1.247  0.00  0.00    +0.230 C 
ATOM     14  C   LIG    1       -1.495   3.536   0.008  0.00  0.00    +0.190 C 
ENDBRANCH   2  12
ENDBRANCH   1   5
BRANCH   1  15
ATOM     15  N   LIG    1        1.100  -1.725   6.171  0.00  0.00    -0.730 N 
ATOM     16  H   LIG    1        0.381  -2.085   5.628  0.00  0.00    +0.400 HD
BRANCH  15  17
ATOM     17  C   LIG    1        1.542  -2.422   7.294  0.00  0.00    +0.380 A 
ATOM     18  C   LIG    1        2.572  -1.898   8.066  0.00  0.00    -0.080 A 
ATOM     19  C   LIG    1        3.003  -2.598   9.179  0.00  0.00    +0.090 A 
ATOM     20  C   LIG    1        2.384  -3.808   9.483  0.00  0.00    -0.000 A 
ATOM     21  C   LIG    1        1.362  -4.269   8.666  0.00  0.00    +0.270 A 
ATOM     22  N   LIG    1        0.972  -3.572   7.615  0.00  0.00    -0.520 NA
BRANCH  20  23
ATOM     23  N   LIG    1        2.788  -4.551  10.600  0.00  0.00    -0.480 N 
ATOM     24  C   LIG    1        4.225  -4.854  10.539  0.00  0.00    +0.160 C 
ATOM     25  C   LIG    1        4.635  -5.613  11.803  0.00  0.00    +0.220 C 
ATOM     26  O   LIG    1        3.837  -6.793  11.925  0.00  0.00    -0.380 OA
ATOM     27  C   LIG    1        2.432  -6.535  11.988  0.00  0.00    +0.220 C 
ATOM     28  C   LIG    1        2.000  -5.785  10.725  0.00  0.00    +0.160 C 
ENDBRANCH  20  23
ENDBRANCH  15  17
ENDBRANCH   1  15
TORSDOF 5
