REMARK  Name = ZINCrD00000hQ4DW.0
REMARK                            x       y       z     vdW  Elec       q    Type
REMARK                         _______ _______ _______ _____ _____    ______ ____
ROOT
ATOM      1  C   LIG    1        2.657   5.321   0.517  0.00  0.00    +0.240 C 
ATOM      2  C   LIG    1        3.886   6.168   0.833  0.00  0.00    +0.020 C 
ATOM      3  C   LIG    1        3.582   7.544   1.255  0.00  0.00    +0.030 C 
ATOM      4  C   LIG    1        2.871   8.312   0.113  0.00  0.00    +0.270 C 
ATOM      5  N   LIG    1        1.526   7.805  -0.048  0.00  0.00    -0.590 N 
ATOM      6  C   LIG    1        1.196   6.699  -0.968  0.00  0.00    +0.280 C 
ATOM      7  C   LIG    1        0.534   8.365   0.671  0.00  0.00    +0.580 C 
ATOM      8  O   LIG    1       -0.621   8.033   0.477  0.00  0.00    -0.540 OA
ATOM      9  C   LIG    1        2.235   5.565  -0.910  0.00  0.00    +0.010 C 
ENDROOT
BRANCH   7  10
ATOM     10  C   LIG    1        0.846   9.376   1.688  0.00  0.00    -0.050 A 
ATOM     11  C   LIG    1        2.105   9.736   2.120  0.00  0.00    +0.000 A 
ATOM     12  C   LIG    1        1.938  10.731   3.087  0.00  0.00    -0.070 A 
ATOM     13  C   LIG    1        0.609  10.950   3.233  0.00  0.00    +0.180 A 
ATOM     14  N   LIG    1       -0.065  10.133   2.388  0.00  0.00    -0.380 N 
BRANCH  14  15
ATOM     15  C   LIG    1       -1.522  10.067   2.244  0.00  0.00    +0.210 C 
ATOM     16  C   LIG    1       -2.358  11.049   3.067  0.00  0.00    +0.030 C 
ATOM     17  C   LIG    1       -2.328   9.566   3.443  0.00  0.00    +0.040 C 
ENDBRANCH  14  15
ENDBRANCH   7  10
BRANCH   1  18
ATOM     18  N   LIG    1        2.982   3.904   0.696  0.00  0.00    -0.740 N 
ATOM     19  H   LIG    1        3.900   3.603   0.615  0.00  0.00    +0.400 HD
BRANCH  18  23
ATOM     20  C   LIG    1       -0.067   1.254   1.533  0.00  0.00    +0.350 A 
ATOM     21  C   LIG    1        1.230   0.760   1.436  0.00  0.00    -0.060 A 
ATOM     22  C   LIG    1        2.265   1.633   1.154  0.00  0.00    +0.020 A 
ATOM     23  C   LIG    1        1.966   2.984   0.983  0.00  0.00    +0.110 A 
ATOM     24  C   LIG    1        0.650   3.405   1.099  0.00  0.00    +0.230 A 
ATOM     25  N   LIG    1       -0.313   2.544   1.369  0.00  0.00    -0.500 NA
BRANCH  20  27
ATOM     26  C   LIG    1       -0.841  -1.026   2.107  0.00  0.00    +0.290 C 
ATOM     27  N   LIG    1       -1.117   0.382   1.811  0.00  0.00    -0.630 N 
ATOM     28  C   LIG    1       -2.497   0.872   1.806  0.00  0.00    +0.290 C 
ENDBRANCH  20  27
ENDBRANCH  18  23
ENDBRANCH   1  18
TORSDOF 5
