REMARK  Name = ZINCpe00000WUKst.0
REMARK                            x       y       z     vdW  Elec       q    Type
REMARK                         _______ _______ _______ _____ _____    ______ ____
ROOT
ATOM      1  C   LIG    1       -1.526   2.776  -1.347  0.00  0.00    -0.020 C 
ATOM      2  C   LIG    1       -1.079   1.313  -1.307  0.00  0.00    +0.020 C 
ATOM      3  C   LIG    1       -0.197   1.086  -0.074  0.00  0.00    +0.280 C 
ATOM      4  N   LIG    1       -0.929   1.526   1.121  0.00  0.00    -0.590 N 
ATOM      5  C   LIG    1       -1.485   2.886   1.148  0.00  0.00    +0.290 C 
ATOM      6  C   LIG    1       -1.091   0.697   2.171  0.00  0.00    +0.600 C 
ATOM      7  O   LIG    1       -0.746  -0.466   2.086  0.00  0.00    -0.530 OA
ATOM      8  C   LIG    1       -2.352   3.093  -0.098  0.00  0.00    +0.010 C 
ENDROOT
BRANCH   6   9
ATOM      9  C   LIG    1       -1.686   1.200   3.424  0.00  0.00    +0.010 A 
ATOM     10  C   LIG    1       -2.033   0.443   4.506  0.00  0.00    +0.190 A 
ATOM     11  N   LIG    1       -2.542   1.293   5.443  0.00  0.00    -0.370 N 
ATOM     12  C   LIG    1       -3.036   1.086   6.700  0.00  0.00    +0.270 A 
ATOM     13  C   LIG    1       -3.493   2.117   7.438  0.00  0.00    +0.000 A 
ATOM     14  C   LIG    1       -3.469   3.426   6.921  0.00  0.00    +0.130 A 
ATOM     15  C   LIG    1       -2.979   3.648   5.670  0.00  0.00    +0.050 A 
ATOM     16  F   LIG    1       -3.928   4.458   7.663  0.00  0.00    -0.120 F 
ATOM     17  C   LIG    1       -2.504   2.558   4.911  0.00  0.00    +0.250 A 
ATOM     18  N   LIG    1       -1.987   2.484   3.696  0.00  0.00    -0.460 NA
ENDBRANCH   6   9
BRANCH   1  19
ATOM     19  C   LIG    1       -2.378   3.014  -2.595  0.00  0.00    +0.260 C 
BRANCH  19  21
ATOM     20  C   LIG    1       -3.455   4.885  -3.725  0.00  0.00    +0.480 C 
ATOM     21  N   LIG    1       -2.707   4.438  -2.697  0.00  0.00    -0.730 N 
ATOM     22  H   LIG    1       -2.386   5.059  -2.025  0.00  0.00    +0.400 HD
ATOM     23  O   LIG    1       -3.856   4.108  -4.566  0.00  0.00    -0.530 OA
BRANCH  20  25
ATOM     24  C   LIG    1       -4.681   6.754  -2.651  0.00  0.00    +0.040 C 
ATOM     25  C   LIG    1       -3.793   6.350  -3.830  0.00  0.00    +0.210 C 
BRANCH  25  26
ATOM     26  O   LIG    1       -4.489   6.591  -5.055  0.00  0.00    -0.540 OA
ATOM     27  H   LIG    1       -5.318   6.100  -5.140  0.00  0.00    +0.390 HD
ENDBRANCH  25  26
ENDBRANCH  20  25
ENDBRANCH  19  21
ENDBRANCH   1  19
TORSDOF 5
