REMARK  Name = ZINCrg000000nMk4.0
REMARK                            x       y       z     vdW  Elec       q    Type
REMARK                         _______ _______ _______ _____ _____    ______ ____
ROOT
ATOM      1  C   LIG    1       -3.636  -2.742   1.199  0.00  0.00    +0.170 A 
ATOM      2  N   LIG    1       -2.982  -3.107   0.119  0.00  0.00    -0.290 NA
ATOM      3  N   LIG    1       -3.414  -4.244  -0.295  0.00  0.00    -0.250 NA
ATOM      4  C   LIG    1       -4.371  -4.675   0.493  0.00  0.00    +0.200 A 
ATOM      5  N   LIG    1       -4.539  -3.729   1.478  0.00  0.00    -0.300 N 
ENDROOT
BRANCH   4   6
ATOM      6  C   LIG    1       -5.122  -5.940   0.353  0.00  0.00    -0.030 A 
ATOM      7  C   LIG    1       -6.306  -6.135   1.067  0.00  0.00    +0.000 A 
ATOM      8  C   LIG    1       -7.005  -7.316   0.928  0.00  0.00    +0.020 A 
ATOM      9  C   LIG    1       -6.529  -8.311   0.092  0.00  0.00    -0.070 A 
ATOM     10  C   LIG    1       -5.354  -8.126  -0.614  0.00  0.00    +0.020 A 
ATOM     11  C   LIG    1       -7.295  -9.601  -0.051  0.00  0.00    +0.100 C 
ATOM     12  C   LIG    1       -4.648  -6.947  -0.488  0.00  0.00    +0.070 A 
ENDBRANCH   4   6
BRANCH   5  13
ATOM     13  N   LIG    1       -5.425  -3.767   2.517  0.00  0.00    -0.590 N 
ATOM     14  H   LIG    1       -5.563  -4.713   2.839  0.00  0.00    +0.380 HD
ATOM     15  H   LIG    1       -6.302  -3.340   2.260  0.00  0.00    +0.370 HD
ENDBRANCH   5  13
BRANCH   1  16
ATOM     16  S   LIG    1       -3.390  -1.260   2.119  0.00  0.00    +0.120 S 
BRANCH  16  17
ATOM     17  C   LIG    1       -2.061  -0.505   1.150  0.00  0.00    +0.100 C 
BRANCH  17  19
ATOM     18  N   LIG    1       -0.698   1.558   1.213  0.00  0.00    -0.600 N 
ATOM     19  C   LIG    1       -1.675   0.814   1.769  0.00  0.00    +0.540 C 
ATOM     20  O   LIG    1       -2.242   1.205   2.767  0.00  0.00    -0.510 OA
BRANCH  18  21
ATOM     21  C   LIG    1       -0.323   2.840   1.815  0.00  0.00    +0.280 C 
ATOM     22  C   LIG    1        0.169   2.612   3.255  0.00  0.00    +0.070 C 
ATOM     23  C   LIG    1        0.228   4.006   3.930  0.00  0.00    -0.310 C 
ATOM     24  S   LIG    1       -1.324   4.794   3.355  0.00  0.00    +2.400 S 
ATOM     25  O   LIG    1       -1.058   6.138   2.978  0.00  0.00    -0.940 OA
ATOM     26  O   LIG    1       -2.366   4.510   4.278  0.00  0.00    -0.920 OA
ATOM     27  C   LIG    1       -1.550   3.772   1.856  0.00  0.00    -0.330 C 
ENDBRANCH  18  21
BRANCH  18  29
ATOM     28  C   LIG    1       -0.753   1.593  -1.232  0.00  0.00    +0.010 C 
ATOM     29  C   LIG    1       -0.013   1.086   0.008  0.00  0.00    +0.280 C 
ENDBRANCH  18  29
ENDBRANCH  17  19
ENDBRANCH  16  17
ENDBRANCH   1  16
TORSDOF 7
