REMARK  Name = ZINCrD00000734xX.0
REMARK                            x       y       z     vdW  Elec       q    Type
REMARK                         _______ _______ _______ _____ _____    ______ ____
ROOT
ATOM      1  C   LIG    1       -1.341  -6.655   0.951  0.00  0.00    +0.250 C 
ENDROOT
BRANCH   1   2
ATOM      2  C   LIG    1       -1.354  -5.278   1.563  0.00  0.00    +0.430 C 
ATOM      3  O   LIG    1       -1.345  -5.151   2.770  0.00  0.00    -0.440 OA
BRANCH   2   7
ATOM      4  N   LIG    1       -1.413  -1.998   0.005  0.00  0.00    -0.430 N 
ATOM      5  C   LIG    1       -1.419  -2.771  -1.120  0.00  0.00    +0.010 A 
ATOM      6  C   LIG    1       -1.393  -4.067  -0.766  0.00  0.00    +0.000 A 
ATOM      7  C   LIG    1       -1.378  -4.094   0.703  0.00  0.00    -0.260 A 
ATOM      8  C   LIG    1       -1.448  -2.253  -2.535  0.00  0.00    +0.130 C 
ATOM      9  C   LIG    1       -1.393  -2.771   1.105  0.00  0.00    +0.120 A 
ATOM     10  C   LIG    1       -1.386  -2.281   2.530  0.00  0.00    +0.150 C 
BRANCH   4  11
ATOM     11  C   LIG    1       -1.433  -0.534   0.013  0.00  0.00    +0.300 C 
BRANCH  11  12
ATOM     12  C   LIG    1        0.002  -0.004   0.002  0.00  0.00    +0.170 C 
BRANCH  12  14
ATOM     13  C   LIG    1        1.280   2.024   0.001  0.00  0.00    +0.210 C 
ATOM     14  O   LIG    1       -0.017   1.425   0.010  0.00  0.00    -0.390 OA
ENDBRANCH  12  14
ENDBRANCH  11  12
ENDBRANCH   4  11
ENDBRANCH   2   7
ENDBRANCH   1   2
BRANCH   1  15
ATOM     15  O   LIG    1       -1.318  -7.654   2.004  0.00  0.00    -0.310 OA
BRANCH  15  16
ATOM     16  C   LIG    1       -1.304  -8.945   1.623  0.00  0.00    +0.520 C 
ATOM     17  O   LIG    1       -1.311  -9.229   0.442  0.00  0.00    -0.490 OA
BRANCH  16  18
ATOM     18  C   LIG    1       -1.280 -10.019   2.643  0.00  0.00    +0.120 A 
ATOM     19  N   LIG    1       -1.268  -9.693   3.921  0.00  0.00    -0.410 NA
ATOM     20  C   LIG    1       -1.252 -10.626   4.873  0.00  0.00    +0.120 A 
ATOM     21  C   LIG    1       -1.244 -10.270   6.236  0.00  0.00    +0.060 A 
ATOM     22  C   LIG    1       -1.222 -11.243   7.186  0.00  0.00    +0.040 A 
ATOM     23  C   LIG    1       -1.207 -12.592   6.836  0.00  0.00    +0.030 A 
ATOM     24  C   LIG    1       -1.214 -12.975   5.529  0.00  0.00    +0.030 A 
ATOM     25  C   LIG    1       -1.237 -12.000   4.519  0.00  0.00    -0.080 A 
ATOM     26  C   LIG    1       -1.244 -12.358   3.158  0.00  0.00    +0.090 A 
ATOM     27  C   LIG    1       -1.266 -11.359   2.228  0.00  0.00    +0.030 A 
ENDBRANCH  16  18
ENDBRANCH  15  16
ENDBRANCH   1  15
TORSDOF 8
