REMARK  Name = ZINCrH00000tj1ml.0
REMARK                            x       y       z     vdW  Elec       q    Type
REMARK                         _______ _______ _______ _____ _____    ______ ____
ROOT
ATOM      1  C   LIG    1        3.824  -6.535  -0.074  0.00  0.00    -0.670 A 
ATOM      2  C   LIG    1        2.482  -6.202  -0.058  0.00  0.00    +0.130 A 
ATOM      3  C   LIG    1        2.097  -4.877  -0.046  0.00  0.00    +0.060 A 
ATOM      4  C   LIG    1        3.065  -3.873  -0.050  0.00  0.00    +0.030 A 
ATOM      5  C   LIG    1        4.418  -4.215  -0.072  0.00  0.00    +0.030 A 
ATOM      6  C   LIG    1        4.789  -5.544  -0.077  0.00  0.00    +0.140 A 
ENDROOT
BRANCH   4   7
ATOM      7  C   LIG    1        2.660  -2.450  -0.038  0.00  0.00    +0.140 A 
ATOM      8  N   LIG    1        1.439  -2.032  -0.024  0.00  0.00    -0.440 NA
ATOM      9  C   LIG    1        1.228  -0.705  -0.014  0.00  0.00    +0.080 A 
ATOM     10  C   LIG    1        0.002  -0.004   0.002  0.00  0.00    +0.080 A 
ATOM     11  C   LIG    1       -0.016   1.357   0.009  0.00  0.00    +0.030 A 
ATOM     12  C   LIG    1        1.166   2.084   0.002  0.00  0.00    +0.050 A 
ATOM     13  C   LIG    1        2.377   1.428  -0.013  0.00  0.00    +0.050 A 
ATOM     14  C   LIG    1        2.416   0.035  -0.021  0.00  0.00    -0.170 A 
ATOM     15  S   LIG    1        3.772  -1.089  -0.041  0.00  0.00    +0.080 S 
ENDBRANCH   4   7
BRANCH   1  16
ATOM     16  S   LIG    1        4.307  -8.230  -0.089  0.00  0.00    +2.690 S 
ATOM     17  O   LIG    1        3.221  -8.962   0.462  0.00  0.00    -0.940 OA
ATOM     18  O   LIG    1        5.625  -8.276   0.441  0.00  0.00    -0.940 OA
BRANCH  16  19
ATOM     19  N   LIG    1        4.426  -8.691  -1.675  0.00  0.00    -0.990 NA
BRANCH  19  20
ATOM     20  C   LIG    1        5.698  -8.548  -2.387  0.00  0.00    +0.320 C 
BRANCH  20  21
ATOM     21  C   LIG    1        6.469  -9.868  -2.325  0.00  0.00    +0.190 C 
BRANCH  21  23
ATOM     22  N   LIG    1        8.734  -9.612  -3.593  0.00  0.00    -0.420 NA
ATOM     23  C   LIG    1        7.747  -9.723  -3.041  0.00  0.00    +0.200 C 
ENDBRANCH  21  23
ENDBRANCH  20  21
ENDBRANCH  19  20
BRANCH  19  24
ATOM     24  C   LIG    1        3.258  -9.244  -2.366  0.00  0.00    +0.320 C 
BRANCH  24  25
ATOM     25  C   LIG    1        2.539  -8.126  -3.125  0.00  0.00    +0.180 C 
BRANCH  25  26
ATOM     26  C   LIG    1        1.365  -8.681  -3.820  0.00  0.00    +0.200 C 
ATOM     27  N   LIG    1        0.460  -9.109  -4.356  0.00  0.00    -0.420 NA
ENDBRANCH  25  26
ENDBRANCH  24  25
ENDBRANCH  19  24
ENDBRANCH  16  19
ENDBRANCH   1  16
TORSDOF 9
