REMARK  Name = ZINCvU00000003QV.0
REMARK                            x       y       z     vdW  Elec       q    Type
REMARK                         _______ _______ _______ _____ _____    ______ ____
ROOT
ATOM      1  C   LIG    1        3.602   1.689  -3.601  0.00  0.00    +0.080 C 
ATOM      2  C   LIG    1        4.484   2.114  -2.425  0.00  0.00    +0.190 C 
ENDROOT
BRANCH   2   3
ATOM      3  C   LIG    1        5.401   0.979  -2.049  0.00  0.00    +0.520 C 
ATOM      4  N   LIG    1        6.343   0.558  -2.917  0.00  0.00    -0.670 N 
ATOM      5  H   LIG    1        6.486   1.038  -3.747  0.00  0.00    +0.420 HD
ATOM      6  O   LIG    1        5.292   0.443  -0.966  0.00  0.00    -0.480 OA
BRANCH   4   7
ATOM      7  C   LIG    1        7.115  -0.571  -2.618  0.00  0.00    +0.160 A 
ATOM      8  C   LIG    1        6.558  -1.627  -1.911  0.00  0.00    +0.100 A 
ATOM      9  C   LIG    1        7.321  -2.743  -1.623  0.00  0.00    -0.160 A 
ATOM     10  C   LIG    1        8.642  -2.803  -2.028  0.00  0.00    +0.080 A 
ATOM     11  C   LIG    1        9.202  -1.750  -2.728  0.00  0.00    +0.060 A 
ATOM     12  C   LIG    1        8.443  -0.634  -3.025  0.00  0.00    -0.040 A 
ATOM     13 CL   LIG    1        9.147   0.688  -3.903  0.00  0.00    -0.040 Cl
BRANCH   9  14
ATOM     14  C   LIG    1        6.715  -3.893  -0.861  0.00  0.00    +0.510 C 
ATOM     15  F   LIG    1        5.629  -4.407  -1.578  0.00  0.00    -0.170 F 
ATOM     16  F   LIG    1        6.277  -3.444   0.390  0.00  0.00    -0.170 F 
ATOM     17  F   LIG    1        7.675  -4.895  -0.687  0.00  0.00    -0.170 F 
ENDBRANCH   9  14
ENDBRANCH   4   7
ENDBRANCH   2   3
BRANCH   2  18
ATOM     18  O   LIG    1        3.645   2.454  -1.290  0.00  0.00    -0.320 OA
BRANCH  18  19
ATOM     19  C   LIG    1        3.247   3.732  -1.188  0.00  0.00    +0.480 C 
ATOM     20  O   LIG    1        3.587   4.539  -2.020  0.00  0.00    -0.490 OA
BRANCH  19  21
ATOM     21  C   LIG    1        2.374   4.160  -0.036  0.00  0.00    -0.010 C 
ATOM     22  C   LIG    1        3.119   3.947   1.298  0.00  0.00    +0.060 C 
ATOM     23  C   LIG    1        3.742   5.331   1.611  0.00  0.00    +0.020 C 
ATOM     24  C   LIG    1        2.641   6.315   1.143  0.00  0.00    +0.020 C 
ATOM     25  C   LIG    1        2.071   5.665  -0.135  0.00  0.00    +0.060 C 
BRANCH  21  26
ATOM     26  C   LIG    1        1.089   3.373  -0.042  0.00  0.00    -0.040 A 
ATOM     27  C   LIG    1        0.815   2.505  -1.082  0.00  0.00    +0.010 A 
ATOM     28  C   LIG    1       -0.363   1.782  -1.088  0.00  0.00    +0.060 A 
ATOM     29  C   LIG    1       -1.266   1.922  -0.052  0.00  0.00    -0.010 A 
ATOM     30  C   LIG    1       -0.995   2.795   0.988  0.00  0.00    +0.110 A 
ATOM     31  F   LIG    1       -1.879   2.937   2.000  0.00  0.00    -0.140 F 
ATOM     32  C   LIG    1        0.185   3.519   0.994  0.00  0.00    +0.000 A 
ENDBRANCH  21  26
ENDBRANCH  19  21
ENDBRANCH  18  19
ENDBRANCH   2  18
TORSDOF 7
