REMARK  Name = ZINCnE00000rhofz.1
REMARK                            x       y       z     vdW  Elec       q    Type
REMARK                         _______ _______ _______ _____ _____    ______ ____
ROOT
ATOM      1  C   LIG    1       -3.299   1.719   2.880  0.00  0.00    +0.270 C 
ATOM      2  N   LIG    1       -2.200   1.074   3.601  0.00  0.00    -0.620 N 
ATOM      3  C   LIG    1       -2.417  -0.073   4.275  0.00  0.00    +0.660 C 
ATOM      4  N   LIG    1       -3.646  -0.626   4.285  0.00  0.00    -0.680 NA
ATOM      5  O   LIG    1       -1.505  -0.609   4.873  0.00  0.00    -0.610 OA
ENDROOT
BRANCH   4   6
ATOM      6  C   LIG    1       -3.870  -1.805   4.978  0.00  0.00    +0.420 A 
ATOM      7  N   LIG    1       -2.972  -2.452   5.637  0.00  0.00    -0.560 NA
ATOM      8  C   LIG    1       -3.345  -3.585   6.265  0.00  0.00    +0.220 A 
ATOM      9  C   LIG    1       -2.560  -4.461   7.045  0.00  0.00    -0.030 A 
ATOM     10  C   LIG    1       -3.118  -5.583   7.607  0.00  0.00    +0.150 A 
ATOM     11  C   LIG    1       -4.463  -5.874   7.416  0.00  0.00    -0.100 A 
ATOM     12  C   LIG    1       -5.248  -5.032   6.658  0.00  0.00    +0.200 A 
ATOM     13  F   LIG    1       -6.556  -5.314   6.474  0.00  0.00    -0.140 F 
ATOM     14  F   LIG    1       -2.353  -6.412   8.351  0.00  0.00    -0.140 F 
ATOM     15  C   LIG    1       -4.697  -3.888   6.081  0.00  0.00    -0.280 A 
ATOM     16  S   LIG    1       -5.417  -2.634   5.076  0.00  0.00    +0.000 S 
ENDBRANCH   4   6
BRANCH   2  17
ATOM     17  C   LIG    1       -0.864   1.675   3.590  0.00  0.00    +0.300 C 
BRANCH  17  18
ATOM     18  C   LIG    1       -0.068   1.127   2.404  0.00  0.00    +0.150 C 
BRANCH  18  19
ATOM     19  O   LIG    1       -0.682   1.547   1.184  0.00  0.00    -0.380 OA
BRANCH  19  20
ATOM     20  C   LIG    1       -0.013   1.086   0.008  0.00  0.00    +0.190 C 
BRANCH  20  21
ATOM     21  C   LIG    1       -0.753   1.593  -1.232  0.00  0.00    -0.040 C 
ATOM     22  C   LIG    1       -1.380   0.548  -2.156  0.00  0.00    +0.010 C 
ATOM     23  C   LIG    1       -0.125   1.303  -2.596  0.00  0.00    +0.010 C 
ENDBRANCH  20  21
ENDBRANCH  19  20
ENDBRANCH  18  19
ENDBRANCH  17  18
ENDBRANCH   2  17
TORSDOF 6
