REMARK  Name = ZINCpk00001AZiDM.1
REMARK                            x       y       z     vdW  Elec       q    Type
REMARK                         _______ _______ _______ _____ _____    ______ ____
ROOT
ATOM      1  N   LIG    1       -0.677   1.221  -1.083  0.00  0.00    -0.650 N 
ENDROOT
BRANCH   1   2
ATOM      2  C   LIG    1       -1.740   0.590  -1.678  0.00  0.00    +0.460 A 
ATOM      3  C   LIG    1       -3.008   0.783  -1.206  0.00  0.00    -0.140 A 
ATOM      4  C   LIG    1       -4.077   0.125  -1.833  0.00  0.00    +0.550 A 
ATOM      5  N   LIG    1       -3.836  -0.682  -2.886  0.00  0.00    -0.560 N 
ATOM      6  C   LIG    1       -2.581  -0.861  -3.338  0.00  0.00    +0.700 A 
ATOM      7  O   LIG    1       -2.386  -1.592  -4.289  0.00  0.00    -0.540 OA
ATOM      8  C   LIG    1       -4.949  -1.371  -3.543  0.00  0.00    +0.340 C 
ATOM      9  O   LIG    1       -5.217   0.282  -1.430  0.00  0.00    -0.520 OA
ATOM     10  N   LIG    1       -1.540  -0.237  -2.756  0.00  0.00    -0.540 N 
ATOM     11  C   LIG    1       -0.185  -0.445  -3.274  0.00  0.00    +0.320 C 
ENDBRANCH   1   2
BRANCH   1  12
ATOM     12  C   LIG    1       -0.478   2.659  -1.275  0.00  0.00    +0.390 C 
BRANCH  12  15
ATOM     13  C   LIG    1       -1.169   2.670  -4.326  0.00  0.00    +0.140 C 
ATOM     14  C   LIG    1        0.195   2.890  -3.724  0.00  0.00    +0.110 A 
ATOM     15  C   LIG    1        0.494   2.886  -2.404  0.00  0.00    -0.270 A 
ATOM     16  C   LIG    1        1.865   3.134  -2.273  0.00  0.00    +0.250 A 
ATOM     17  N   LIG    1        2.371   3.273  -3.471  0.00  0.00    -0.290 NA
ATOM     18  N   LIG    1        1.336   3.127  -4.404  0.00  0.00    -0.470 N 
ATOM     19  H   LIG    1        1.424   3.187  -5.368  0.00  0.00    +0.440 HD
ENDBRANCH  12  15
ENDBRANCH   1  12
BRANCH   1  20
ATOM     20  C   LIG    1        0.260   0.456  -0.256  0.00  0.00    +0.290 C 
BRANCH  20  21
ATOM     21  C   LIG    1       -0.224   0.457   1.195  0.00  0.00    -0.030 C 
ATOM     22  C   LIG    1       -0.171   1.880   1.754  0.00  0.00    +0.070 C 
ATOM     23  C   LIG    1       -0.380   1.859   3.241  0.00  0.00    -0.060 C 
ATOM     24  C   LIG    1       -0.267   0.799   3.976  0.00  0.00    -0.060 C 
ATOM     25  C   LIG    1        0.083  -0.560   3.443  0.00  0.00    +0.050 C 
ATOM     26  C   LIG    1        0.690  -0.437   2.044  0.00  0.00    +0.020 C 
ENDBRANCH  20  21
ENDBRANCH   1  20
TORSDOF 5
