REMARK  Name = ZINCpk00001AZiDM.0
REMARK                            x       y       z     vdW  Elec       q    Type
REMARK                         _______ _______ _______ _____ _____    ______ ____
ROOT
ATOM      1  N   LIG    1       -0.663   1.130  -1.129  0.00  0.00    -0.650 N 
ENDROOT
BRANCH   1   2
ATOM      2  C   LIG    1       -1.720   0.505  -1.739  0.00  0.00    +0.460 A 
ATOM      3  C   LIG    1       -2.988   0.658  -1.249  0.00  0.00    -0.140 A 
ATOM      4  C   LIG    1       -4.051   0.006  -1.894  0.00  0.00    +0.550 A 
ATOM      5  N   LIG    1       -3.806  -0.755  -2.978  0.00  0.00    -0.560 N 
ATOM      6  C   LIG    1       -2.552  -0.894  -3.447  0.00  0.00    +0.700 A 
ATOM      7  O   LIG    1       -2.353  -1.585  -4.428  0.00  0.00    -0.540 OA
ATOM      8  C   LIG    1       -4.913  -1.436  -3.653  0.00  0.00    +0.340 C 
ATOM      9  O   LIG    1       -5.189   0.129  -1.475  0.00  0.00    -0.520 OA
ATOM     10  N   LIG    1       -1.517  -0.276  -2.851  0.00  0.00    -0.540 N 
ATOM     11  C   LIG    1       -0.163  -0.440  -3.387  0.00  0.00    +0.330 C 
ENDBRANCH   1   2
BRANCH   1  12
ATOM     12  C   LIG    1       -0.496   2.580  -1.257  0.00  0.00    +0.390 C 
BRANCH  12  19
ATOM     13  C   LIG    1       -1.230   2.692  -4.338  0.00  0.00    +0.140 C 
ATOM     14  C   LIG    1        0.135   2.929  -3.744  0.00  0.00    +0.090 A 
ATOM     15  N   LIG    1        1.223   3.216  -4.412  0.00  0.00    -0.290 NA
ATOM     16  N   LIG    1        2.274   3.357  -3.497  0.00  0.00    -0.470 N 
ATOM     17  H   LIG    1        3.195   3.570  -3.715  0.00  0.00    +0.440 HD
ATOM     18  C   LIG    1        1.778   3.151  -2.260  0.00  0.00    +0.260 A 
ATOM     19  C   LIG    1        0.458   2.878  -2.384  0.00  0.00    -0.270 A 
ENDBRANCH  12  19
ENDBRANCH   1  12
BRANCH   1  20
ATOM     20  C   LIG    1        0.300   0.348  -0.350  0.00  0.00    +0.290 C 
BRANCH  20  21
ATOM     21  C   LIG    1       -0.164   0.272   1.106  0.00  0.00    -0.030 C 
ATOM     22  C   LIG    1       -0.133   1.669   1.730  0.00  0.00    +0.070 C 
ATOM     23  C   LIG    1       -0.322   1.575   3.216  0.00  0.00    -0.060 C 
ATOM     24  C   LIG    1       -0.178   0.485   3.900  0.00  0.00    -0.060 C 
ATOM     25  C   LIG    1        0.193  -0.840   3.301  0.00  0.00    +0.050 C 
ATOM     26  C   LIG    1        0.779  -0.640   1.901  0.00  0.00    +0.020 C 
ENDBRANCH  20  21
ENDBRANCH   1  20
TORSDOF 5
