REMARK  Name = ZINCpe00000MJMuv.1
REMARK                            x       y       z     vdW  Elec       q    Type
REMARK                         _______ _______ _______ _____ _____    ______ ____
ROOT
ATOM      1  C   LIG    1       -3.745   6.936   5.739  0.00  0.00    +0.260 C 
ATOM      2  C   LIG    1       -4.783   5.829   5.524  0.00  0.00    +0.290 C 
ATOM      3  N   LIG    1       -4.741   5.421   4.111  0.00  0.00    -0.600 N 
ATOM      4  C   LIG    1       -3.432   5.090   3.526  0.00  0.00    +0.270 C 
ATOM      5  C   LIG    1       -2.460   6.233   3.838  0.00  0.00    +0.230 C 
ATOM      6  C   LIG    1       -5.868   5.353   3.375  0.00  0.00    +0.590 C 
ATOM      7  O   LIG    1       -5.804   5.100   2.187  0.00  0.00    -0.530 OA
ATOM      8  O   LIG    1       -2.478   6.496   5.243  0.00  0.00    -0.370 OA
ENDROOT
BRANCH   6   9
ATOM      9  C   LIG    1       -7.175   5.584   4.008  0.00  0.00    -0.270 A 
ATOM     10  C   LIG    1       -8.106   6.438   3.428  0.00  0.00    +0.210 A 
ATOM     11  C   LIG    1       -9.348   6.636   4.047  0.00  0.00    -0.190 A 
ATOM     12  C   LIG    1       -9.631   6.000   5.208  0.00  0.00    +0.200 A 
ATOM     13  N   LIG    1       -8.715   5.170   5.783  0.00  0.00    -0.610 N 
ATOM     14  H   LIG    1       -8.938   4.730   6.618  0.00  0.00    +0.420 HD
ATOM     15  C   LIG    1      -10.951   6.159   5.919  0.00  0.00    +0.090 C 
ATOM     16  C   LIG    1      -11.683   7.407   5.430  0.00  0.00    +0.030 C 
ATOM     17  C   LIG    1      -11.730   7.366   3.898  0.00  0.00    +0.020 C 
ATOM     18  C   LIG    1      -10.312   7.576   3.371  0.00  0.00    +0.100 C 
ATOM     19  C   LIG    1       -7.513   4.945   5.229  0.00  0.00    +0.530 A 
ATOM     20  O   LIG    1       -6.719   4.196   5.771  0.00  0.00    -0.530 OA
ENDBRANCH   6   9
BRANCH   1  24
ATOM     21  C   LIG    1       -4.236   9.303  10.125  0.00  0.00    +0.200 C 
ATOM     22  C   LIG    1       -3.848   8.271   9.098  0.00  0.00    +0.290 A 
ATOM     23  N   LIG    1       -4.130   8.315   7.821  0.00  0.00    -0.530 NA
ATOM     24  C   LIG    1       -3.630   7.240   7.211  0.00  0.00    +0.230 A 
ATOM     25  N   LIG    1       -3.029   6.491   8.097  0.00  0.00    -0.280 NA
ATOM     26  N   LIG    1       -3.158   7.142   9.335  0.00  0.00    -0.480 N 
ATOM     27  H   LIG    1       -2.817   6.838  10.190  0.00  0.00    +0.440 HD
ENDBRANCH   1  24
TORSDOF 2
