REMARK  Name = ZINCpe00000MJMuv.0
REMARK                            x       y       z     vdW  Elec       q    Type
REMARK                         _______ _______ _______ _____ _____    ______ ____
ROOT
ATOM      1  C   LIG    1       -0.830   1.407  -1.172  0.00  0.00    +0.270 C 
ATOM      2  C   LIG    1       -0.008   0.997   0.055  0.00  0.00    +0.300 C 
ATOM      3  N   LIG    1       -0.699   1.482   1.260  0.00  0.00    -0.610 N 
ATOM      4  C   LIG    1       -2.131   1.171   1.408  0.00  0.00    +0.250 C 
ATOM      5  C   LIG    1       -2.849   1.573   0.114  0.00  0.00    +0.240 C 
ATOM      6  C   LIG    1       -0.042   2.189   2.200  0.00  0.00    +0.600 C 
ATOM      7  O   LIG    1        1.159   2.358   2.105  0.00  0.00    -0.510 OA
ATOM      8  O   LIG    1       -2.182   0.975  -1.000  0.00  0.00    -0.380 OA
ENDROOT
BRANCH   6   9
ATOM      9  C   LIG    1       -0.776   2.757   3.341  0.00  0.00    -0.260 A 
ATOM     10  C   LIG    1       -1.116   1.966   4.432  0.00  0.00    +0.170 A 
ATOM     11  C   LIG    1       -1.813   2.532   5.510  0.00  0.00    -0.190 A 
ATOM     12  C   LIG    1       -2.147   3.842   5.482  0.00  0.00    +0.190 A 
ATOM     13  N   LIG    1       -1.821   4.617   4.409  0.00  0.00    -0.610 N 
ATOM     14  H   LIG    1       -2.078   5.553   4.408  0.00  0.00    +0.420 HD
ATOM     15  C   LIG    1       -2.885   4.516   6.612  0.00  0.00    +0.090 C 
ATOM     16  C   LIG    1       -3.559   3.483   7.510  0.00  0.00    +0.030 C 
ATOM     17  C   LIG    1       -2.513   2.433   7.904  0.00  0.00    +0.020 C 
ATOM     18  C   LIG    1       -2.160   1.621   6.659  0.00  0.00    +0.100 C 
ATOM     19  C   LIG    1       -1.147   4.126   3.356  0.00  0.00    +0.540 A 
ATOM     20  O   LIG    1       -0.862   4.850   2.418  0.00  0.00    -0.530 OA
ENDBRANCH   6   9
BRANCH   1  25
ATOM     21  C   LIG    1       -0.258  -1.241  -5.437  0.00  0.00    +0.200 C 
ATOM     22  C   LIG    1       -0.004  -0.372  -4.232  0.00  0.00    +0.180 A 
ATOM     23  N   LIG    1        1.132   0.178  -3.901  0.00  0.00    -0.290 NA
ATOM     24  N   LIG    1        0.985   0.857  -2.818  0.00  0.00    -0.270 NA
ATOM     25  C   LIG    1       -0.249   0.763  -2.405  0.00  0.00    +0.180 A 
ATOM     26  N   LIG    1       -0.913  -0.016  -3.292  0.00  0.00    -0.560 N 
ATOM     27  H   LIG    1       -1.849  -0.268  -3.261  0.00  0.00    +0.430 HD
ENDBRANCH   1  25
TORSDOF 2
