REMARK  Name = ZINCrD000000Caan.0
REMARK                            x       y       z     vdW  Elec       q    Type
REMARK                         _______ _______ _______ _____ _____    ______ ____
ROOT
ATOM      1  C   LIG    1        3.717  -0.951   0.162  0.00  0.00    +0.060 A 
ATOM      2  N   LIG    1        4.845  -0.282   0.157  0.00  0.00    -0.190 NA
ATOM      3  N   LIG    1        6.002  -0.821   0.247  0.00  0.00    -0.310 N 
ATOM      4  C   LIG    1        6.198  -2.150   0.359  0.00  0.00    +0.520 A 
ATOM      5  C   LIG    1        5.023  -3.032   0.378  0.00  0.00    -0.140 A 
ATOM      6  C   LIG    1        5.118  -4.415   0.491  0.00  0.00    +0.090 A 
ATOM      7  C   LIG    1        3.965  -5.172   0.519  0.00  0.00    +0.030 A 
ATOM      8  C   LIG    1        2.718  -4.569   0.420  0.00  0.00    +0.060 A 
ATOM      9  C   LIG    1        2.603  -3.200   0.302  0.00  0.00    +0.080 A 
ATOM     10  O   LIG    1        7.322  -2.609   0.442  0.00  0.00    -0.480 OA
ATOM     11  C   LIG    1        3.752  -2.417   0.283  0.00  0.00    -0.040 A 
ENDROOT
BRANCH   3  12
ATOM     12  C   LIG    1        7.124   0.015   0.228  0.00  0.00    +0.110 A 
ATOM     13  C   LIG    1        8.055  -0.048   1.256  0.00  0.00    +0.040 A 
ATOM     14  C   LIG    1        9.165   0.774   1.232  0.00  0.00    +0.030 A 
ATOM     15  C   LIG    1        9.343   1.667   0.191  0.00  0.00    +0.030 A 
ATOM     16  C   LIG    1        8.415   1.735  -0.832  0.00  0.00    +0.030 A 
ATOM     17  C   LIG    1        7.306   0.912  -0.816  0.00  0.00    +0.040 A 
ENDBRANCH   3  12
BRANCH   1  19
ATOM     18  O   LIG    1        1.385  -0.869   0.059  0.00  0.00    -0.500 OA
ATOM     19  C   LIG    1        2.427  -0.242   0.053  0.00  0.00    +0.600 C 
ATOM     20  N   LIG    1        2.404   1.102  -0.052  0.00  0.00    -0.650 N 
ATOM     21  H   LIG    1        3.234   1.596  -0.140  0.00  0.00    +0.420 HD
BRANCH  20  22
ATOM     22  C   LIG    1        1.181   1.784  -0.034  0.00  0.00    +0.120 A 
ATOM     23  C   LIG    1        0.076   1.215   0.581  0.00  0.00    +0.030 A 
ATOM     24  C   LIG    1       -1.132   1.888   0.592  0.00  0.00    +0.020 A 
ATOM     25  C   LIG    1       -1.238   3.133   0.001  0.00  0.00    +0.010 A 
ATOM     26  C   LIG    1       -0.141   3.707  -0.615  0.00  0.00    +0.010 A 
ATOM     27  C   LIG    1        1.071   3.037  -0.635  0.00  0.00    +0.080 A 
BRANCH  27  28
ATOM     28  O   LIG    1        2.152   3.600  -1.239  0.00  0.00    -0.490 OA
ATOM     29  H   LIG    1        2.239   3.378  -2.176  0.00  0.00    +0.390 HD
ENDBRANCH  27  28
ENDBRANCH  20  22
ENDBRANCH   1  19
TORSDOF 4
