REMARK  Name = ZINCpk00000xI7Rr.1
REMARK                            x       y       z     vdW  Elec       q    Type
REMARK                         _______ _______ _______ _____ _____    ______ ____
ROOT
ATOM      1  C   LIG    1        0.157  -4.230  -0.020  0.00  0.00    +0.330 C 
ENDROOT
BRANCH   1   2
ATOM      2  C   LIG    1        0.072  -2.726  -0.012  0.00  0.00    -0.200 A 
ATOM      3  C   LIG    1       -1.163  -2.093   0.003  0.00  0.00    +0.110 A 
ATOM      4  C   LIG    1       -1.196  -0.710   0.015  0.00  0.00    -0.050 A 
ATOM      5  C   LIG    1        0.002  -0.004   0.002  0.00  0.00    +0.320 A 
ATOM      6  N   LIG    1        1.161  -0.645  -0.013  0.00  0.00    -0.520 NA
ATOM      7  C   LIG    1        1.223  -1.962  -0.020  0.00  0.00    +0.310 A 
BRANCH   5   8
ATOM      8  N   LIG    1       -0.017   1.386   0.010  0.00  0.00    -0.480 N 
ATOM      9  C   LIG    1       -0.798   1.908  -1.120  0.00  0.00    +0.210 C 
ATOM     10  C   LIG    1       -0.861   3.435  -1.031  0.00  0.00    +0.190 C 
ATOM     11  N   LIG    1        0.504   3.980  -1.041  0.00  0.00    -0.550 NA
ATOM     12  C   LIG    1        1.285   3.458   0.089  0.00  0.00    +0.180 C 
ATOM     13  C   LIG    1        0.484   5.449  -1.033  0.00  0.00    +0.190 C 
ATOM     14  C   LIG    1        1.348   1.931  -0.000  0.00  0.00    +0.220 C 
ENDBRANCH   5   8
ENDBRANCH   1   2
BRANCH   1  16
ATOM     15  C   LIG    1        0.275  -6.049   1.597  0.00  0.00    +0.540 C 
ATOM     16  N   LIG    1        0.198  -4.725   1.358  0.00  0.00    -0.720 N 
ATOM     17  H   LIG    1        0.171  -4.099   2.099  0.00  0.00    +0.410 HD
ATOM     18  O   LIG    1        0.310  -6.831   0.671  0.00  0.00    -0.520 OA
BRANCH  15  20
ATOM     19  C   LIG    1       -1.109  -6.692   3.551  0.00  0.00    +0.090 C 
ATOM     20  C   LIG    1        0.318  -6.558   3.015  0.00  0.00    +0.010 C 
BRANCH  20  21
ATOM     21  S   LIG    1        1.131  -8.174   3.052  0.00  0.00    +0.110 S 
BRANCH  21  22
ATOM     22  C   LIG    1        1.179  -8.453   4.791  0.00  0.00    -0.020 A 
ATOM     23  N   LIG    1        0.731  -7.647   5.712  0.00  0.00    -0.270 NA
ATOM     24  N   LIG    1        0.844  -8.012   6.913  0.00  0.00    -0.250 NA
ATOM     25  C   LIG    1        1.407  -9.152   7.151  0.00  0.00    +0.220 A 
ATOM     26  S   LIG    1        1.851  -9.870   5.601  0.00  0.00    +0.120 S 
ENDBRANCH  21  22
ENDBRANCH  20  21
ENDBRANCH  15  20
ENDBRANCH   1  16
TORSDOF 6
