REMARK  Name = ZINCpk000000nQdN.0
REMARK                            x       y       z     vdW  Elec       q    Type
REMARK                         _______ _______ _______ _____ _____    ______ ____
ROOT
ATOM      1  C   LIG    1        3.622   1.673  -0.125  0.00  0.00    +0.240 A 
ATOM      2  N   LIG    1        4.510   0.712  -0.108  0.00  0.00    -0.440 NA
ATOM      3  C   LIG    1        3.841  -0.449   0.013  0.00  0.00    +0.150 A 
ATOM      4  N   LIG    1        2.556  -0.172   0.072  0.00  0.00    -0.270 NA
ATOM      5  N   LIG    1        2.405   1.105  -0.006  0.00  0.00    -0.250 N 
ENDROOT
BRANCH   5   6
ATOM      6  C   LIG    1        1.181   1.788   0.021  0.00  0.00    +0.080 A 
ATOM      7  C   LIG    1        1.010   2.876   0.865  0.00  0.00    +0.070 A 
ATOM      8  C   LIG    1       -0.199   3.544   0.894  0.00  0.00    +0.040 A 
ATOM      9  C   LIG    1       -1.236   3.137   0.075  0.00  0.00    +0.080 A 
ATOM     10  C   LIG    1       -1.072   2.053  -0.768  0.00  0.00    +0.010 A 
ATOM     11  C   LIG    1        0.134   1.376  -0.798  0.00  0.00    +0.130 A 
ATOM     12  F   LIG    1        0.295   0.317  -1.621  0.00  0.00    -0.120 F 
ENDBRANCH   5   6
BRANCH   3  13
ATOM     13  C   LIG    1        4.444  -1.798   0.069  0.00  0.00    +0.620 C 
ATOM     14  N   LIG    1        3.655  -2.884   0.192  0.00  0.00    -0.710 N 
ATOM     15  H   LIG    1        2.692  -2.780   0.244  0.00  0.00    +0.410 HD
ATOM     16  O   LIG    1        5.650  -1.928   0.004  0.00  0.00    -0.500 OA
BRANCH  14  17
ATOM     17  C   LIG    1        4.252  -4.220   0.248  0.00  0.00    +0.260 C 
ATOM     18  C   LIG    1        4.329  -4.851  -1.162  0.00  0.00    +0.050 C 
ATOM     19  C   LIG    1        4.033  -6.316  -0.930  0.00  0.00    +0.520 C 
ATOM     20  N   LIG    1        3.476  -6.489   0.281  0.00  0.00    -0.620 N 
ATOM     21  C   LIG    1        3.072  -7.787   0.828  0.00  0.00    +0.300 C 
ATOM     22  O   LIG    1        4.265  -7.206  -1.721  0.00  0.00    -0.520 OA
ATOM     23  C   LIG    1        3.323  -5.210   0.985  0.00  0.00    +0.270 C 
ENDBRANCH  14  17
ENDBRANCH   3  13
BRANCH   1  25
ATOM     24  C   LIG    1        4.880   3.574   0.851  0.00  0.00    +0.060 C 
ATOM     25  C   LIG    1        3.908   3.147  -0.251  0.00  0.00    +0.070 C 
ATOM     26  C   LIG    1        4.531   3.431  -1.619  0.00  0.00    +0.060 C 
ENDBRANCH   1  25
TORSDOF 4
