REMARK  Name = ZINCvU0000000ERK.0
REMARK                            x       y       z     vdW  Elec       q    Type
REMARK                         _______ _______ _______ _____ _____    ______ ____
ROOT
ATOM      1  N   LIG    1       -0.077   1.210   0.081  0.00  0.00    -0.660 N 
ATOM      2  H   LIG    1        0.723   1.758   0.094  0.00  0.00    +0.420 HD
ATOM      3  C   LIG    1        0.027  -0.134   0.041  0.00  0.00    +0.610 C 
ATOM      4  O   LIG    1       -0.971  -0.824   0.129  0.00  0.00    -0.500 OA
ENDROOT
BRANCH   3   5
ATOM      5  C   LIG    1        1.352  -0.767  -0.108  0.00  0.00    +0.000 A 
ATOM      6  N   LIG    1        2.510  -0.146  -0.220  0.00  0.00    -0.240 NA
ATOM      7  N   LIG    1        3.461  -1.003  -0.330  0.00  0.00    -0.210 N 
ATOM      8  C   LIG    1        2.957  -2.267  -0.305  0.00  0.00    -0.010 A 
ATOM      9  C   LIG    1        3.355  -3.724  -0.376  0.00  0.00    +0.130 C 
ATOM     10  C   LIG    1        2.046  -4.481  -0.692  0.00  0.00    +0.060 C 
ATOM     11  C   LIG    1        0.975  -3.520  -0.129  0.00  0.00    +0.110 C 
ATOM     12  C   LIG    1        1.619  -2.155  -0.165  0.00  0.00    -0.150 A 
BRANCH   7  13
ATOM     13  C   LIG    1        4.819  -0.682  -0.463  0.00  0.00    +0.120 A 
ATOM     14  C   LIG    1        5.777  -1.421   0.218  0.00  0.00    +0.020 A 
ATOM     15  C   LIG    1        7.115  -1.106   0.081  0.00  0.00    +0.030 A 
ATOM     16  C   LIG    1        7.500  -0.050  -0.724  0.00  0.00    +0.030 A 
ATOM     17  C   LIG    1        6.547   0.692  -1.399  0.00  0.00    +0.030 A 
ATOM     18  C   LIG    1        5.208   0.378  -1.270  0.00  0.00    -0.060 A 
ATOM     19  C   LIG    1        4.170   1.186  -2.006  0.00  0.00    +0.110 C 
ENDBRANCH   7  13
ENDBRANCH   3   5
BRANCH   1  26
ATOM     20  C   LIG    1       -0.305   3.804   1.219  0.00  0.00    +0.080 C 
ATOM     21  C   LIG    1       -1.496   3.081   0.644  0.00  0.00    -0.110 A 
ATOM     22  C   LIG    1       -2.740   3.683   0.656  0.00  0.00    +0.040 A 
ATOM     23  C   LIG    1       -3.836   3.023   0.137  0.00  0.00    +0.010 A 
ATOM     24  C   LIG    1       -3.689   1.749  -0.408  0.00  0.00    -0.030 A 
ATOM     25  C   LIG    1       -2.435   1.144  -0.427  0.00  0.00    +0.030 A 
ATOM     26  C   LIG    1       -1.339   1.813   0.097  0.00  0.00    +0.150 A 
BRANCH  24  27
ATOM     27  C   LIG    1       -4.866   1.038  -0.967  0.00  0.00    -0.090 A 
ATOM     28  C   LIG    1       -6.129   1.634  -0.948  0.00  0.00    +0.070 A 
ATOM     29  C   LIG    1       -7.194   0.932  -1.487  0.00  0.00    -0.030 A 
ATOM     30  C   LIG    1       -6.978  -0.329  -2.011  0.00  0.00    +0.260 A 
ATOM     31  N   LIG    1       -5.773  -0.867  -2.010  0.00  0.00    -0.480 NA
ATOM     32  C   LIG    1       -4.729  -0.236  -1.514  0.00  0.00    +0.270 A 
ENDBRANCH  24  27
ENDBRANCH   1  26
TORSDOF 4
