REMARK  Name = ZINCpe000000Tldm.0
REMARK                            x       y       z     vdW  Elec       q    Type
REMARK                         _______ _______ _______ _____ _____    ______ ____
ROOT
ATOM      1  C   LIG    1       -2.554   4.039   0.047  0.00  0.00    +0.370 C 
ENDROOT
BRANCH   1   2
ATOM      2  N   LIG    1       -1.236   3.399   0.031  0.00  0.00    -0.330 N 
ATOM      3  N   LIG    1       -1.165   2.117   0.019  0.00  0.00    -0.210 NA
ATOM      4  C   LIG    1       -0.018   1.479   0.010  0.00  0.00    +0.110 A 
ATOM      5  C   LIG    1        1.199   2.200   0.002  0.00  0.00    +0.100 A 
ATOM      6  C   LIG    1        1.141   3.563   0.010  0.00  0.00    -0.010 A 
ATOM      7  C   LIG    1       -0.133   4.171   0.025  0.00  0.00    +0.480 A 
ATOM      8  O   LIG    1       -0.234   5.387   0.032  0.00  0.00    -0.530 OA
BRANCH   4   9
ATOM      9  C   LIG    1        0.002  -0.004   0.002  0.00  0.00    -0.030 A 
ATOM     10  C   LIG    1        1.217  -0.687  -0.019  0.00  0.00    +0.030 A 
ATOM     11  C   LIG    1        1.230  -2.067  -0.022  0.00  0.00    +0.010 A 
ATOM     12  C   LIG    1        0.040  -2.772  -0.014  0.00  0.00    +0.020 A 
ATOM     13  C   LIG    1       -1.169  -2.100   0.002  0.00  0.00    +0.010 A 
ATOM     14  C   LIG    1       -1.194  -0.720   0.010  0.00  0.00    +0.050 A 
ENDBRANCH   4   9
ENDBRANCH   1   2
BRANCH   1  16
ATOM     15  N   LIG    1       -4.213   4.846  -1.601  0.00  0.00    -0.600 N 
ATOM     16  C   LIG    1       -3.019   4.266  -1.369  0.00  0.00    +0.520 C 
ATOM     17  O   LIG    1       -2.319   3.926  -2.299  0.00  0.00    -0.520 OA
ATOM     18  C   LIG    1       -5.059   5.256  -0.477  0.00  0.00    +0.310 C 
BRANCH  15  19
ATOM     19  C   LIG    1       -4.665   5.066  -2.977  0.00  0.00    +0.330 C 
BRANCH  19  22
ATOM     20  N   LIG    1       -5.958   3.841  -4.694  0.00  0.00    -0.730 N 
ATOM     21  H   LIG    1       -5.830   4.599  -5.285  0.00  0.00    +0.400 HD
ATOM     22  C   LIG    1       -5.441   3.864  -3.449  0.00  0.00    +0.500 C 
ATOM     23  O   LIG    1       -5.601   2.916  -2.709  0.00  0.00    -0.530 OA
BRANCH  20  24
ATOM     24  C   LIG    1       -6.712   2.672  -5.153  0.00  0.00    +0.260 C 
BRANCH  24  26
ATOM     25  C   LIG    1       -7.972   1.682  -7.070  0.00  0.00    +0.030 C 
ATOM     26  C   LIG    1       -7.184   2.903  -6.590  0.00  0.00    +0.000 C 
ENDBRANCH  24  26
ENDBRANCH  20  24
ENDBRANCH  19  22
ENDBRANCH  15  19
ENDBRANCH   1  16
TORSDOF 7
