REMARK  Name = ZINCpk00000ebO8m.0
REMARK                            x       y       z     vdW  Elec       q    Type
REMARK                         _______ _______ _______ _____ _____    ______ ____
ROOT
ATOM      1  N   LIG    1       -0.554  -1.280   0.144  0.00  0.00    -0.700 N 
ATOM      2  H   LIG    1       -1.283  -0.664  -0.028  0.00  0.00    +0.420 HD
ENDROOT
BRANCH   1   4
ATOM      3  C   LIG    1        1.125   0.502   0.261  0.00  0.00    -0.080 A 
ATOM      4  C   LIG    1        0.751  -0.793   0.314  0.00  0.00    +0.420 A 
ATOM      5  N   LIG    1        1.842  -1.537   0.557  0.00  0.00    -0.470 NA
ATOM      6  C   LIG    1        2.887  -0.747   0.657  0.00  0.00    +0.230 A 
ATOM      7  S   LIG    1        4.634  -0.698   0.937  0.00  0.00    +0.220 S 
ATOM      8  C   LIG    1        4.742   1.066   0.799  0.00  0.00    +0.030 A 
ATOM      9  C   LIG    1        3.510   1.480   0.563  0.00  0.00    +0.220 A 
ATOM     10  N   LIG    1        2.503   0.546   0.482  0.00  0.00    -0.390 N 
BRANCH   3  12
ATOM     11  O   LIG    1        0.043   2.051  -1.131  0.00  0.00    -0.120 OA
ATOM     12  N   LIG    1        0.234   1.666   0.009  0.00  0.00    +0.050 N 
ATOM     13  O   LIG    1       -0.303   2.236   0.942  0.00  0.00    -0.120 OA
ENDBRANCH   3  12
ENDBRANCH   1   4
BRANCH   1  14
ATOM     14  C   LIG    1       -0.816  -2.719   0.228  0.00  0.00    +0.300 C 
BRANCH  14  15
ATOM     15  C   LIG    1       -2.322  -2.970   0.134  0.00  0.00    +0.180 C 
BRANCH  15  16
ATOM     16  N   LIG    1       -2.999  -2.312   1.260  0.00  0.00    -0.530 NA
ATOM     17  C   LIG    1       -2.734  -3.021   2.521  0.00  0.00    +0.150 C 
ATOM     18  C   LIG    1       -3.406  -2.271   3.673  0.00  0.00    +0.220 C 
ATOM     19  O   LIG    1       -4.806  -2.150   3.404  0.00  0.00    -0.380 OA
ATOM     20  C   LIG    1       -5.101  -1.464   2.184  0.00  0.00    +0.220 C 
ATOM     21  C   LIG    1       -4.445  -2.207   1.016  0.00  0.00    +0.150 C 
ENDBRANCH  15  16
BRANCH  15  22
ATOM     22  C   LIG    1       -2.593  -4.475   0.184  0.00  0.00    -0.050 C 
ATOM     23  C   LIG    1       -1.772  -5.221  -0.896  0.00  0.00    +0.010 C 
ATOM     24  C   LIG    1       -2.750  -6.272  -1.454  0.00  0.00    +0.200 C 
ATOM     25  O   LIG    1       -3.976  -6.151  -0.714  0.00  0.00    -0.380 OA
ATOM     26  C   LIG    1       -4.050  -4.789  -0.240  0.00  0.00    +0.210 C 
ENDBRANCH  15  22
ENDBRANCH  14  15
ENDBRANCH   1  14
TORSDOF 6
