REMARK  Name = ZINCvU0000000GnC.0
REMARK                            x       y       z     vdW  Elec       q    Type
REMARK                         _______ _______ _______ _____ _____    ______ ____
ROOT
ATOM      1  O   LIG    1        6.583   2.348   0.251  0.00  0.00    -0.310 OA
ENDROOT
BRANCH   1   2
ATOM      2  C   LIG    1        5.904   1.182   0.264  0.00  0.00    +0.550 C 
ATOM      3  O   LIG    1        6.499   0.131   0.130  0.00  0.00    -0.480 OA
BRANCH   2   9
ATOM      4  C   LIG    1       -0.085   0.687   0.957  0.00  0.00    +0.110 A 
ATOM      5  C   LIG    1        0.008   2.075   1.028  0.00  0.00    -0.010 A 
ATOM      6  C   LIG    1        1.228   2.704   0.918  0.00  0.00    +0.070 A 
ATOM      7  C   LIG    1        2.384   1.955   0.734  0.00  0.00    +0.050 A 
ATOM      8  O   LIG    1        3.684   2.286   0.597  0.00  0.00    -0.170 OA
ATOM      9  C   LIG    1        4.447   1.184   0.439  0.00  0.00    -0.020 A 
ATOM     10  C   LIG    1        3.661   0.075   0.468  0.00  0.00    -0.060 A 
ATOM     11  C   LIG    1        4.110  -1.357   0.329  0.00  0.00    +0.150 C 
ATOM     12  C   LIG    1        2.293   0.552   0.661  0.00  0.00    -0.110 A 
ATOM     13  C   LIG    1        1.050  -0.076   0.774  0.00  0.00    +0.050 A 
BRANCH   4  14
ATOM     14  O   LIG    1       -1.298   0.083   1.068  0.00  0.00    -0.310 OA
BRANCH  14  16
ATOM     15  C   LIG    1       -3.697   0.079   1.358  0.00  0.00    +0.070 C 
ATOM     16  C   LIG    1       -2.432   0.932   1.255  0.00  0.00    +0.170 C 
ENDBRANCH  14  16
ENDBRANCH   4  14
ENDBRANCH   2   9
ENDBRANCH   1   2
BRANCH   1  17
ATOM     17  C   LIG    1        8.022   2.271   0.073  0.00  0.00    +0.190 C 
ATOM     18  C   LIG    1        8.699   2.159   1.440  0.00  0.00    +0.080 C 
BRANCH  17  19
ATOM     19  C   LIG    1        8.508   3.512  -0.629  0.00  0.00    +0.520 C 
ATOM     20  N   LIG    1        9.802   3.618  -0.992  0.00  0.00    -0.670 N 
ATOM     21  H   LIG    1       10.435   2.930  -0.735  0.00  0.00    +0.420 HD
ATOM     22  O   LIG    1        7.736   4.417  -0.867  0.00  0.00    -0.490 OA
BRANCH  20  23
ATOM     23  C   LIG    1       10.231   4.720  -1.740  0.00  0.00    +0.150 A 
ATOM     24  C   LIG    1        9.380   5.304  -2.669  0.00  0.00    +0.050 A 
ATOM     25  C   LIG    1        9.805   6.395  -3.402  0.00  0.00    +0.040 A 
ATOM     26  C   LIG    1       11.079   6.899  -3.219  0.00  0.00    +0.060 A 
ATOM     27  C   LIG    1       11.931   6.316  -2.299  0.00  0.00    -0.160 A 
ATOM     28  C   LIG    1       11.511   5.228  -1.559  0.00  0.00    +0.040 A 
BRANCH  27  29
ATOM     29  C   LIG    1       13.319   6.868  -2.103  0.00  0.00    +0.510 C 
ATOM     30  F   LIG    1       13.727   6.648  -0.783  0.00  0.00    -0.180 F 
ATOM     31  F   LIG    1       13.316   8.242  -2.367  0.00  0.00    -0.170 F 
ATOM     32  F   LIG    1       14.204   6.227  -2.978  0.00  0.00    -0.170 F 
ENDBRANCH  27  29
ENDBRANCH  20  23
ENDBRANCH  17  19
ENDBRANCH   1  17
TORSDOF 8
