REMARK  Name = ZINCkj000005fNdi.0
REMARK                            x       y       z     vdW  Elec       q    Type
REMARK                         _______ _______ _______ _____ _____    ______ ____
ROOT
ATOM      1  C   LIG    1        1.641   6.663   3.391  0.00  0.00    +0.500 C 
ATOM      2  N   LIG    1        2.328   5.645   2.837  0.00  0.00    -0.580 N 
ATOM      3  C   LIG    1        3.363   4.936   3.602  0.00  0.00    +0.270 C 
ATOM      4  C   LIG    1        3.058   3.435   3.570  0.00  0.00    +0.020 C 
ATOM      5  C   LIG    1        2.927   2.976   2.116  0.00  0.00    +0.020 C 
ATOM      6  C   LIG    1        1.767   3.719   1.448  0.00  0.00    +0.000 C 
ATOM      7  C   LIG    1        2.057   5.223   1.456  0.00  0.00    +0.310 C 
ATOM      8  O   LIG    1        0.789   7.241   2.749  0.00  0.00    -0.520 OA
ENDROOT
BRANCH   1   9
ATOM      9  C   LIG    1        1.931   7.085   4.809  0.00  0.00    +0.170 C 
BRANCH   9  10
ATOM     10  N   LIG    1        0.788   7.841   5.338  0.00  0.00    -0.620 N 
ATOM     11  H   LIG    1       -0.037   7.261   5.321  0.00  0.00    +0.440 HD
ATOM     12  H   LIG    1        0.634   8.660   4.768  0.00  0.00    +0.440 HD
ATOM     13  H   LIG    1        0.982   8.123   6.287  0.00  0.00    +0.440 HD
ENDBRANCH   9  10
BRANCH   9  14
ATOM     14  C   LIG    1        3.181   7.966   4.833  0.00  0.00    +0.080 C 
BRANCH  14  16
ATOM     15  C   LIG    1        4.798   9.171   6.308  0.00  0.00    +0.040 C 
ATOM     16  C   LIG    1        3.547   8.291   6.283  0.00  0.00    -0.000 C 
ENDBRANCH  14  16
ENDBRANCH   9  14
ENDBRANCH   1   9
BRANCH   6  17
ATOM     17  C   LIG    1        1.615   3.236   0.004  0.00  0.00    +0.150 C 
BRANCH  17  18
ATOM     18  C   LIG    1        1.210   1.784   0.000  0.00  0.00    +0.200 A 
ATOM     19  N   LIG    1       -0.016   1.337   0.009  0.00  0.00    -0.490 NA
ATOM     20  C   LIG    1        0.002  -0.004   0.002  0.00  0.00    +0.140 A 
ATOM     21  C   LIG    1        1.288  -0.403  -0.012  0.00  0.00    +0.130 A 
ATOM     22  N   LIG    1        2.055   0.731  -0.014  0.00  0.00    -0.460 N 
ATOM     23  C   LIG    1        3.518   0.791  -0.027  0.00  0.00    +0.320 C 
ENDBRANCH  17  18
ENDBRANCH   6  17
TORSDOF 6
