REMARK  Name = ZINCvU00000004LW.0
REMARK                            x       y       z     vdW  Elec       q    Type
REMARK                         _______ _______ _______ _____ _____    ______ ____
ROOT
ATOM      1  C   LIG    1        1.040   6.126  -0.763  0.00  0.00    +0.090 C 
ENDROOT
BRANCH   1   2
ATOM      2  C   LIG    1        1.317   4.946  -1.658  0.00  0.00    +0.530 C 
ATOM      3  N   LIG    1        0.294   4.249  -2.191  0.00  0.00    -0.720 N 
ATOM      4  H   LIG    1       -0.621   4.508  -1.998  0.00  0.00    +0.400 HD
ATOM      5  O   LIG    1        2.461   4.622  -1.899  0.00  0.00    -0.510 OA
BRANCH   3   6
ATOM      6  C   LIG    1        0.563   3.102  -3.061  0.00  0.00    +0.280 C 
ATOM      7  C   LIG    1        0.785   3.589  -4.494  0.00  0.00    +0.040 C 
BRANCH   6   8
ATOM      8  C   LIG    1       -0.613   2.159  -3.027  0.00  0.00    -0.090 A 
ATOM      9  C   LIG    1       -0.394   0.816  -3.005  0.00  0.00    +0.040 A 
ATOM     10  C   LIG    1       -1.488  -0.066  -2.974  0.00  0.00    -0.050 A 
ATOM     11  C   LIG    1       -1.303  -1.458  -2.949  0.00  0.00    +0.020 A 
ATOM     12  C   LIG    1       -2.386  -2.282  -2.919  0.00  0.00    +0.010 A 
ATOM     13  C   LIG    1       -3.680  -1.765  -2.912  0.00  0.00    +0.010 A 
ATOM     14  C   LIG    1       -3.898  -0.421  -2.935  0.00  0.00    +0.020 A 
ATOM     15  C   LIG    1       -2.805   0.460  -2.966  0.00  0.00    -0.050 A 
ATOM     16  C   LIG    1       -2.990   1.853  -2.990  0.00  0.00    +0.030 A 
ATOM     17  C   LIG    1       -1.907   2.676  -3.014  0.00  0.00    +0.010 A 
ENDBRANCH   6   8
ENDBRANCH   3   6
ENDBRANCH   1   2
BRANCH   1  18
ATOM     18  S   LIG    1        2.610   6.847  -0.209  0.00  0.00    -0.170 S 
BRANCH  18  19
ATOM     19  C   LIG    1        2.078   8.229   0.838  0.00  0.00    +0.050 C 
BRANCH  19  20
ATOM     20  C   LIG    1        3.307   8.952   1.392  0.00  0.00    +0.070 C 
BRANCH  20  21
ATOM     21  C   LIG    1        2.858  10.118   2.275  0.00  0.00    +0.070 C 
BRANCH  21  24
ATOM     22  N   LIG    1        3.916  11.897   3.630  0.00  0.00    -0.680 N 
ATOM     23  H   LIG    1        3.028  12.238   3.819  0.00  0.00    +0.410 HD
ATOM     24  C   LIG    1        4.069  10.830   2.821  0.00  0.00    +0.510 C 
ATOM     25  O   LIG    1        5.182  10.443   2.532  0.00  0.00    -0.510 OA
BRANCH  22  33
ATOM     26  C   LIG    1        5.771  10.266   5.043  0.00  0.00    +0.090 C 
ATOM     27  C   LIG    1        5.968  11.752   4.896  0.00  0.00    -0.070 A 
ATOM     28  C   LIG    1        7.076  12.361   5.451  0.00  0.00    +0.020 A 
ATOM     29  C   LIG    1        7.255  13.726   5.321  0.00  0.00    +0.000 A 
ATOM     30  C   LIG    1        6.328  14.486   4.631  0.00  0.00    +0.010 A 
ATOM     31  C   LIG    1        5.220  13.882   4.069  0.00  0.00    -0.090 A 
ATOM     32  C   LIG    1        4.210  14.710   3.317  0.00  0.00    +0.090 C 
ATOM     33  C   LIG    1        5.038  12.511   4.197  0.00  0.00    +0.130 A 
ENDBRANCH  22  33
ENDBRANCH  21  24
ENDBRANCH  20  21
ENDBRANCH  19  20
ENDBRANCH  18  19
ENDBRANCH   1  18
TORSDOF 9
