REMARK  Name = ZINCrH000004rqft.0
REMARK                            x       y       z     vdW  Elec       q    Type
REMARK                         _______ _______ _______ _____ _____    ______ ____
ROOT
ATOM      1  C   LIG    1        1.605   0.762  -0.286  0.00  0.00    +0.100 C 
ATOM      2  C   LIG    1        0.545   1.833  -0.257  0.00  0.00    +0.010 A 
ATOM      3  C   LIG    1       -0.790   1.483  -0.338  0.00  0.00    +0.020 A 
ATOM      4  C   LIG    1       -1.764   2.463  -0.318  0.00  0.00    +0.060 A 
ATOM      5  C   LIG    1       -1.401   3.798  -0.205  0.00  0.00    +0.120 A 
ATOM      6  C   LIG    1       -0.059   4.146  -0.124  0.00  0.00    +0.140 A 
ATOM      7  C   LIG    1        0.910   3.163  -0.151  0.00  0.00    -0.660 A 
ENDROOT
BRANCH   5   8
ATOM      8  N   LIG    1       -2.385   4.792  -0.178  0.00  0.00    -0.670 N 
ATOM      9  H   LIG    1       -3.232   4.624   0.265  0.00  0.00    +0.410 HD
ATOM     10  C   LIG    1       -2.158   5.982  -0.768  0.00  0.00    +0.560 C 
ATOM     11  O   LIG    1       -1.068   6.223  -1.250  0.00  0.00    -0.500 OA
BRANCH  10  12
ATOM     12  C   LIG    1       -3.231   6.993  -0.828  0.00  0.00    -0.190 A 
ATOM     13  C   LIG    1       -4.486   6.717  -0.280  0.00  0.00    +0.120 A 
ATOM     14  C   LIG    1       -5.482   7.667  -0.334  0.00  0.00    -0.020 A 
ATOM     15  C   LIG    1       -5.247   8.892  -0.941  0.00  0.00    +0.170 A 
ATOM     16  C   LIG    1       -4.007   9.171  -1.492  0.00  0.00    -0.040 A 
ATOM     17  F   LIG    1       -6.231   9.816  -0.995  0.00  0.00    -0.120 F 
ATOM     18  C   LIG    1       -2.997   8.230  -1.440  0.00  0.00    +0.200 A 
ATOM     19  F   LIG    1       -1.788   8.502  -1.978  0.00  0.00    -0.100 F 
ENDBRANCH  10  12
ENDBRANCH   5   8
BRANCH   7  20
ATOM     20  S   LIG    1        2.613   3.602  -0.049  0.00  0.00    +2.690 S 
ATOM     21  O   LIG    1        3.201   2.716   0.894  0.00  0.00    -0.950 OA
ATOM     22  O   LIG    1        2.655   5.017   0.084  0.00  0.00    -0.950 OA
BRANCH  20  23
ATOM     23  N   LIG    1        3.300   3.249  -1.514  0.00  0.00    -0.990 NA
ATOM     24  C   LIG    1        3.995   1.972  -1.726  0.00  0.00    +0.290 C 
ATOM     25  C   LIG    1        3.394   1.290  -2.965  0.00  0.00    +0.010 C 
ATOM     26  C   LIG    1        3.465   2.249  -4.154  0.00  0.00    +0.020 C 
ATOM     27  C   LIG    1        2.643   3.504  -3.850  0.00  0.00    +0.010 C 
ATOM     28  C   LIG    1        3.230   4.209  -2.624  0.00  0.00    +0.290 C 
ENDBRANCH  20  23
ENDBRANCH   7  20
TORSDOF 4
