REMARK  Name = ZINCrg000000pABr.0
REMARK                            x       y       z     vdW  Elec       q    Type
REMARK                         _______ _______ _______ _____ _____    ______ ____
ROOT
ATOM      1  C   LIG    1        2.785   3.770   0.911  0.00  0.00    +0.520 C 
ATOM      2  N   LIG    1        2.908   5.112   0.901  0.00  0.00    -0.660 N 
ATOM      3  H   LIG    1        2.124   5.670   0.771  0.00  0.00    +0.420 HD
ATOM      4  O   LIG    1        3.764   3.073   1.077  0.00  0.00    -0.470 OA
ENDROOT
BRANCH   2   5
ATOM      5  C   LIG    1        4.152   5.697   1.077  0.00  0.00    +0.370 A 
ATOM      6  C   LIG    1        5.327   5.353   0.417  0.00  0.00    -0.160 A 
ATOM      7  C   LIG    1        6.343   6.205   0.907  0.00  0.00    +0.330 A 
ATOM      8  N   LIG    1        5.815   7.001   1.796  0.00  0.00    -0.270 NA
ATOM      9  N   LIG    1        4.451   6.711   1.919  0.00  0.00    -0.320 N 
BRANCH   9  10
ATOM     10  C   LIG    1        3.550   7.361   2.772  0.00  0.00    +0.140 A 
ATOM     11  C   LIG    1        2.228   7.536   2.384  0.00  0.00    -0.010 A 
ATOM     12  C   LIG    1        1.340   8.173   3.229  0.00  0.00    +0.050 A 
ATOM     13  C   LIG    1        1.769   8.645   4.456  0.00  0.00    +0.010 A 
ATOM     14  C   LIG    1        3.086   8.477   4.843  0.00  0.00    +0.050 A 
ATOM     15  C   LIG    1        3.977   7.837   4.005  0.00  0.00    +0.040 A 
ENDBRANCH   9  10
BRANCH   6  16
ATOM     16  C   LIG    1        5.479   4.328  -0.572  0.00  0.00    +0.290 C 
ATOM     17  N   LIG    1        5.600   3.515  -1.356  0.00  0.00    -0.410 NA
ENDBRANCH   6  16
ENDBRANCH   2   5
BRANCH   1  18
ATOM     18  C   LIG    1        1.433   3.135   0.715  0.00  0.00    +0.230 C 
BRANCH  18  23
ATOM     19  C   LIG    1        0.552  -1.872   2.612  0.00  0.00    +0.650 C 
ATOM     20  N   LIG    1        1.086  -0.887   1.862  0.00  0.00    -0.600 N 
ATOM     21  C   LIG    1        0.482  -0.505   0.577  0.00  0.00    +0.310 C 
ATOM     22  C   LIG    1        0.275   1.014   0.569  0.00  0.00    +0.190 C 
ATOM     23  N   LIG    1        1.547   1.680   0.881  0.00  0.00    -0.520 NA
ATOM     24  C   LIG    1        2.010   1.339   2.232  0.00  0.00    +0.180 C 
ATOM     25  C   LIG    1        2.288  -0.167   2.308  0.00  0.00    +0.300 C 
ATOM     26  O   LIG    1       -0.442  -2.456   2.228  0.00  0.00    -0.570 OA
BRANCH  19  28
ATOM     27  C   LIG    1        0.489  -3.276   4.540  0.00  0.00    +0.280 C 
ATOM     28  O   LIG    1        1.119  -2.207   3.786  0.00  0.00    -0.370 OA
ENDBRANCH  19  28
ENDBRANCH  18  23
ENDBRANCH   1  18
TORSDOF 6
