REMARK  Name = ZINCrH000004mP6a.0
REMARK                            x       y       z     vdW  Elec       q    Type
REMARK                         _______ _______ _______ _____ _____    ______ ____
ROOT
ATOM      1  N   LIG    1        5.304  -1.611  -1.717  0.00  0.00    -0.720 N 
ATOM      2  H   LIG    1        5.902  -1.845  -0.990  0.00  0.00    +0.410 HD
ATOM      3  C   LIG    1        4.140  -0.982  -1.457  0.00  0.00    +0.520 C 
ATOM      4  O   LIG    1        3.393  -0.689  -2.366  0.00  0.00    -0.520 OA
ENDROOT
BRANCH   1   5
ATOM      5  C   LIG    1        5.665  -1.941  -3.098  0.00  0.00    +0.310 C 
BRANCH   5   8
ATOM      6  N   LIG    1        7.540  -3.035  -4.284  0.00  0.00    -0.660 N 
ATOM      7  H   LIG    1        7.037  -2.937  -5.108  0.00  0.00    +0.420 HD
ATOM      8  C   LIG    1        7.003  -2.635  -3.115  0.00  0.00    +0.510 C 
ATOM      9  O   LIG    1        7.596  -2.834  -2.075  0.00  0.00    -0.520 OA
BRANCH   6  13
ATOM     10  C   LIG    1       11.365  -4.696  -4.362  0.00  0.00    +0.130 A 
ATOM     11  C   LIG    1       10.526  -4.937  -3.285  0.00  0.00    -0.040 A 
ATOM     12  C   LIG    1        9.259  -4.387  -3.258  0.00  0.00    +0.080 A 
ATOM     13  C   LIG    1        8.825  -3.592  -4.311  0.00  0.00    +0.110 A 
ATOM     14  C   LIG    1        9.663  -3.355  -5.392  0.00  0.00    +0.060 A 
ATOM     15  C   LIG    1       10.932  -3.901  -5.415  0.00  0.00    -0.050 A 
ATOM     16 CL   LIG    1       11.982  -3.600  -6.764  0.00  0.00    -0.050 Cl
BRANCH  10  18
ATOM     17  C   LIG    1       12.991  -6.045  -3.271  0.00  0.00    +0.250 C 
ATOM     18  O   LIG    1       12.612  -5.238  -4.387  0.00  0.00    -0.300 OA
ENDBRANCH  10  18
ENDBRANCH   6  13
ENDBRANCH   5   8
ENDBRANCH   1   5
BRANCH   3  19
ATOM     19  C   LIG    1        3.769  -0.642  -0.037  0.00  0.00    +0.120 C 
BRANCH  19  20
ATOM     20  C   LIG    1        2.431   0.052  -0.020  0.00  0.00    -0.060 A 
ATOM     21  C   LIG    1        2.366   1.412  -0.018  0.00  0.00    +0.020 A 
ATOM     22  C   LIG    1        1.138   2.071  -0.002  0.00  0.00    +0.010 A 
ATOM     23  C   LIG    1       -0.031   1.375   0.011  0.00  0.00    +0.030 A 
ATOM     24  C   LIG    1       -0.004  -0.030   0.009  0.00  0.00    -0.050 A 
ATOM     25  C   LIG    1       -1.190  -0.783   0.023  0.00  0.00    +0.030 A 
ATOM     26  C   LIG    1       -1.125  -2.143   0.022  0.00  0.00    +0.000 A 
ATOM     27  C   LIG    1        0.102  -2.802   0.005  0.00  0.00    +0.010 A 
ATOM     28  C   LIG    1        1.272  -2.105  -0.008  0.00  0.00    +0.010 A 
ATOM     29  C   LIG    1        1.244  -0.701  -0.007  0.00  0.00    -0.030 A 
ENDBRANCH  19  20
ENDBRANCH   3  19
TORSDOF 6
