REMARK  Name = ZINCvU00000008k3.0
REMARK                            x       y       z     vdW  Elec       q    Type
REMARK                         _______ _______ _______ _____ _____    ______ ____
ROOT
ATOM      1  C   LIG    1        5.312   7.670   1.918  0.00  0.00    +0.140 C 
ATOM      2  C   LIG    1        5.318   6.190   1.632  0.00  0.00    -0.160 A 
ATOM      3  C   LIG    1        4.239   5.482   1.356  0.00  0.00    -0.080 A 
ATOM      4  C   LIG    1        4.482   4.072   1.115  0.00  0.00    -0.150 A 
ATOM      5  C   LIG    1        3.580   3.025   0.796  0.00  0.00    +0.170 A 
ATOM      6  N   LIG    1        4.056   1.799   0.626  0.00  0.00    -0.440 NA
ATOM      7  C   LIG    1        5.346   1.545   0.739  0.00  0.00    +0.360 A 
ATOM      8  N   LIG    1        6.221   2.480   1.033  0.00  0.00    -0.490 NA
ATOM      9  C   LIG    1        5.837   3.748   1.228  0.00  0.00    +0.100 A 
ATOM     10  C   LIG    1        2.862   6.091   1.295  0.00  0.00    +0.140 C 
ATOM     11  S   LIG    1        6.758   5.190   1.626  0.00  0.00    +0.170 S 
ENDROOT
BRANCH   7  12
ATOM     12  C   LIG    1        5.832   0.134   0.529  0.00  0.00    +0.300 C 
BRANCH  12  13
ATOM     13  N   LIG    1        5.815  -0.586   1.810  0.00  0.00    -0.530 NA
ATOM     14  C   LIG    1        6.788  -0.012   2.748  0.00  0.00    +0.160 C 
ATOM     15  C   LIG    1        6.642  -0.688   4.114  0.00  0.00    +0.020 C 
ATOM     16  C   LIG    1        6.879  -2.193   3.960  0.00  0.00    -0.020 C 
ATOM     17  C   LIG    1        5.884  -2.757   2.942  0.00  0.00    +0.030 C 
ATOM     18  C   LIG    1        6.675  -2.884   5.310  0.00  0.00    +0.000 C 
ATOM     19  C   LIG    1        6.053  -2.021   1.611  0.00  0.00    +0.170 C 
ENDBRANCH  12  13
ENDBRANCH   7  12
BRANCH   5  20
ATOM     20  S   LIG    1        1.855   3.346   0.635  0.00  0.00    +0.210 S 
BRANCH  20  21
ATOM     21  C   LIG    1        1.278   1.727   0.247  0.00  0.00    +0.100 A 
ATOM     22  N   LIG    1        2.010   0.644   0.132  0.00  0.00    -0.200 NA
ATOM     23  N   LIG    1        1.262  -0.360  -0.159  0.00  0.00    -0.280 NA
ATOM     24  C   LIG    1        0.018   0.020  -0.246  0.00  0.00    +0.200 A 
ATOM     25  N   LIG    1       -0.017   1.362   0.009  0.00  0.00    -0.440 N 
BRANCH  24  26
ATOM     26  C   LIG    1       -1.164  -0.858  -0.570  0.00  0.00    +0.080 C 
ATOM     27  C   LIG    1       -1.282  -1.961   0.484  0.00  0.00    +0.060 C 
ATOM     28  C   LIG    1       -0.967  -1.489  -1.949  0.00  0.00    +0.050 C 
ENDBRANCH  24  26
BRANCH  25  29
ATOM     29  C   LIG    1       -1.196   2.231   0.020  0.00  0.00    +0.200 C 
ATOM     30  C   LIG    1       -0.963   3.741  -0.059  0.00  0.00    +0.070 C 
ATOM     31  C   LIG    1       -1.419   3.105   1.256  0.00  0.00    +0.060 C 
ENDBRANCH  25  29
ENDBRANCH  20  21
ENDBRANCH   5  20
TORSDOF 6
