REMARK  Name = ZINCqH0000008P22.0
REMARK                            x       y       z     vdW  Elec       q    Type
REMARK                         _______ _______ _______ _____ _____    ______ ____
ROOT
ATOM      1  C   LIG    1       -3.776  -0.679   1.819  0.00  0.00    +0.310 C 
ENDROOT
BRANCH   1  11
ATOM      2  C   LIG    1       -0.013   1.086   0.008  0.00  0.00    +0.060 C 
ATOM      3  C   LIG    1       -0.729   1.579   1.267  0.00  0.00    +0.230 C 
ATOM      4  O   LIG    1       -0.036   1.107   2.425  0.00  0.00    -0.300 OA
ATOM      5  C   LIG    1       -0.171  -0.214   2.722  0.00  0.00    +0.080 A 
ATOM      6  C   LIG    1        0.867  -0.914   3.309  0.00  0.00    +0.030 A 
ATOM      7  C   LIG    1        0.713  -2.257   3.604  0.00  0.00    +0.030 A 
ATOM      8  C   LIG    1       -0.475  -2.902   3.312  0.00  0.00    +0.020 A 
ATOM      9  C   LIG    1       -1.517  -2.208   2.724  0.00  0.00    +0.010 A 
ATOM     10  C   LIG    1       -1.369  -0.864   2.428  0.00  0.00    +0.090 A 
ATOM     11  N   LIG    1       -2.413  -0.141   1.834  0.00  0.00    -0.550 N 
ATOM     12  C   LIG    1       -2.144   1.058   1.276  0.00  0.00    +0.490 C 
ATOM     13  O   LIG    1       -3.037   1.715   0.784  0.00  0.00    -0.500 OA
ENDBRANCH   1  11
BRANCH   1  14
ATOM     14  C   LIG    1       -4.519  -0.219   3.075  0.00  0.00    +0.190 C 
BRANCH  14  15
ATOM     15  C   LIG    1       -5.921  -0.772   3.060  0.00  0.00    +0.180 A 
ATOM     16  N   LIG    1       -6.310  -1.919   3.559  0.00  0.00    -0.450 NA
ATOM     17  C   LIG    1       -7.639  -1.988   3.317  0.00  0.00    +0.210 A 
ATOM     18  N   LIG    1       -7.973  -0.895   2.683  0.00  0.00    -0.370 NA
ATOM     19  O   LIG    1       -7.000  -0.188   2.529  0.00  0.00    +0.090 OA
BRANCH  17  20
ATOM     20  C   LIG    1       -8.546  -3.100   3.695  0.00  0.00    -0.020 A 
ATOM     21  C   LIG    1       -9.900  -3.038   3.374  0.00  0.00    +0.070 A 
ATOM     22  C   LIG    1      -10.739  -4.075   3.728  0.00  0.00    +0.020 A 
ATOM     23  C   LIG    1      -10.239  -5.175   4.400  0.00  0.00    +0.050 A 
ATOM     24  C   LIG    1       -8.896  -5.244   4.723  0.00  0.00    +0.020 A 
ATOM     25  C   LIG    1       -8.045  -4.215   4.368  0.00  0.00    -0.000 A 
ATOM     26 CL   LIG    1       -6.358  -4.305   4.766  0.00  0.00    -0.030 Cl
ENDBRANCH  17  20
ENDBRANCH  14  15
ENDBRANCH   1  14
TORSDOF 4
