REMARK  Name = ZINCpk00000y6uBh.0
REMARK                            x       y       z     vdW  Elec       q    Type
REMARK                         _______ _______ _______ _____ _____    ______ ____
ROOT
ATOM      1  C   LIG    1        2.271  -2.426  -0.795  0.00  0.00    +0.430 A 
ATOM      2  N   LIG    1        1.281  -2.019  -0.033  0.00  0.00    -0.540 NA
ATOM      3  C   LIG    1        1.385  -0.950   0.761  0.00  0.00    +0.190 A 
ATOM      4  C   LIG    1        0.309  -0.537   1.567  0.00  0.00    +0.030 A 
ATOM      5  C   LIG    1        0.444   0.557   2.366  0.00  0.00    +0.050 A 
ATOM      6  C   LIG    1        1.635   1.278   2.401  0.00  0.00    -0.010 A 
ATOM      7  C   LIG    1        2.699   0.907   1.634  0.00  0.00    +0.060 A 
ATOM      8  C   LIG    1        2.593  -0.212   0.801  0.00  0.00    -0.120 A 
ATOM      9  C   LIG    1        3.709  -0.648  -0.040  0.00  0.00    -0.030 A 
ATOM     10  C   LIG    1        3.509  -1.768  -0.832  0.00  0.00    -0.040 A 
ENDROOT
BRANCH   9  11
ATOM     11  C   LIG    1        4.998   0.078  -0.045  0.00  0.00    +0.580 C 
ATOM     12  N   LIG    1        6.156  -0.605   0.042  0.00  0.00    -0.610 N 
ATOM     13  C   LIG    1        6.283  -2.068   0.052  0.00  0.00    +0.280 C 
ATOM     14  C   LIG    1        7.786  -2.401   0.188  0.00  0.00    +0.190 C 
ATOM     15  O   LIG    1        8.019  -2.693   1.550  0.00  0.00    -0.370 OA
ATOM     16  C   LIG    1        9.402  -2.724   1.908  0.00  0.00    +0.240 C 
ATOM     17  C   LIG    1        9.988  -1.329   1.689  0.00  0.00    +0.160 C 
ATOM     18  N   LIG    1        9.793  -0.906   0.310  0.00  0.00    -0.550 NA
ATOM     19  C   LIG    1       10.237   0.481   0.117  0.00  0.00    +0.200 C 
ATOM     20  C   LIG    1        8.483  -1.110  -0.251  0.00  0.00    +0.160 C 
ATOM     21  C   LIG    1        7.495  -0.002   0.148  0.00  0.00    +0.240 C 
ATOM     22  O   LIG    1        5.012   1.291  -0.129  0.00  0.00    -0.510 OA
ENDBRANCH   9  11
BRANCH   1  24
ATOM     23  C   LIG    1        3.204  -4.087  -2.368  0.00  0.00    +0.300 C 
ATOM     24  N   LIG    1        2.085  -3.546  -1.592  0.00  0.00    -0.610 N 
ATOM     25  C   LIG    1        0.770  -4.188  -1.658  0.00  0.00    +0.300 C 
ENDBRANCH   1  24
TORSDOF 2
