REMARK  Name = ZINCrH000008uzlf.0
REMARK                            x       y       z     vdW  Elec       q    Type
REMARK                         _______ _______ _______ _____ _____    ______ ____
ROOT
ATOM      1  C   LIG    1       -0.754   3.645   0.449  0.00  0.00    +0.240 C 
ATOM      2  C   LIG    1        0.453   4.061  -0.397  0.00  0.00    +0.040 C 
ATOM      3  C   LIG    1        1.670   3.216  -0.000  0.00  0.00    +0.120 C 
ATOM      4  C   LIG    1        1.262   1.766  -0.001  0.00  0.00    -0.030 A 
ATOM      5  C   LIG    1       -0.016   1.331   0.009  0.00  0.00    +0.010 A 
ATOM      6  N   LIG    1        0.002  -0.004   0.002  0.00  0.00    -0.480 NA
ATOM      7  C   LIG    1        1.243  -0.416  -0.011  0.00  0.00    +0.220 A 
ATOM      8  N   LIG    1        2.060   0.663  -0.012  0.00  0.00    -0.550 N 
ATOM      9  H   LIG    1        3.030   0.652  -0.021  0.00  0.00    +0.420 HD
ATOM     10  C   LIG    1       -1.217   2.245   0.031  0.00  0.00    +0.120 C 
ENDROOT
BRANCH   7  11
ATOM     11  C   LIG    1        1.690  -1.855  -0.022  0.00  0.00    +0.100 C 
ATOM     12  C   LIG    1        2.976  -1.996   0.794  0.00  0.00    +0.010 C 
ATOM     13  C   LIG    1        3.430  -3.458   0.783  0.00  0.00    +0.020 C 
ATOM     14  C   LIG    1        3.689  -3.900  -0.659  0.00  0.00    +0.000 C 
ATOM     15  C   LIG    1        2.403  -3.759  -1.475  0.00  0.00    +0.020 C 
ATOM     16  C   LIG    1        1.949  -2.298  -1.464  0.00  0.00    +0.020 C 
ENDBRANCH   7  11
BRANCH   1  18
ATOM     17  C   LIG    1       -2.784   4.765   1.199  0.00  0.00    +0.520 C 
ATOM     18  N   LIG    1       -1.845   4.601   0.246  0.00  0.00    -0.730 N 
ATOM     19  H   LIG    1       -1.892   5.117  -0.575  0.00  0.00    +0.400 HD
ATOM     20  O   LIG    1       -2.725   4.120   2.225  0.00  0.00    -0.530 OA
BRANCH  17  21
ATOM     21  C   LIG    1       -3.906   5.748   0.990  0.00  0.00    +0.040 C 
BRANCH  21  22
ATOM     22  C   LIG    1       -4.826   5.740   2.213  0.00  0.00    +0.130 C 
BRANCH  22  23
ATOM     23  C   LIG    1       -5.965   6.739   2.001  0.00  0.00    +0.040 C 
ATOM     24  N   LIG    1       -6.325   7.111   0.630  0.00  0.00    -0.120 NA
ATOM     25  N   LIG    1       -5.689   7.971   1.258  0.00  0.00    -0.120 NA
BRANCH  23  26
ATOM     26  C   LIG    1       -7.054   6.761   3.076  0.00  0.00    +0.120 C 
BRANCH  26  27
ATOM     27  C   LIG    1       -8.109   7.807   2.713  0.00  0.00    +0.160 C 
BRANCH  27  29
ATOM     28  C   LIG    1       -9.991   7.845   4.572  0.00  0.00    +0.030 C 
ATOM     29  C   LIG    1       -9.156   7.828   3.747  0.00  0.00    -0.190 C 
ENDBRANCH  27  29
ENDBRANCH  26  27
ENDBRANCH  23  26
ENDBRANCH  22  23
ENDBRANCH  21  22
ENDBRANCH  17  21
ENDBRANCH   1  18
TORSDOF 8
