REMARK  Name = ZINCrH000008uzlf.1
REMARK                            x       y       z     vdW  Elec       q    Type
REMARK                         _______ _______ _______ _____ _____    ______ ____
ROOT
ATOM      1  C   LIG    1        4.016  -0.801   0.374  0.00  0.00    +0.250 C 
ATOM      2  C   LIG    1        3.248  -1.830  -0.460  0.00  0.00    +0.020 C 
ATOM      3  C   LIG    1        1.777  -1.846  -0.028  0.00  0.00    +0.140 C 
ATOM      4  C   LIG    1        1.270  -0.425  -0.012  0.00  0.00    +0.010 A 
ATOM      5  C   LIG    1        2.070   0.663  -0.013  0.00  0.00    -0.030 A 
ATOM      6  N   LIG    1        1.259   1.756  -0.001  0.00  0.00    -0.550 N 
ATOM      7  H   LIG    1        1.542   2.684   0.001  0.00  0.00    +0.420 HD
ATOM      8  C   LIG    1       -0.016   1.303   0.009  0.00  0.00    +0.220 A 
ATOM      9  N   LIG    1        0.002  -0.004   0.002  0.00  0.00    -0.480 NA
ATOM     10  C   LIG    1        3.576   0.613  -0.026  0.00  0.00    +0.110 C 
ENDROOT
BRANCH   8  11
ATOM     11  C   LIG    1       -1.252   2.164   0.020  0.00  0.00    +0.100 C 
ATOM     12  C   LIG    1       -1.000   3.429  -0.802  0.00  0.00    +0.010 C 
ATOM     13  C   LIG    1       -2.256   4.303  -0.791  0.00  0.00    +0.020 C 
ATOM     14  C   LIG    1       -2.595   4.691   0.649  0.00  0.00    +0.000 C 
ATOM     15  C   LIG    1       -2.848   3.425   1.472  0.00  0.00    +0.020 C 
ATOM     16  C   LIG    1       -1.592   2.551   1.461  0.00  0.00    +0.020 C 
ENDBRANCH   8  11
BRANCH   1  18
ATOM     17  C   LIG    1        6.339  -0.551   1.067  0.00  0.00    +0.520 C 
ATOM     18  N   LIG    1        5.454  -0.951   0.133  0.00  0.00    -0.730 N 
ATOM     19  H   LIG    1        5.768  -1.339  -0.698  0.00  0.00    +0.400 HD
ATOM     20  O   LIG    1        5.946  -0.066   2.107  0.00  0.00    -0.530 OA
BRANCH  17  21
ATOM     21  C   LIG    1        7.817  -0.705   0.820  0.00  0.00    +0.040 C 
BRANCH  21  22
ATOM     22  C   LIG    1        8.595  -0.178   2.027  0.00  0.00    +0.130 C 
BRANCH  22  23
ATOM     23  C   LIG    1       10.096  -0.335   1.775  0.00  0.00    +0.040 C 
ATOM     24  N   LIG    1       10.583  -0.295   0.394  0.00  0.00    -0.120 NA
ATOM     25  N   LIG    1       10.551  -1.424   0.908  0.00  0.00    -0.120 NA
BRANCH  23  26
ATOM     26  C   LIG    1       11.023   0.148   2.893  0.00  0.00    +0.120 C 
BRANCH  26  27
ATOM     27  C   LIG    1       12.479  -0.080   2.482  0.00  0.00    +0.160 C 
BRANCH  27  29
ATOM     28  C   LIG    1       14.082   0.755   4.415  0.00  0.00    +0.030 C 
ATOM     29  C   LIG    1       13.370   0.384   3.557  0.00  0.00    -0.190 C 
ENDBRANCH  27  29
ENDBRANCH  26  27
ENDBRANCH  23  26
ENDBRANCH  22  23
ENDBRANCH  21  22
ENDBRANCH  17  21
ENDBRANCH   1  18
TORSDOF 8
