REMARK  Name = ZINCvU0000000JxK.0
REMARK                            x       y       z     vdW  Elec       q    Type
REMARK                         _______ _______ _______ _____ _____    ______ ____
ROOT
ATOM      1  C   LIG    1        1.231  -0.338  -0.814  0.00  0.00    +0.130 A 
ATOM      2  C   LIG    1       -0.035   0.096  -0.947  0.00  0.00    -0.110 A 
ATOM      3  S   LIG    1       -0.039   1.849  -0.763  0.00  0.00    +0.210 S 
ATOM      4  C   LIG    1        1.705   1.827  -0.518  0.00  0.00    +0.270 A 
ATOM      5  N   LIG    1        2.134   0.606  -0.587  0.00  0.00    -0.500 NA
ENDROOT
BRANCH   1   9
ATOM      6  C   LIG    1        2.265  -4.452  -1.100  0.00  0.00    -0.090 A 
ATOM      7  C   LIG    1        3.248  -3.509  -0.862  0.00  0.00    +0.020 A 
ATOM      8  C   LIG    1        2.919  -2.172  -0.769  0.00  0.00    +0.050 A 
ATOM      9  C   LIG    1        1.591  -1.773  -0.914  0.00  0.00    -0.020 A 
ATOM     10  C   LIG    1        0.603  -2.728  -1.149  0.00  0.00    +0.030 A 
ATOM     11  C   LIG    1        0.946  -4.061  -1.246  0.00  0.00    +0.010 A 
BRANCH   6  12
ATOM     12  C   LIG    1        2.631  -5.910  -1.201  0.00  0.00    +0.280 C 
ATOM     13  C   LIG    1        2.317  -6.608   0.124  0.00  0.00    +0.040 C 
BRANCH  12  16
ATOM     14  C   LIG    1        1.534  -8.279  -4.001  0.00  0.00    +0.110 C 
ATOM     15  C   LIG    1        2.329  -7.636  -2.894  0.00  0.00    +0.510 C 
ATOM     16  N   LIG    1        1.858  -6.535  -2.277  0.00  0.00    -0.730 N 
ATOM     17  H   LIG    1        1.006  -6.155  -2.546  0.00  0.00    +0.400 HD
ATOM     18  O   LIG    1        3.394  -8.111  -2.558  0.00  0.00    -0.550 OA
ENDBRANCH  12  16
ENDBRANCH   6  12
ENDBRANCH   1   9
BRANCH   4  19
ATOM     19  N   LIG    1        2.497   2.945  -0.288  0.00  0.00    -0.620 N 
ATOM     20  H   LIG    1        3.454   2.844  -0.164  0.00  0.00    +0.430 HD
ATOM     21  C   LIG    1        1.937   4.170  -0.238  0.00  0.00    +0.520 C 
ATOM     22  O   LIG    1        0.741   4.296  -0.394  0.00  0.00    -0.470 OA
BRANCH  21  23
ATOM     23  C   LIG    1        2.796   5.382   0.011  0.00  0.00    +0.190 C 
ATOM     24  C   LIG    1        3.763   5.572  -1.160  0.00  0.00    +0.070 C 
BRANCH  23  25
ATOM     25  O   LIG    1        1.965   6.538   0.135  0.00  0.00    -0.270 OA
BRANCH  25  26
ATOM     26  C   LIG    1        2.463   7.582   0.850  0.00  0.00    +0.140 A 
ATOM     27  C   LIG    1        3.765   7.541   1.324  0.00  0.00    -0.060 A 
ATOM     28  C   LIG    1        4.269   8.604   2.050  0.00  0.00    -0.040 A 
ATOM     29  C   LIG    1        3.475   9.707   2.305  0.00  0.00    +0.000 A 
ATOM     30  C   LIG    1        2.176   9.751   1.833  0.00  0.00    +0.070 A 
ATOM     31  C   LIG    1        5.684   8.559   2.566  0.00  0.00    +0.100 C 
ATOM     32  C   LIG    1        1.669   8.693   1.101  0.00  0.00    -0.070 A 
ATOM     33 CL   LIG    1        0.041   8.752   0.503  0.00  0.00    -0.050 Cl
ENDBRANCH  25  26
ENDBRANCH  23  25
ENDBRANCH  21  23
ENDBRANCH   4  19
TORSDOF 7
