REMARK  Name = ZINCnE000001Qsst.0
REMARK                            x       y       z     vdW  Elec       q    Type
REMARK                         _______ _______ _______ _____ _____    ______ ____
ROOT
ATOM      1  C   LIG    1       -1.182   3.015   1.713  0.00  0.00    +0.520 C 
ATOM      2  N   LIG    1       -2.099   3.776   2.343  0.00  0.00    -0.720 N 
ATOM      3  H   LIG    1       -3.035   3.524   2.323  0.00  0.00    +0.390 HD
ATOM      4  O   LIG    1       -0.026   3.377   1.661  0.00  0.00    -0.510 OA
ENDROOT
BRANCH   1   7
ATOM      5  C   LIG    1       -0.507   0.896   0.372  0.00  0.00    +0.080 C 
ATOM      6  C   LIG    1       -1.560   1.637  -0.456  0.00  0.00    +0.060 C 
ATOM      7  C   LIG    1       -1.594   1.714   1.072  0.00  0.00    -0.050 C 
BRANCH   5  10
ATOM      8  C   LIG    1        1.877  -0.494   1.581  0.00  0.00    +0.090 C 
ATOM      9  C   LIG    1        1.958   0.850   0.906  0.00  0.00    -0.120 A 
ATOM     10  C   LIG    1        0.893   1.453   0.376  0.00  0.00    -0.140 A 
ATOM     11  S   LIG    1        1.372   2.999  -0.313  0.00  0.00    +0.180 S 
ATOM     12  C   LIG    1        3.042   2.729   0.167  0.00  0.00    -0.070 A 
ATOM     13  C   LIG    1        3.145   1.553   0.787  0.00  0.00    -0.010 A 
ENDBRANCH   5  10
ENDBRANCH   1   7
BRANCH   2  14
ATOM     14  C   LIG    1       -1.681   4.983   3.060  0.00  0.00    +0.310 C 
BRANCH  14  15
ATOM     15  C   LIG    1       -2.694   5.310   4.127  0.00  0.00    -0.070 A 
ATOM     16  C   LIG    1       -4.043   5.168   3.865  0.00  0.00    -0.010 A 
ATOM     17  C   LIG    1       -4.973   5.464   4.845  0.00  0.00    -0.020 A 
ATOM     18  C   LIG    1       -4.552   5.911   6.083  0.00  0.00    -0.020 A 
ATOM     19  C   LIG    1       -3.203   6.058   6.343  0.00  0.00    -0.010 A 
ATOM     20  C   LIG    1       -2.273   5.758   5.365  0.00  0.00    +0.080 A 
ENDBRANCH  14  15
BRANCH  14  21
ATOM     21  C   LIG    1       -1.580   6.151   2.077  0.00  0.00    -0.070 C 
BRANCH  21  22
ATOM     22  C   LIG    1       -0.997   7.350   2.779  0.00  0.00    +0.500 C 
ATOM     23  O   LIG    1       -0.945   8.426   2.207  0.00  0.00    -0.710 OA
ATOM     24  O   LIG    1       -0.576   7.244   3.918  0.00  0.00    -0.690 OA
ENDBRANCH  21  22
ENDBRANCH  14  21
ENDBRANCH   2  14
TORSDOF 6
