REMARK  Name = ZINCnE000004wPz7.0
REMARK                            x       y       z     vdW  Elec       q    Type
REMARK                         _______ _______ _______ _____ _____    ______ ____
ROOT
ATOM      1  C   LIG    1        1.179  -2.195  -0.032  0.00  0.00    -0.030 C 
ATOM      2  C   LIG    1        2.546  -2.749   0.368  0.00  0.00    +0.210 C 
ATOM      3  N   LIG    1        3.577  -2.082  -0.443  0.00  0.00    -0.530 NA
ATOM      4  C   LIG    1        3.730  -0.686  -0.022  0.00  0.00    +0.230 C 
ATOM      5  C   LIG    1        2.395   0.012  -0.017  0.00  0.00    -0.080 A 
ATOM      6  C   LIG    1        2.376   1.399  -0.011  0.00  0.00    +0.000 A 
ATOM      7  C   LIG    1        1.174   2.080   0.002  0.00  0.00    -0.040 A 
ATOM      8  C   LIG    1       -0.017   1.376   0.010  0.00  0.00    +0.010 A 
ATOM      9  C   LIG    1        0.002  -0.004   0.002  0.00  0.00    +0.070 A 
ATOM     10 CL   LIG    1        1.159   3.816   0.009  0.00  0.00    -0.090 Cl
ATOM     11  C   LIG    1        1.208  -0.689  -0.013  0.00  0.00    -0.030 A 
ENDROOT
BRANCH   1  13
ATOM     12  O   LIG    1       -1.032  -2.368   0.792  0.00  0.00    -0.690 OA
ATOM     13  C   LIG    1        0.136  -2.688   0.938  0.00  0.00    +0.510 C 
ATOM     14  O   LIG    1        0.459  -3.406   1.868  0.00  0.00    -0.690 OA
ENDBRANCH   1  13
BRANCH   3  15
ATOM     15  C   LIG    1        4.856  -2.800  -0.362  0.00  0.00    +0.290 C 
BRANCH  15  16
ATOM     16  C   LIG    1        5.819  -2.225  -1.369  0.00  0.00    +0.030 A 
ATOM     17  N   LIG    1        5.921  -2.552  -2.625  0.00  0.00    -0.320 NA
ATOM     18  O   LIG    1        6.784  -1.914  -3.182  0.00  0.00    +0.130 OA
ATOM     19  C   LIG    1        7.390  -1.065  -2.341  0.00  0.00    -0.130 A 
ATOM     20  C   LIG    1        6.794  -1.228  -1.136  0.00  0.00    +0.010 A 
BRANCH  19  21
ATOM     21  C   LIG    1        8.513  -0.116  -2.671  0.00  0.00    +0.510 C 
ATOM     22  F   LIG    1        9.627  -0.419  -1.881  0.00  0.00    -0.180 F 
ATOM     23  F   LIG    1        8.104   1.198  -2.415  0.00  0.00    -0.180 F 
ENDBRANCH  19  21
ENDBRANCH  15  16
ENDBRANCH   3  15
TORSDOF 4
