REMARK  Name = ZINCpk00000y6yKj.0
REMARK                            x       y       z     vdW  Elec       q    Type
REMARK                         _______ _______ _______ _____ _____    ______ ____
ROOT
ATOM      1  C   LIG    1       -5.513  -5.770  -1.116  0.00  0.00    +0.070 A 
ATOM      2  N   LIG    1       -4.924  -6.011   0.035  0.00  0.00    -0.240 NA
ATOM      3  N   LIG    1       -3.884  -5.272   0.179  0.00  0.00    -0.370 N 
ATOM      4  H   LIG    1       -3.296  -5.281   0.951  0.00  0.00    +0.450 HD
ATOM      5  C   LIG    1       -3.728  -4.471  -0.916  0.00  0.00    -0.040 A 
ATOM      6  C   LIG    1       -4.773  -4.768  -1.770  0.00  0.00    +0.050 A 
ENDROOT
BRANCH   1  11
ATOM      7  C   LIG    1       -8.580  -7.943  -1.311  0.00  0.00    +0.130 A 
ATOM      8  C   LIG    1       -9.030  -7.660  -2.593  0.00  0.00    -0.070 A 
ATOM      9  C   LIG    1       -8.339  -6.766  -3.390  0.00  0.00    +0.050 A 
ATOM     10  C   LIG    1       -7.198  -6.150  -2.915  0.00  0.00    -0.010 A 
ATOM     11  C   LIG    1       -6.740  -6.430  -1.629  0.00  0.00    +0.030 A 
ATOM     12  C   LIG    1       -7.432  -7.335  -0.829  0.00  0.00    +0.010 A 
BRANCH   7  14
ATOM     13  C   LIG    1      -10.432  -9.418  -1.095  0.00  0.00    +0.250 C 
ATOM     14  O   LIG    1       -9.261  -8.823  -0.531  0.00  0.00    -0.320 OA
ENDBRANCH   7  14
ENDBRANCH   1  11
BRANCH   5  15
ATOM     15  C   LIG    1       -2.662  -3.481  -1.141  0.00  0.00    +0.600 C 
ATOM     16  N   LIG    1       -1.706  -3.297  -0.208  0.00  0.00    -0.720 N 
ATOM     17  H   LIG    1       -1.722  -3.816   0.612  0.00  0.00    +0.400 HD
ATOM     18  O   LIG    1       -2.642  -2.830  -2.168  0.00  0.00    -0.510 OA
BRANCH  16  19
ATOM     19  C   LIG    1       -0.645  -2.312  -0.431  0.00  0.00    +0.250 C 
ATOM     20  C   LIG    1        0.591  -2.700   0.387  0.00  0.00    +0.040 C 
ATOM     21  C   LIG    1        1.769  -1.806  -0.021  0.00  0.00    +0.180 C 
ATOM     22  C   LIG    1        1.298  -0.372  -0.011  0.00  0.00    +0.270 A 
ATOM     23  N   LIG    1        2.025   0.710  -0.013  0.00  0.00    -0.540 NA
ATOM     24  C   LIG    1        1.233   1.784  -0.000  0.00  0.00    +0.420 A 
ATOM     25  N   LIG    1       -0.017   1.393   0.010  0.00  0.00    -0.310 NA
ATOM     26  N   LIG    1        0.002  -0.004   0.002  0.00  0.00    -0.370 N 
ATOM     27  C   LIG    1       -1.133  -0.927   0.006  0.00  0.00    +0.310 C 
ENDBRANCH  16  19
ENDBRANCH   5  15
TORSDOF 4
