REMARK  Name = ZINCtV00001bB3rj.0
REMARK                            x       y       z     vdW  Elec       q    Type
REMARK                         _______ _______ _______ _____ _____    ______ ____
ROOT
ATOM      1  C   LIG    1       -0.587  -0.716   1.058  0.00  0.00    +0.020 A 
ATOM      2  C   LIG    1       -0.573  -2.074   1.057  0.00  0.00    +0.120 A 
ATOM      3  C   LIG    1        0.039  -2.772  -0.013  0.00  0.00    -0.050 A 
ATOM      4  C   LIG    1        0.632  -2.046  -1.075  0.00  0.00    +0.100 A 
ATOM      5  C   LIG    1        0.605  -0.688  -1.064  0.00  0.00    +0.000 A 
ATOM      6  C   LIG    1        0.002  -0.004   0.002  0.00  0.00    +0.170 A 
ENDROOT
BRANCH   6   7
ATOM      7  N   LIG    1       -0.017   1.371   0.010  0.00  0.00    -0.500 N 
ATOM      8  C   LIG    1       -0.805   1.893  -1.114  0.00  0.00    +0.190 C 
ATOM      9  C   LIG    1       -0.925   3.414  -0.992  0.00  0.00    +0.030 C 
ATOM     10  C   LIG    1        0.475   4.034  -0.995  0.00  0.00    +0.010 C 
ATOM     11  C   LIG    1        1.291   3.438   0.155  0.00  0.00    +0.030 C 
ATOM     12  C   LIG    1        1.347   1.916  -0.001  0.00  0.00    +0.180 C 
ENDBRANCH   6   7
BRANCH   1  14
ATOM     13  O   LIG    1       -1.779  -0.652   3.167  0.00  0.00    -0.210 OA
ATOM     14  N   LIG    1       -1.226   0.015   2.175  0.00  0.00    -0.030 N 
ATOM     15  O   LIG    1       -1.241   1.331   2.178  0.00  0.00    -0.090 OA
ENDBRANCH   1  14
BRANCH   3  16
ATOM     16  C   LIG    1        0.058  -4.174  -0.021  0.00  0.00    +0.030 C 
ATOM     17  C   LIG    1        0.664  -4.861  -1.082  0.00  0.00    +0.090 C 
BRANCH  17  18
ATOM     18  C   LIG    1        0.683  -6.251  -1.089  0.00  0.00    +0.030 A 
ATOM     19  N   LIG    1        1.228  -6.989  -2.040  0.00  0.00    -0.430 NA
ATOM     20  C   LIG    1        1.157  -8.276  -1.891  0.00  0.00    +0.120 A 
ATOM     21  C   LIG    1        0.471  -8.680  -0.668  0.00  0.00    -0.110 A 
ATOM     22  S   LIG    1       -0.008  -7.267   0.168  0.00  0.00    +0.240 S 
BRANCH  20  23
ATOM     23  C   LIG    1        1.715  -9.236  -2.861  0.00  0.00    -0.020 A 
ATOM     24  C   LIG    1        1.607 -10.613  -2.631  0.00  0.00    +0.040 A 
ATOM     25  C   LIG    1        2.125 -11.504  -3.545  0.00  0.00    +0.030 A 
ATOM     26  C   LIG    1        2.764 -11.040  -4.685  0.00  0.00    -0.030 A 
ATOM     27  C   LIG    1        2.881  -9.677  -4.917  0.00  0.00    +0.030 A 
ATOM     28 CL   LIG    1        3.422 -12.169  -5.827  0.00  0.00    -0.060 Cl
ATOM     29  C   LIG    1        2.362  -8.775  -4.015  0.00  0.00    +0.070 A 
ENDBRANCH  20  23
ENDBRANCH  17  18
ENDBRANCH   3  16
TORSDOF 5
