REMARK  Name = ZINCb80000006lgi.0
REMARK                            x       y       z     vdW  Elec       q    Type
REMARK                         _______ _______ _______ _____ _____    ______ ____
ROOT
ATOM      1  C   LIG    1       -1.777   5.558  -0.810  0.00  0.00    +0.190 C 
ENDROOT
BRANCH   1   2
ATOM      2  N   LIG    1       -1.724   6.107   0.552  0.00  0.00    -0.630 N 
ATOM      3  H   LIG    1       -1.486   7.086   0.511  0.00  0.00    +0.430 HD
ATOM      4  H   LIG    1       -1.026   5.613   1.086  0.00  0.00    +0.450 HD
ATOM      5  H   LIG    1       -2.625   5.997   0.993  0.00  0.00    +0.430 HD
ENDBRANCH   1   2
BRANCH   1   7
ATOM      6  C   LIG    1       -2.412   7.768  -1.789  0.00  0.00    +0.030 C 
ATOM      7  C   LIG    1       -2.836   6.307  -1.621  0.00  0.00    +0.050 C 
ENDBRANCH   1   7
BRANCH   1   8
ATOM      8  C   LIG    1       -2.138   4.073  -0.748  0.00  0.00    +0.170 C 
BRANCH   8   9
ATOM      9  O   LIG    1       -1.091   3.355  -0.092  0.00  0.00    -0.370 OA
BRANCH   9  10
ATOM     10  C   LIG    1       -1.330   1.951   0.019  0.00  0.00    +0.080 C 
ATOM     11  C   LIG    1       -2.066   1.661   1.328  0.00  0.00    +0.020 C 
BRANCH  10  12
ATOM     12  C   LIG    1       -0.015   1.215   0.009  0.00  0.00    +0.500 C 
ATOM     13  O   LIG    1        1.033   1.839   0.002  0.00  0.00    -0.680 OA
ATOM     14  O   LIG    1        0.002  -0.004   0.002  0.00  0.00    -0.680 OA
ENDBRANCH  10  12
ENDBRANCH   9  10
ENDBRANCH   8   9
ENDBRANCH   1   8
TORSDOF 6
