REMARK  Name = ZINCpe00000VVGeB.2
REMARK                            x       y       z     vdW  Elec       q    Type
REMARK                         _______ _______ _______ _____ _____    ______ ____
ROOT
ATOM      1  C   LIG    1        3.942   7.615   0.243  0.00  0.00    +0.190 C 
ATOM      2  C   LIG    1        3.254   8.344  -0.914  0.00  0.00    -0.020 C 
ATOM      3  C   LIG    1        3.343   9.855  -0.681  0.00  0.00    +0.030 C 
ATOM      4  C   LIG    1        4.812  10.262  -0.550  0.00  0.00    +0.170 C 
ATOM      5  N   LIG    1        5.424   9.538   0.572  0.00  0.00    -0.530 NA
ATOM      6  C   LIG    1        5.394   8.087   0.347  0.00  0.00    +0.200 C 
ENDROOT
BRANCH   1   8
ATOM      7  C   LIG    1        4.588   5.834  -1.264  0.00  0.00    +0.200 C 
ATOM      8  N   LIG    1        3.913   6.167  -0.002  0.00  0.00    -0.520 NA
BRANCH   8   9
ATOM      9  C   LIG    1        2.535   5.659   0.008  0.00  0.00    +0.220 C 
BRANCH   9  10
ATOM     10  C   LIG    1        2.555   4.152   0.000  0.00  0.00    +0.520 C 
ATOM     11  N   LIG    1        1.398   3.462   0.007  0.00  0.00    -0.740 N 
ATOM     12  H   LIG    1        0.551   3.936   0.018  0.00  0.00    +0.400 HD
ATOM     13  O   LIG    1        3.614   3.560  -0.013  0.00  0.00    -0.510 OA
BRANCH  11  14
ATOM     14  C   LIG    1        1.417   1.997  -0.001  0.00  0.00    +0.280 C 
BRANCH  14  15
ATOM     15  C   LIG    1       -0.018   1.468   0.010  0.00  0.00    +0.210 C 
BRANCH  15  16
ATOM     16  C   LIG    1        0.002  -0.004   0.002  0.00  0.00    +0.200 C 
ATOM     17  N   LIG    1        0.018  -1.140  -0.004  0.00  0.00    -0.420 NA
ENDBRANCH  15  16
ENDBRANCH  14  15
ENDBRANCH  11  14
ENDBRANCH   9  10
ENDBRANCH   8   9
ENDBRANCH   1   8
BRANCH   5  18
ATOM     18  C   LIG    1        6.795  10.005   0.815  0.00  0.00    +0.330 C 
BRANCH  18  19
ATOM     19  C   LIG    1        6.823  11.512   0.796  0.00  0.00    +0.170 A 
ATOM     20  N   LIG    1        6.650  12.297   1.817  0.00  0.00    -0.360 NA
ATOM     21  O   LIG    1        6.733  13.457   1.473  0.00  0.00    +0.080 OA
ATOM     22  C   LIG    1        6.973  13.525   0.160  0.00  0.00    +0.210 A 
ATOM     23  N   LIG    1        7.038  12.291  -0.279  0.00  0.00    -0.480 NA
BRANCH  22  24
ATOM     24  C   LIG    1        7.144  14.779  -0.658  0.00  0.00    +0.070 C 
ATOM     25  C   LIG    1        7.238  16.107   0.097  0.00  0.00    +0.070 C 
ATOM     26  C   LIG    1        5.973  15.763  -0.694  0.00  0.00    +0.070 C 
ENDBRANCH  22  24
ENDBRANCH  18  19
ENDBRANCH   5  18
TORSDOF 9
