REMARK  Name = ZINCrH00000No4Z5.0
REMARK                            x       y       z     vdW  Elec       q    Type
REMARK                         _______ _______ _______ _____ _____    ______ ____
ROOT
ATOM      1  N   LIG    1        4.088   1.179  -5.162  0.00  0.00    -0.670 N 
ATOM      2  H   LIG    1        3.858   1.693  -5.951  0.00  0.00    +0.420 HD
ATOM      3  C   LIG    1        5.015   0.203  -5.240  0.00  0.00    +0.560 C 
ATOM      4  O   LIG    1        5.235  -0.506  -4.275  0.00  0.00    -0.520 OA
ENDROOT
BRANCH   1   8
ATOM      5  C   LIG    1        2.215   1.983  -1.530  0.00  0.00    -0.700 A 
ATOM      6  C   LIG    1        3.534   1.566  -1.548  0.00  0.00    +0.140 A 
ATOM      7  C   LIG    1        4.156   1.293  -2.751  0.00  0.00    +0.010 A 
ATOM      8  C   LIG    1        3.460   1.449  -3.942  0.00  0.00    +0.210 A 
ATOM      9  C   LIG    1        2.137   1.873  -3.920  0.00  0.00    -0.030 A 
ATOM     10  C   LIG    1        1.519   2.139  -2.714  0.00  0.00    +0.140 A 
BRANCH   5  11
ATOM     11  S   LIG    1        1.423   2.324   0.007  0.00  0.00    +2.700 S 
ATOM     12  O   LIG    1        2.458   2.618   0.935  0.00  0.00    -0.960 OA
ATOM     13  O   LIG    1        0.359   3.221  -0.281  0.00  0.00    -0.960 OA
BRANCH  11  14
ATOM     14  N   LIG    1        0.721   0.915   0.519  0.00  0.00    -1.110 NA
ATOM     15  H   LIG    1       -0.245   0.850   0.586  0.00  0.00    +0.420 HD
BRANCH  14  17
ATOM     16  C   LIG    1        0.919  -0.997   2.032  0.00  0.00    +0.030 C 
ATOM     17  C   LIG    1        1.557  -0.236   0.868  0.00  0.00    +0.230 C 
ATOM     18  C   LIG    1        1.677  -1.164  -0.343  0.00  0.00    +0.010 C 
ENDBRANCH  14  17
ENDBRANCH  11  14
ENDBRANCH   5  11
ENDBRANCH   1   8
BRANCH   3  19
ATOM     19  C   LIG    1        5.731   0.003  -6.444  0.00  0.00    -0.090 C 
ATOM     20  C   LIG    1        6.663  -0.979  -6.523  0.00  0.00    +0.190 C 
BRANCH  20  21
ATOM     21  C   LIG    1        7.380  -1.180  -7.728  0.00  0.00    -0.030 A 
ATOM     22  C   LIG    1        7.228  -0.458  -8.894  0.00  0.00    +0.020 A 
ATOM     23  C   LIG    1        8.137  -0.995  -9.818  0.00  0.00    -0.050 A 
ATOM     24  C   LIG    1        8.787  -2.006  -9.198  0.00  0.00    +0.060 A 
ATOM     25  O   LIG    1        8.329  -2.114  -7.942  0.00  0.00    -0.160 OA
BRANCH  24  26
ATOM     26  C   LIG    1        9.852  -2.872  -9.818  0.00  0.00    +0.050 C 
ATOM     27  C   LIG    1       10.611  -3.828  -8.896  0.00  0.00    +0.050 C 
ATOM     28  C   LIG    1        9.586  -4.377  -9.891  0.00  0.00    -0.020 C 
ATOM     29  C   LIG    1       10.118  -5.131 -11.111  0.00  0.00    +0.060 C 
ENDBRANCH  24  26
ENDBRANCH  20  21
ENDBRANCH   3  19
TORSDOF 7
