REMARK  Name = ZINCpk000000oY35.0
REMARK                            x       y       z     vdW  Elec       q    Type
REMARK                         _______ _______ _______ _____ _____    ______ ____
ROOT
ATOM      1  C   LIG    1        3.447   3.504  -0.114  0.00  0.00    +0.520 C 
ATOM      2  N   LIG    1        3.512   2.161  -0.020  0.00  0.00    -0.670 N 
ATOM      3  H   LIG    1        4.374   1.720   0.045  0.00  0.00    +0.420 HD
ATOM      4  O   LIG    1        2.370   4.062  -0.100  0.00  0.00    -0.510 OA
ENDROOT
BRANCH   1  10
ATOM      5  C   LIG    1        8.009   4.470   1.019  0.00  0.00    +0.650 C 
ATOM      6  N   LIG    1        6.759   4.965   0.924  0.00  0.00    -0.590 N 
ATOM      7  C   LIG    1        6.536   6.406   0.746  0.00  0.00    +0.290 C 
ATOM      8  C   LIG    1        5.645   6.620  -0.482  0.00  0.00    +0.020 C 
ATOM      9  C   LIG    1        4.362   5.800  -0.325  0.00  0.00    +0.060 C 
ATOM     10  C   LIG    1        4.713   4.313  -0.235  0.00  0.00    -0.010 C 
ATOM     11  C   LIG    1        5.593   4.073   0.995  0.00  0.00    +0.320 C 
ATOM     12  O   LIG    1        8.180   3.276   1.166  0.00  0.00    -0.570 OA
BRANCH   5  13
ATOM     13  O   LIG    1        9.068   5.298   0.953  0.00  0.00    -0.370 OA
BRANCH  13  15
ATOM     14  C   LIG    1       11.454   5.786   0.966  0.00  0.00    +0.070 C 
ATOM     15  C   LIG    1       10.384   4.696   1.063  0.00  0.00    +0.220 C 
ENDBRANCH  13  15
ENDBRANCH   5  13
ENDBRANCH   1  10
BRANCH   2  16
ATOM     16  C   LIG    1        2.335   1.402  -0.018  0.00  0.00    +0.090 A 
ATOM     17  C   LIG    1        1.223   1.822  -0.744  0.00  0.00    +0.100 A 
ATOM     18  C   LIG    1        0.082   1.040  -0.713  0.00  0.00    +0.020 A 
ATOM     19  C   LIG    1        0.083  -0.129   0.036  0.00  0.00    +0.340 A 
ATOM     20  N   LIG    1        1.157  -0.498   0.715  0.00  0.00    -0.480 NA
ATOM     21  C   LIG    1        2.262   0.221   0.708  0.00  0.00    +0.290 A 
BRANCH  19  22
ATOM     22  N   LIG    1       -1.066  -0.927   0.075  0.00  0.00    -0.330 N 
ATOM     23  C   LIG    1       -1.224  -2.085   0.745  0.00  0.00    +0.520 A 
ATOM     24  N   LIG    1       -2.440  -2.516   0.528  0.00  0.00    -0.540 NA
ATOM     25  C   LIG    1       -3.083  -1.671  -0.278  0.00  0.00    +0.450 A 
ATOM     26  N   LIG    1       -2.283  -0.682  -0.582  0.00  0.00    -0.310 NA
ENDBRANCH  19  22
ENDBRANCH   2  16
TORSDOF 5
