REMARK  Name = ZINCpe000000YTOH.0
REMARK                            x       y       z     vdW  Elec       q    Type
REMARK                         _______ _______ _______ _____ _____    ______ ____
ROOT
ATOM      1  N   LIG    1        0.392  -2.638  -1.358  0.00  0.00    -0.520 NA
ATOM      2  C   LIG    1        1.112  -2.260  -2.581  0.00  0.00    +0.190 C 
ATOM      3  C   LIG    1        2.414  -1.546  -2.203  0.00  0.00    +0.290 C 
ATOM      4  N   LIG    1        3.167  -2.406  -1.278  0.00  0.00    -0.610 N 
ATOM      5  C   LIG    1        2.469  -2.937  -0.097  0.00  0.00    +0.300 C 
ATOM      6  C   LIG    1        4.463  -2.700  -1.506  0.00  0.00    +0.560 C 
ATOM      7  O   LIG    1        5.089  -3.356  -0.697  0.00  0.00    -0.530 OA
ATOM      8  C   LIG    1        1.165  -3.596  -0.558  0.00  0.00    +0.170 C 
ENDROOT
BRANCH   6   9
ATOM      9  C   LIG    1        5.122  -2.226  -2.741  0.00  0.00    -0.100 A 
ATOM     10  C   LIG    1        5.849  -3.115  -3.534  0.00  0.00    +0.060 A 
ATOM     11  C   LIG    1        6.463  -2.667  -4.686  0.00  0.00    +0.050 A 
ATOM     12  C   LIG    1        6.358  -1.339  -5.057  0.00  0.00    +0.010 A 
ATOM     13  C   LIG    1        5.638  -0.449  -4.276  0.00  0.00    +0.100 A 
ATOM     14  F   LIG    1        5.540   0.847  -4.644  0.00  0.00    -0.130 F 
ATOM     15  C   LIG    1        5.014  -0.887  -3.123  0.00  0.00    +0.010 A 
ENDBRANCH   6   9
BRANCH   1  16
ATOM     16  C   LIG    1       -0.940  -3.170  -1.675  0.00  0.00    +0.220 C 
BRANCH  16  18
ATOM     17  O   LIG    1       -1.327  -0.967  -2.427  0.00  0.00    -0.520 OA
ATOM     18  C   LIG    1       -1.788  -2.079  -2.277  0.00  0.00    +0.510 C 
ATOM     19  N   LIG    1       -3.055  -2.340  -2.653  0.00  0.00    -0.730 N 
ATOM     20  H   LIG    1       -3.422  -3.230  -2.537  0.00  0.00    +0.400 HD
BRANCH  19  21
ATOM     21  C   LIG    1       -3.879  -1.279  -3.238  0.00  0.00    +0.270 C 
BRANCH  21  22
ATOM     22  C   LIG    1       -5.264  -1.835  -3.575  0.00  0.00    +0.150 C 
ATOM     23  C   LIG    1       -6.141  -0.737  -4.227  0.00  0.00    +0.020 C 
ATOM     24  C   LIG    1       -7.144  -1.605  -5.036  0.00  0.00    +0.010 C 
ATOM     25  C   LIG    1       -6.273  -2.806  -5.461  0.00  0.00    +0.190 C 
ATOM     26  O   LIG    1       -5.158  -2.871  -4.564  0.00  0.00    -0.380 OA
ENDBRANCH  21  22
ENDBRANCH  19  21
ENDBRANCH  16  18
ENDBRANCH   1  16
TORSDOF 5
