REMARK  Name = ZINCrD000000fK6Y.0
REMARK                            x       y       z     vdW  Elec       q    Type
REMARK                         _______ _______ _______ _____ _____    ______ ____
ROOT
ATOM      1  N   LIG    1        9.992  -0.746   2.519  0.00  0.00    -0.670 N 
ATOM      2  H   LIG    1        9.514  -0.727   3.363  0.00  0.00    +0.420 HD
ATOM      3  C   LIG    1        9.309  -0.768   1.358  0.00  0.00    +0.520 C 
ATOM      4  O   LIG    1        9.902  -0.685   0.303  0.00  0.00    -0.510 OA
ENDROOT
BRANCH   1   8
ATOM      5  C   LIG    1       14.162  -0.755   2.487  0.00  0.00    +0.140 A 
ATOM      6  C   LIG    1       13.477  -0.205   3.562  0.00  0.00    +0.060 A 
ATOM      7  C   LIG    1       12.097  -0.201   3.572  0.00  0.00    +0.020 A 
ATOM      8  C   LIG    1       11.393  -0.749   2.508  0.00  0.00    +0.140 A 
ATOM      9  C   LIG    1       12.077  -1.305   1.435  0.00  0.00    +0.060 A 
ATOM     10  C   LIG    1       13.458  -1.303   1.421  0.00  0.00    -0.040 A 
ATOM     11 CL   LIG    1       14.314  -1.993   0.078  0.00  0.00    -0.060 Cl
BRANCH   5  14
ATOM     12  C   LIG    1       17.749  -1.022   3.605  0.00  0.00    +0.110 C 
ATOM     13  C   LIG    1       16.246  -0.914   3.628  0.00  0.00    +0.510 C 
ATOM     14  N   LIG    1       15.564  -0.758   2.476  0.00  0.00    -0.670 N 
ATOM     15  H   LIG    1       16.043  -0.648   1.640  0.00  0.00    +0.410 HD
ATOM     16  O   LIG    1       15.650  -0.967   4.684  0.00  0.00    -0.520 OA
ENDBRANCH   5  14
ENDBRANCH   1   8
BRANCH   3  17
ATOM     17  C   LIG    1        7.807  -0.897   1.369  0.00  0.00    +0.080 C 
BRANCH  17  18
ATOM     18  C   LIG    1        7.284  -0.898  -0.068  0.00  0.00    +0.230 C 
BRANCH  18  19
ATOM     19  C   LIG    1        5.783  -1.027  -0.057  0.00  0.00    +0.190 A 
ATOM     20  N   LIG    1        4.918  -0.044  -0.018  0.00  0.00    -0.460 NA
ATOM     21  C   LIG    1        3.700  -0.632  -0.023  0.00  0.00    +0.210 A 
ATOM     22  N   LIG    1        3.895  -1.924  -0.058  0.00  0.00    -0.360 NA
ATOM     23  O   LIG    1        5.083  -2.166  -0.083  0.00  0.00    +0.090 OA
BRANCH  21  24
ATOM     24  C   LIG    1        2.387   0.061   0.011  0.00  0.00    +0.020 A 
ATOM     25  C   LIG    1        1.193  -0.664   0.003  0.00  0.00    +0.000 A 
ATOM     26  C   LIG    1       -0.006   0.019   0.036  0.00  0.00    +0.270 A 
ATOM     27  N   LIG    1       -0.033   1.337   0.076  0.00  0.00    -0.470 NA
ATOM     28  C   LIG    1        1.071   2.059   0.086  0.00  0.00    +0.270 A 
ATOM     29  C   LIG    1        2.312   1.455   0.054  0.00  0.00    +0.020 A 
ENDBRANCH  21  24
ENDBRANCH  18  19
ENDBRANCH  17  18
ENDBRANCH   3  17
TORSDOF 6
