REMARK  Name = ZINCnE000001SlXk.0
REMARK                            x       y       z     vdW  Elec       q    Type
REMARK                         _______ _______ _______ _____ _____    ______ ____
ROOT
ATOM      1  C   LIG    1        3.553   1.921  -0.022  0.00  0.00    +0.220 C 
ENDROOT
BRANCH   1   3
ATOM      2  O   LIG    1        4.620  -0.184  -0.044  0.00  0.00    -0.550 OA
ATOM      3  C   LIG    1        4.761   1.021  -0.039  0.00  0.00    +0.460 C 
ATOM      4  N   LIG    1        5.999   1.555  -0.048  0.00  0.00    -0.680 NA
BRANCH   4   5
ATOM      5  C   LIG    1        7.114   0.724  -0.064  0.00  0.00    +0.290 A 
ATOM      6  N   LIG    1        7.091  -0.574  -0.065  0.00  0.00    -0.360 NA
ATOM      7  N   LIG    1        8.199  -1.180  -0.085  0.00  0.00    -0.230 NA
ATOM      8  C   LIG    1        9.263  -0.442  -0.091  0.00  0.00    -0.050 A 
ATOM      9  S   LIG    1        8.746   1.245  -0.077  0.00  0.00    +0.010 S 
BRANCH   8  10
ATOM     10  C   LIG    1       10.687  -0.935  -0.107  0.00  0.00    +0.060 C 
ATOM     11  C   LIG    1       10.913  -2.433  -0.322  0.00  0.00    +0.030 C 
ATOM     12  C   LIG    1       11.143  -1.815   1.059  0.00  0.00    +0.020 C 
ENDBRANCH   8  10
ENDBRANCH   4   5
ENDBRANCH   1   3
BRANCH   1  13
ATOM     13  O   LIG    1        2.366   1.125  -0.015  0.00  0.00    -0.280 OA
BRANCH  13  14
ATOM     14  C   LIG    1        1.179   1.786   0.000  0.00  0.00    +0.180 A 
ATOM     15  C   LIG    1       -0.013   1.076   0.008  0.00  0.00    -0.020 A 
ATOM     16  C   LIG    1       -1.218   1.751   0.017  0.00  0.00    +0.110 A 
ATOM     17  C   LIG    1       -1.237   3.133   0.030  0.00  0.00    -0.240 A 
ATOM     18  C   LIG    1       -0.051   3.844   0.023  0.00  0.00    +0.110 A 
ATOM     19  C   LIG    1        1.157   3.174   0.008  0.00  0.00    -0.080 A 
BRANCH  17  20
ATOM     20  C   LIG    1       -2.553   3.867   0.046  0.00  0.00    +0.510 C 
ATOM     21  F   LIG    1       -2.398   5.088   0.711  0.00  0.00    -0.180 F 
ATOM     22  F   LIG    1       -3.511   3.093   0.711  0.00  0.00    -0.180 F 
ATOM     23  F   LIG    1       -2.973   4.101  -1.268  0.00  0.00    -0.180 F 
ENDBRANCH  17  20
ENDBRANCH  13  14
ENDBRANCH   1  13
TORSDOF 6
