REMARK  Name = ZINCrH000004qyHc.0
REMARK                            x       y       z     vdW  Elec       q    Type
REMARK                         _______ _______ _______ _____ _____    ______ ____
ROOT
ATOM      1  C   LIG    1       -5.822   1.265  -2.728  0.00  0.00    +0.570 C 
ATOM      2  N   LIG    1       -5.403   1.347  -4.006  0.00  0.00    -0.630 N 
ATOM      3  H   LIG    1       -4.465   1.501  -4.200  0.00  0.00    +0.410 HD
ATOM      4  O   LIG    1       -6.998   1.072  -2.485  0.00  0.00    -0.520 OA
ENDROOT
BRANCH   1   8
ATOM      5  C   LIG    1       -3.006   1.683   0.363  0.00  0.00    +0.400 A 
ATOM      6  C   LIG    1       -4.334   1.459   0.709  0.00  0.00    -0.010 A 
ATOM      7  C   LIG    1       -5.278   1.324  -0.289  0.00  0.00    +0.170 A 
ATOM      8  C   LIG    1       -4.854   1.409  -1.623  0.00  0.00    -0.200 A 
ATOM      9  C   LIG    1       -3.502   1.630  -1.890  0.00  0.00    +0.340 A 
ATOM     10  N   LIG    1       -2.636   1.758  -0.907  0.00  0.00    -0.500 NA
BRANCH   5  17
ATOM     11  C   LIG    1       -0.013   1.086   0.008  0.00  0.00    +0.160 C 
ATOM     12  C   LIG    1       -0.718   1.572   1.248  0.00  0.00    +0.110 A 
ATOM     13  C   LIG    1       -0.142   1.840   2.442  0.00  0.00    -0.100 A 
ATOM     14  C   LIG    1       -1.145   2.265   3.320  0.00  0.00    +0.100 A 
ATOM     15  N   LIG    1       -2.286   2.254   2.680  0.00  0.00    -0.280 NA
ATOM     16  C   LIG    1       -0.945   2.667   4.759  0.00  0.00    +0.160 C 
ATOM     17  N   LIG    1       -2.048   1.826   1.367  0.00  0.00    -0.330 N 
ENDBRANCH   5  17
ENDBRANCH   1   8
BRANCH   2  18
ATOM     18  C   LIG    1       -6.326   1.210  -5.059  0.00  0.00    -0.010 A 
ATOM     19  C   LIG    1       -6.041   1.272  -6.385  0.00  0.00    +0.050 A 
ATOM     20  N   LIG    1       -7.204   1.092  -7.063  0.00  0.00    -0.360 N 
ATOM     21  N   LIG    1       -8.227   0.916  -6.123  0.00  0.00    -0.280 NA
ATOM     22  C   LIG    1       -4.681   1.499  -6.994  0.00  0.00    +0.150 C 
ATOM     23  C   LIG    1       -7.703   0.980  -4.926  0.00  0.00    +0.260 A 
BRANCH  20  24
ATOM     24  C   LIG    1       -7.361   1.084  -8.520  0.00  0.00    +0.260 C 
ATOM     25  C   LIG    1       -8.369   2.170  -8.949  0.00  0.00    +0.020 C 
ATOM     26  C   LIG    1       -9.145   1.524 -10.124  0.00  0.00    +0.020 C 
ATOM     27  C   LIG    1       -9.285   0.049  -9.672  0.00  0.00    +0.020 C 
ATOM     28  C   LIG    1       -7.943  -0.264  -8.980  0.00  0.00    +0.030 C 
ENDBRANCH  20  24
ENDBRANCH   2  18
TORSDOF 4
