REMARK  Name = ZINCvU0000000ErR.0
REMARK                            x       y       z     vdW  Elec       q    Type
REMARK                         _______ _______ _______ _____ _____    ______ ____
ROOT
ATOM      1  O   LIG    1        0.023  -0.004  -0.002  0.00  0.00    -0.540 OA
ATOM      2  C   LIG    1       -0.014   1.214   0.009  0.00  0.00    +0.560 C 
ATOM      3  N   LIG    1        1.132   1.923  -0.001  0.00  0.00    -0.610 N 
ATOM      4  C   LIG    1        1.104   3.388  -0.111  0.00  0.00    +0.290 C 
ATOM      5  C   LIG    1        1.995   3.816  -1.276  0.00  0.00    +0.040 C 
ATOM      6  C   LIG    1        3.395   3.225  -1.089  0.00  0.00    +0.120 C 
ATOM      7  C   LIG    1        3.308   1.697  -1.081  0.00  0.00    +0.050 C 
ATOM      8  C   LIG    1        2.432   1.246   0.092  0.00  0.00    +0.280 C 
ENDROOT
BRANCH   6   9
ATOM      9  C   LIG    1        4.283   3.672  -2.221  0.00  0.00    +0.250 A 
ATOM     10  N   LIG    1        4.070   3.417  -3.477  0.00  0.00    -0.470 NA
ATOM     11  C   LIG    1        5.069   3.975  -4.213  0.00  0.00    +0.020 A 
ATOM     12  C   LIG    1        5.351   4.023  -5.579  0.00  0.00    +0.080 A 
ATOM     13  C   LIG    1        6.478   4.681  -6.021  0.00  0.00    +0.020 A 
ATOM     14  C   LIG    1        7.332   5.294  -5.117  0.00  0.00    +0.050 A 
ATOM     15  C   LIG    1        7.066   5.255  -3.764  0.00  0.00    +0.050 A 
ATOM     16  C   LIG    1        5.936   4.597  -3.302  0.00  0.00    +0.010 A 
ATOM     17  O   LIG    1        5.411   4.385  -2.075  0.00  0.00    -0.210 OA
ENDBRANCH   6   9
BRANCH   2  18
ATOM     18  C   LIG    1       -1.260   1.883   0.025  0.00  0.00    -0.090 C 
ATOM     19  C   LIG    1       -2.412   1.171   0.132  0.00  0.00    +0.180 C 
BRANCH  19  20
ATOM     20  C   LIG    1       -3.657   1.840   0.148  0.00  0.00    -0.010 A 
ATOM     21  C   LIG    1       -4.898   1.240   0.251  0.00  0.00    +0.010 A 
ATOM     22  C   LIG    1       -5.846   2.266   0.229  0.00  0.00    -0.020 A 
ATOM     23  C   LIG    1       -5.154   3.450   0.113  0.00  0.00    +0.040 A 
ATOM     24  O   LIG    1       -3.839   3.175   0.072  0.00  0.00    -0.150 OA
BRANCH  23  25
ATOM     25  C   LIG    1       -5.755   4.797   0.051  0.00  0.00    -0.060 A 
ATOM     26  C   LIG    1       -6.791   5.062  -0.848  0.00  0.00    +0.080 A 
ATOM     27  C   LIG    1       -7.352   6.321  -0.897  0.00  0.00    +0.010 A 
ATOM     28  C   LIG    1       -6.884   7.325  -0.067  0.00  0.00    +0.060 A 
ATOM     29  C   LIG    1       -5.855   7.073   0.823  0.00  0.00    -0.010 A 
ATOM     30  C   LIG    1       -5.287   5.816   0.888  0.00  0.00    +0.120 A 
ATOM     31  F   LIG    1       -4.282   5.570   1.757  0.00  0.00    -0.130 F 
ENDBRANCH  23  25
ENDBRANCH  19  20
ENDBRANCH   2  18
TORSDOF 4
