REMARK  Name = ZINCpk00001AZiLw.0
REMARK                            x       y       z     vdW  Elec       q    Type
REMARK                         _______ _______ _______ _____ _____    ______ ____
ROOT
ATOM      1  O   LIG    1       -2.977   3.811   5.299  0.00  0.00    -0.520 OA
ATOM      2  C   LIG    1       -1.876   3.780   4.791  0.00  0.00    +0.520 C 
ATOM      3  N   LIG    1       -1.666   2.943   3.768  0.00  0.00    -0.690 N 
ATOM      4  H   LIG    1       -2.398   2.394   3.447  0.00  0.00    +0.420 HD
ATOM      5  C   LIG    1       -0.361   2.835   3.125  0.00  0.00    +0.130 C 
ATOM      6  C   LIG    1        0.759   3.401   3.948  0.00  0.00    +0.540 C 
ATOM      7  N   LIG    1        0.524   4.238   4.967  0.00  0.00    -0.710 N 
ATOM      8  H   LIG    1        1.280   4.564   5.481  0.00  0.00    +0.410 HD
ATOM      9  O   LIG    1        1.902   3.092   3.686  0.00  0.00    -0.510 OA
ATOM     10  C   LIG    1       -0.065   1.431   2.576  0.00  0.00    +0.150 C 
ATOM     11  C   LIG    1       -0.733   1.888   1.268  0.00  0.00    +0.060 C 
ATOM     12  C   LIG    1       -0.356   3.325   1.669  0.00  0.00    +0.090 C 
ATOM     13  C   LIG    1       -0.811   4.681   5.337  0.00  0.00    +0.260 C 
ENDROOT
BRANCH  11  14
ATOM     14  C   LIG    1       -0.017   1.395   0.010  0.00  0.00    +0.440 C 
ATOM     15  F   LIG    1       -0.694   1.858  -1.124  0.00  0.00    -0.180 F 
ATOM     16  F   LIG    1        1.296   1.879  -0.000  0.00  0.00    -0.170 F 
ATOM     17  F   LIG    1        0.002  -0.004   0.002  0.00  0.00    -0.170 F 
ENDBRANCH  11  14
BRANCH  11  18
ATOM     18  O   LIG    1       -2.142   1.654   1.233  0.00  0.00    -0.510 OA
ATOM     19  H   LIG    1       -2.572   1.960   0.423  0.00  0.00    +0.400 HD
ENDBRANCH  11  18
BRANCH  13  20
ATOM     20  C   LIG    1       -1.031   6.095   4.796  0.00  0.00    +0.110 C 
BRANCH  20  21
ATOM     21  C   LIG    1       -0.041   7.036   5.433  0.00  0.00    -0.110 A 
ATOM     22  C   LIG    1       -0.402   7.768   6.548  0.00  0.00    +0.080 A 
ATOM     23  C   LIG    1        0.509   8.628   7.136  0.00  0.00    -0.050 A 
ATOM     24  C   LIG    1        1.777   8.764   6.601  0.00  0.00    +0.070 A 
ATOM     25  C   LIG    1        2.138   8.037   5.482  0.00  0.00    +0.010 A 
ATOM     26 CL   LIG    1        0.057   9.542   8.541  0.00  0.00    -0.050 Cl
ATOM     27  C   LIG    1        1.229   7.172   4.897  0.00  0.00    +0.110 A 
ATOM     28  F   LIG    1        1.580   6.461   3.803  0.00  0.00    -0.130 F 
ENDBRANCH  20  21
ENDBRANCH  13  20
TORSDOF 4
