REMARK  Name = ZINCpk000000ndFo.0
REMARK                            x       y       z     vdW  Elec       q    Type
REMARK                         _______ _______ _______ _____ _____    ______ ____
ROOT
ATOM      1  N   LIG    1        2.389   5.611   0.041  0.00  0.00    -0.720 N 
ATOM      2  H   LIG    1        1.540   6.079   0.040  0.00  0.00    +0.400 HD
ATOM      3  C   LIG    1        2.416   4.263   0.034  0.00  0.00    +0.560 C 
ATOM      4  O   LIG    1        3.480   3.676   0.035  0.00  0.00    -0.520 OA
ENDROOT
BRANCH   3   5
ATOM      5  C   LIG    1        1.150   3.499   0.025  0.00  0.00    -0.110 A 
ATOM      6  C   LIG    1       -0.074   4.171   0.024  0.00  0.00    +0.020 A 
ATOM      7  C   LIG    1       -1.254   3.456   0.016  0.00  0.00    +0.050 A 
ATOM      8  C   LIG    1       -1.230   2.074   0.004  0.00  0.00    +0.000 A 
ATOM      9  C   LIG    1       -0.017   1.396   0.010  0.00  0.00    +0.180 A 
ATOM     10  C   LIG    1        1.174   2.105   0.018  0.00  0.00    +0.070 A 
BRANCH   9  11
ATOM     11  N   LIG    1        0.002  -0.004   0.002  0.00  0.00    -0.570 N 
ATOM     12  C   LIG    1       -1.179  -0.873   0.119  0.00  0.00    +0.260 C 
ATOM     13  C   LIG    1       -0.597  -2.298   0.051  0.00  0.00    +0.270 C 
ATOM     14  N   LIG    1        0.851  -2.081  -0.089  0.00  0.00    -0.730 N 
ATOM     15  H   LIG    1        1.520  -2.780  -0.157  0.00  0.00    +0.440 HD
ATOM     16  C   LIG    1        1.099  -0.765  -0.108  0.00  0.00    +0.700 C 
ATOM     17  O   LIG    1        2.219  -0.302  -0.214  0.00  0.00    -0.560 OA
ENDBRANCH   9  11
ENDBRANCH   3   5
BRANCH   1  18
ATOM     18  C   LIG    1        3.644   6.368   0.050  0.00  0.00    +0.270 C 
BRANCH  18  19
ATOM     19  C   LIG    1        3.335   7.866   0.057  0.00  0.00    +0.290 C 
BRANCH  19  21
ATOM     20  C   LIG    1        4.564   9.970   0.073  0.00  0.00    +0.650 C 
ATOM     21  N   LIG    1        4.590   8.623   0.066  0.00  0.00    -0.710 N 
ATOM     22  H   LIG    1        5.439   8.154   0.067  0.00  0.00    +0.410 HD
ATOM     23  O   LIG    1        3.500  10.558   0.071  0.00  0.00    -0.560 OA
BRANCH  20  24
ATOM     24  O   LIG    1        5.716  10.666   0.081  0.00  0.00    -0.360 OA
BRANCH  24  26
ATOM     25  C   LIG    1        4.851  12.565   1.337  0.00  0.00    +0.040 C 
ATOM     26  C   LIG    1        5.612  12.114   0.088  0.00  0.00    +0.140 C 
ATOM     27  C   LIG    1        4.861  12.578  -1.162  0.00  0.00    +0.040 C 
ATOM     28  C   LIG    1        7.014  12.726   0.097  0.00  0.00    +0.080 C 
ENDBRANCH  24  26
ENDBRANCH  20  24
ENDBRANCH  19  21
ENDBRANCH  18  19
ENDBRANCH   1  18
TORSDOF 7
