REMARK  Name = ZINCpk000000n27B.0
REMARK                            x       y       z     vdW  Elec       q    Type
REMARK                         _______ _______ _______ _____ _____    ______ ____
ROOT
ATOM      1  C   LIG    1        4.565   3.855   0.896  0.00  0.00    +0.550 C 
ATOM      2  N   LIG    1        5.783   3.322   1.118  0.00  0.00    -0.650 N 
ATOM      3  C   LIG    1        6.471   2.070   0.770  0.00  0.00    +0.280 C 
ATOM      4  C   LIG    1        7.324   2.248   2.030  0.00  0.00    -0.010 C 
ATOM      5  C   LIG    1        7.007   3.736   1.821  0.00  0.00    +0.280 C 
ATOM      6  O   LIG    1        4.292   4.950   1.340  0.00  0.00    -0.510 OA
ENDROOT
BRANCH   1   7
ATOM      7  C   LIG    1        3.543   3.089   0.097  0.00  0.00    +0.170 C 
ATOM      8  C   LIG    1        4.090   2.820  -1.306  0.00  0.00    +0.060 C 
BRANCH   7   9
ATOM      9  O   LIG    1        2.341   3.856   0.000  0.00  0.00    -0.280 OA
BRANCH   9  14
ATOM     10  C   LIG    1       -1.211   3.130  -0.413  0.00  0.00    -0.130 A 
ATOM     11  C   LIG    1       -1.162   1.751  -0.639  0.00  0.00    +0.030 A 
ATOM     12  C   LIG    1        0.052   1.096  -0.640  0.00  0.00    +0.040 A 
ATOM     13  C   LIG    1        1.223   1.800  -0.428  0.00  0.00    -0.050 A 
ATOM     14  C   LIG    1        1.186   3.171  -0.208  0.00  0.00    +0.120 A 
ATOM     15  C   LIG    1       -0.026   3.840  -0.199  0.00  0.00    +0.050 A 
BRANCH  10  17
ATOM     16  C   LIG    1       -3.780   3.065  -0.637  0.00  0.00    +0.080 C 
ATOM     17  C   LIG    1       -2.504   3.833  -0.406  0.00  0.00    +0.390 C 
ATOM     18  O   LIG    1       -2.543   5.029  -0.214  0.00  0.00    -0.450 OA
ENDBRANCH  10  17
ENDBRANCH   9  14
ENDBRANCH   7   9
ENDBRANCH   1   7
BRANCH   4  19
ATOM     19  C   LIG    1        8.800   1.890   1.848  0.00  0.00    +0.200 C 
BRANCH  19  20
ATOM     20  N   LIG    1        9.006   0.475   2.188  0.00  0.00    -0.540 NA
ATOM     21  C   LIG    1        8.770   0.237   3.619  0.00  0.00    +0.150 C 
ATOM     22  C   LIG    1        8.936  -1.255   3.917  0.00  0.00    +0.220 C 
ATOM     23  O   LIG    1       10.240  -1.675   3.506  0.00  0.00    -0.390 OA
ATOM     24  C   LIG    1       10.504  -1.459   2.118  0.00  0.00    +0.220 C 
ATOM     25  C   LIG    1       10.354   0.032   1.802  0.00  0.00    +0.160 C 
ENDBRANCH  19  20
ENDBRANCH   4  19
TORSDOF 6
