REMARK  Name = ZINCzw0000000h0y.1
REMARK                            x       y       z     vdW  Elec       q    Type
REMARK                         _______ _______ _______ _____ _____    ______ ____
ROOT
ATOM      1  N   LIG    1       -4.444  -0.194   2.920  0.00  0.00    -0.680 N 
ATOM      2  H   LIG    1       -3.863   0.058   3.655  0.00  0.00    +0.410 HD
ATOM      3  C   LIG    1       -4.065   0.046   1.649  0.00  0.00    +0.710 C 
ATOM      4  N   LIG    1       -2.935   0.736   1.402  0.00  0.00    -0.740 N 
ATOM      5  H   LIG    1       -2.393   1.060   2.138  0.00  0.00    +0.400 HD
ATOM      6  O   LIG    1       -4.744  -0.361   0.726  0.00  0.00    -0.560 OA
ENDROOT
BRANCH   1   9
ATOM      7  C   LIG    1       -4.749  -1.611   5.368  0.00  0.00    +0.110 C 
ATOM      8  C   LIG    1       -5.867  -1.507   4.362  0.00  0.00    -0.100 A 
ATOM      9  C   LIG    1       -5.675  -0.807   3.180  0.00  0.00    +0.170 A 
ATOM     10  C   LIG    1       -6.709  -0.709   2.257  0.00  0.00    +0.040 A 
ATOM     11  C   LIG    1       -7.923  -1.318   2.510  0.00  0.00    +0.050 A 
ATOM     12  C   LIG    1       -8.116  -2.016   3.687  0.00  0.00    +0.020 A 
ATOM     13  C   LIG    1       -7.088  -2.113   4.616  0.00  0.00    +0.130 A 
BRANCH  13  14
ATOM     14  N   LIG    1       -7.286  -2.822   5.809  0.00  0.00    -0.530 N 
ATOM     15  C   LIG    1       -7.745  -2.246   6.927  0.00  0.00    +0.530 C 
ATOM     16  C   LIG    1       -7.843  -3.288   8.020  0.00  0.00    +0.090 C 
ATOM     17  C   LIG    1       -7.346  -4.577   7.335  0.00  0.00    +0.100 C 
ATOM     18  O   LIG    1       -8.038  -1.075   7.044  0.00  0.00    -0.470 OA
ATOM     19  C   LIG    1       -7.025  -4.130   5.926  0.00  0.00    +0.520 C 
ATOM     20  O   LIG    1       -6.599  -4.843   5.043  0.00  0.00    -0.470 OA
ENDBRANCH  13  14
ENDBRANCH   1   9
BRANCH   4  21
ATOM     21  C   LIG    1       -2.523   0.997   0.020  0.00  0.00    +0.350 C 
BRANCH  21  22
ATOM     22  C   LIG    1       -1.236   1.780   0.018  0.00  0.00    -0.100 A 
ATOM     23  C   LIG    1       -0.023   1.117   0.010  0.00  0.00    +0.080 A 
ATOM     24  C   LIG    1        1.158   1.836   0.003  0.00  0.00    +0.030 A 
ATOM     25  C   LIG    1        1.126   3.218   0.010  0.00  0.00    +0.050 A 
ATOM     26  C   LIG    1       -0.087   3.881   0.024  0.00  0.00    -0.160 A 
ATOM     27  C   LIG    1       -1.268   3.163   0.030  0.00  0.00    +0.050 A 
BRANCH  26  28
ATOM     28  C   LIG    1       -0.122   5.388   0.031  0.00  0.00    +0.320 C 
BRANCH  28  29
ATOM     29  N   LIG    1       -0.146   5.884  -1.351  0.00  0.00    -0.380 N 
ATOM     30  C   LIG    1       -1.393   5.462  -2.000  0.00  0.00    +0.240 C 
ATOM     31  C   LIG    1       -1.388   5.906  -3.464  0.00  0.00    +0.070 C 
ATOM     32  C   LIG    1       -1.268   7.432  -3.528  0.00  0.00    +0.060 C 
ATOM     33  C   LIG    1       -0.002   7.867  -2.784  0.00  0.00    -0.010 C 
ATOM     34  C   LIG    1       -0.060   7.349  -1.345  0.00  0.00    +0.290 C 
ATOM     35  H   LIG    1        0.639   5.504  -1.857  0.00  0.00    +0.420 HD
BRANCH  33  36
ATOM     36  C   LIG    1        0.084   9.371  -2.775  0.00  0.00    +0.530 C 
ATOM     37  O   LIG    1        0.098   9.971  -1.721  0.00  0.00    -0.530 OA
ATOM     38  N   LIG    1        0.145  10.050  -3.937  0.00  0.00    -0.840 N 
ATOM     39  H   LIG    1        0.201  11.018  -3.931  0.00  0.00    +0.420 HD
ATOM     40  H   LIG    1        0.134   9.570  -4.780  0.00  0.00    +0.410 HD
ENDBRANCH  33  36
ENDBRANCH  28  29
ENDBRANCH  26  28
ENDBRANCH  21  22
ENDBRANCH   4  21
TORSDOF 7
