REMARK  Name = ZINCzw0000000h0y.0
REMARK                            x       y       z     vdW  Elec       q    Type
REMARK                         _______ _______ _______ _____ _____    ______ ____
ROOT
ATOM      1  N   LIG    1       -2.345   0.934   0.018  0.00  0.00    -0.680 N 
ATOM      2  H   LIG    1       -2.334  -0.032  -0.063  0.00  0.00    +0.410 HD
ATOM      3  C   LIG    1       -1.187   1.623   0.020  0.00  0.00    +0.710 C 
ATOM      4  N   LIG    1       -0.011   0.965   0.024  0.00  0.00    -0.740 N 
ATOM      5  H   LIG    1        0.002  -0.005   0.025  0.00  0.00    +0.400 HD
ATOM      6  O   LIG    1       -1.203   2.839   0.018  0.00  0.00    -0.560 OA
ENDROOT
BRANCH   1   9
ATOM      7  C   LIG    1       -4.681  -0.314  -1.020  0.00  0.00    +0.110 C 
ATOM      8  C   LIG    1       -4.727   1.040  -0.360  0.00  0.00    -0.100 A 
ATOM      9  C   LIG    1       -3.564   1.613   0.133  0.00  0.00    +0.170 A 
ATOM     10  C   LIG    1       -3.611   2.858   0.747  0.00  0.00    +0.040 A 
ATOM     11  C   LIG    1       -4.812   3.531   0.855  0.00  0.00    +0.050 A 
ATOM     12  C   LIG    1       -5.972   2.963   0.365  0.00  0.00    +0.020 A 
ATOM     13  C   LIG    1       -5.933   1.716  -0.244  0.00  0.00    +0.130 A 
BRANCH  13  14
ATOM     14  N   LIG    1       -7.111   1.140  -0.742  0.00  0.00    -0.530 N 
ATOM     15  C   LIG    1       -7.896   0.346  -0.004  0.00  0.00    +0.530 C 
ATOM     16  C   LIG    1       -9.078  -0.098  -0.838  0.00  0.00    +0.090 C 
ATOM     17  C   LIG    1       -8.831   0.576  -2.203  0.00  0.00    +0.090 C 
ATOM     18  O   LIG    1       -7.694   0.034   1.150  0.00  0.00    -0.470 OA
ATOM     19  C   LIG    1       -7.539   1.335  -1.995  0.00  0.00    +0.520 C 
ATOM     20  O   LIG    1       -6.980   2.012  -2.830  0.00  0.00    -0.470 OA
ENDBRANCH  13  14
ENDBRANCH   1   9
BRANCH   4  21
ATOM     21  C   LIG    1        1.248   1.715   0.019  0.00  0.00    +0.350 C 
BRANCH  21  22
ATOM     22  C   LIG    1        2.406   0.751   0.018  0.00  0.00    -0.100 A 
ATOM     23  C   LIG    1        2.944   0.315   1.214  0.00  0.00    +0.070 A 
ATOM     24  C   LIG    1        4.004  -0.574   1.212  0.00  0.00    +0.030 A 
ATOM     25  C   LIG    1        4.532  -1.018   0.015  0.00  0.00    +0.050 A 
ATOM     26  C   LIG    1        3.997  -0.577  -1.182  0.00  0.00    -0.160 A 
ATOM     27  C   LIG    1        2.934   0.307  -1.181  0.00  0.00    +0.050 A 
BRANCH  26  28
ATOM     28  C   LIG    1        4.573  -1.061  -2.488  0.00  0.00    +0.320 C 
BRANCH  28  29
ATOM     29  N   LIG    1        5.646  -0.153  -2.916  0.00  0.00    -0.380 N 
ATOM     30  C   LIG    1        5.079   1.169  -3.207  0.00  0.00    +0.240 C 
ATOM     31  C   LIG    1        6.202   2.141  -3.576  0.00  0.00    +0.050 C 
ATOM     32  C   LIG    1        6.938   1.616  -4.812  0.00  0.00    +0.070 C 
ATOM     33  C   LIG    1        7.462   0.206  -4.522  0.00  0.00    +0.010 C 
ATOM     34  C   LIG    1        6.291  -0.694  -4.119  0.00  0.00    +0.290 C 
ATOM     35  H   LIG    1        6.329  -0.070  -2.179  0.00  0.00    +0.430 HD
BRANCH  33  36
ATOM     36  C   LIG    1        8.464   0.262  -3.398  0.00  0.00    +0.520 C 
ATOM     37  O   LIG    1        8.264  -0.359  -2.376  0.00  0.00    -0.560 OA
ATOM     38  N   LIG    1        9.582   1.003  -3.529  0.00  0.00    -0.830 N 
ATOM     39  H   LIG    1       10.227   1.040  -2.805  0.00  0.00    +0.420 HD
ATOM     40  H   LIG    1        9.741   1.501  -4.346  0.00  0.00    +0.410 HD
ENDBRANCH  33  36
ENDBRANCH  28  29
ENDBRANCH  26  28
ENDBRANCH  21  22
ENDBRANCH   4  21
TORSDOF 7
