REMARK  Name = ZINCpk00000SelWL.0
REMARK                            x       y       z     vdW  Elec       q    Type
REMARK                         _______ _______ _______ _____ _____    ______ ____
ROOT
ATOM      1  N   LIG    1        3.827  -3.913   3.080  0.00  0.00    -0.740 N 
ATOM      2  H   LIG    1        3.195  -4.364   2.499  0.00  0.00    +0.400 HD
ATOM      3  C   LIG    1        4.973  -4.527   3.433  0.00  0.00    +0.710 C 
ATOM      4  N   LIG    1        5.241  -5.768   2.980  0.00  0.00    -0.740 N 
ATOM      5  H   LIG    1        4.608  -6.219   2.400  0.00  0.00    +0.400 HD
ATOM      6  O   LIG    1        5.766  -3.962   4.161  0.00  0.00    -0.580 OA
ENDROOT
BRANCH   4   7
ATOM      7  C   LIG    1        6.487  -6.436   3.365  0.00  0.00    +0.260 C 
ATOM      8  C   LIG    1        6.299  -7.953   3.280  0.00  0.00    +0.040 C 
ATOM      9  C   LIG    1        7.519  -8.649   3.899  0.00  0.00    +0.180 C 
ATOM     10  C   LIG    1        8.764  -8.025   3.316  0.00  0.00    +0.270 A 
ATOM     11  N   LIG    1        9.981  -8.490   3.343  0.00  0.00    -0.540 NA
ATOM     12  C   LIG    1       10.800  -7.645   2.715  0.00  0.00    +0.420 A 
ATOM     13  N   LIG    1       10.107  -6.623   2.278  0.00  0.00    -0.310 NA
ATOM     14  N   LIG    1        8.781  -6.849   2.659  0.00  0.00    -0.370 N 
ATOM     15  C   LIG    1        7.611  -6.006   2.416  0.00  0.00    +0.310 C 
ENDBRANCH   4   7
BRANCH   1  17
ATOM     16  C   LIG    1        2.889  -2.655   4.955  0.00  0.00    +0.040 C 
ATOM     17  C   LIG    1        3.537  -2.564   3.572  0.00  0.00    +0.310 C 
BRANCH  17  18
ATOM     18  C   LIG    1        2.594  -1.874   2.620  0.00  0.00    -0.090 A 
ATOM     19  C   LIG    1        1.552  -2.579   2.049  0.00  0.00    +0.020 A 
ATOM     20  C   LIG    1        0.686  -1.950   1.174  0.00  0.00    +0.030 A 
ATOM     21  C   LIG    1        0.861  -0.609   0.868  0.00  0.00    +0.050 A 
ATOM     22  O   LIG    1        0.002  -0.004   0.002  0.00  0.00    -0.310 OA
ATOM     23  C   LIG    1       -0.017   1.427   0.010  0.00  0.00    +0.220 C 
ATOM     24  C   LIG    1        1.433   1.928  -0.001  0.00  0.00    +0.230 C 
ATOM     25  O   LIG    1        2.092   1.420   1.164  0.00  0.00    -0.310 OA
ATOM     26  C   LIG    1        1.907   0.101   1.445  0.00  0.00    +0.060 A 
ATOM     27  C   LIG    1        2.773  -0.536   2.321  0.00  0.00    +0.040 A 
ENDBRANCH  17  18
ENDBRANCH   1  17
TORSDOF 3
