REMARK  Name = ZINCvU0000000FBL.0
REMARK                            x       y       z     vdW  Elec       q    Type
REMARK                         _______ _______ _______ _____ _____    ______ ____
ROOT
ATOM      1  C   LIG    1        1.116   4.738  -4.510  0.00  0.00    +0.000 C 
ATOM      2  C   LIG    1       -0.054   5.507  -5.135  0.00  0.00    +0.030 C 
ATOM      3  C   LIG    1       -0.794   4.562  -6.084  0.00  0.00    +0.110 C 
ATOM      4  C   LIG    1       -1.151   3.277  -5.378  0.00  0.00    +0.170 A 
ATOM      5  N   LIG    1       -2.096   2.537  -5.923  0.00  0.00    -0.460 NA
ATOM      6  C   LIG    1       -2.490   1.375  -5.404  0.00  0.00    +0.140 A 
ATOM      7  C   LIG    1       -3.500   0.608  -6.015  0.00  0.00    +0.060 A 
ATOM      8  C   LIG    1       -3.876  -0.577  -5.461  0.00  0.00    +0.040 A 
ATOM      9  C   LIG    1       -3.277  -1.047  -4.295  0.00  0.00    +0.030 A 
ATOM     10  C   LIG    1       -2.297  -0.331  -3.675  0.00  0.00    +0.010 A 
ATOM     11  C   LIG    1       -1.885   0.892  -4.217  0.00  0.00    -0.070 A 
ATOM     12  C   LIG    1       -0.872   1.672  -3.608  0.00  0.00    -0.060 A 
ATOM     13  C   LIG    1       -0.518   2.880  -4.207  0.00  0.00    -0.070 A 
ATOM     14  C   LIG    1        0.549   3.705  -3.538  0.00  0.00    +0.080 C 
ENDROOT
BRANCH   1  15
ATOM     15  C   LIG    1        2.027   5.709  -3.756  0.00  0.00    -0.060 C 
ATOM     16  C   LIG    1        3.178   4.933  -3.112  0.00  0.00    +0.020 C 
ATOM     17  C   LIG    1        1.222   6.424  -2.669  0.00  0.00    +0.030 C 
BRANCH  15  19
ATOM     18  C   LIG    1        3.504   7.712  -3.980  0.00  0.00    +0.010 C 
ATOM     19  C   LIG    1        2.593   6.741  -4.734  0.00  0.00    +0.020 C 
ENDBRANCH  15  19
ENDBRANCH   1  15
BRANCH  12  20
ATOM     20  C   LIG    1       -0.210   1.218  -2.368  0.00  0.00    +0.520 C 
ATOM     21  O   LIG    1        0.790   0.531  -2.429  0.00  0.00    -0.480 OA
BRANCH  20  22
ATOM     22  O   LIG    1       -0.715   1.567  -1.168  0.00  0.00    -0.330 OA
BRANCH  22  23
ATOM     23  C   LIG    1       -0.013   1.086   0.008  0.00  0.00    +0.240 C 
BRANCH  23  24
ATOM     24  C   LIG    1       -0.718   1.572   1.248  0.00  0.00    +0.400 C 
ATOM     25  O   LIG    1       -1.714   2.256   1.150  0.00  0.00    -0.420 OA
BRANCH  24  26
ATOM     26  C   LIG    1       -0.198   1.216   2.578  0.00  0.00    -0.170 A 
ATOM     27  C   LIG    1        0.948   0.422   2.695  0.00  0.00    +0.050 A 
ATOM     28  C   LIG    1        1.433   0.098   3.945  0.00  0.00    +0.000 A 
ATOM     29  C   LIG    1        0.782   0.547   5.081  0.00  0.00    +0.050 A 
ATOM     30  C   LIG    1       -0.356   1.327   4.973  0.00  0.00    +0.000 A 
ATOM     31  C   LIG    1       -0.850   1.665   3.731  0.00  0.00    +0.080 A 
ENDBRANCH  24  26
ENDBRANCH  23  24
ENDBRANCH  22  23
ENDBRANCH  20  22
ENDBRANCH  12  20
TORSDOF 7
