REMARK  Name = ZINCtj00000nxsHV.0
REMARK                            x       y       z     vdW  Elec       q    Type
REMARK                         _______ _______ _______ _____ _____    ______ ____
ROOT
ATOM      1  N   LIG    1       -4.358   1.970   0.571  0.00  0.00    -0.690 N 
ATOM      2  H   LIG    1       -4.621   2.276   1.453  0.00  0.00    +0.410 HD
ATOM      3  C   LIG    1       -3.067   1.681   0.315  0.00  0.00    +0.610 C 
ATOM      4  O   LIG    1       -2.737   1.297  -0.791  0.00  0.00    -0.530 OA
ENDROOT
BRANCH   3   5
ATOM      5  C   LIG    1       -2.053   1.830   1.377  0.00  0.00    -0.090 A 
ATOM      6  C   LIG    1       -0.718   1.572   1.248  0.00  0.00    +0.150 A 
ATOM      7  N   LIG    1       -0.151   1.841   2.441  0.00  0.00    -0.390 N 
ATOM      8  N   LIG    1       -1.182   2.262   3.294  0.00  0.00    -0.080 NA
ATOM      9  C   LIG    1       -0.013   1.086   0.008  0.00  0.00    +0.190 C 
ATOM     10  N   LIG    1       -2.288   2.240   2.635  0.00  0.00    -0.170 NA
BRANCH   7  11
ATOM     11  C   LIG    1        1.268   1.717   2.782  0.00  0.00    +0.290 C 
ATOM     12  C   LIG    1        1.450   0.762   3.984  0.00  0.00    +0.090 C 
ATOM     13  C   LIG    1        2.571   1.452   4.805  0.00  0.00    +0.290 C 
ATOM     14  N   LIG    1        2.264   2.897   4.655  0.00  0.00    -0.510 N 
ATOM     15  H   LIG    1        1.525   3.164   5.288  0.00  0.00    +0.440 HD
ATOM     16  H   LIG    1        3.090   3.449   4.832  0.00  0.00    +0.440 HD
ATOM     17  C   LIG    1        1.824   3.073   3.254  0.00  0.00    +0.280 C 
ENDBRANCH   7  11
ENDBRANCH   3   5
BRANCH   1  18
ATOM     18  C   LIG    1       -5.364   1.821  -0.484  0.00  0.00    +0.400 C 
BRANCH  18  22
ATOM     19  C   LIG    1       -9.200   1.182   1.288  0.00  0.00    +0.140 A 
ATOM     20  C   LIG    1       -8.832   0.474   0.153  0.00  0.00    -0.010 A 
ATOM     21  C   LIG    1       -7.592   0.682  -0.417  0.00  0.00    +0.070 A 
ATOM     22  C   LIG    1       -6.717   1.596   0.141  0.00  0.00    -0.140 A 
ATOM     23  C   LIG    1       -7.079   2.299   1.275  0.00  0.00    +0.080 A 
ATOM     24  C   LIG    1       -8.321   2.098   1.847  0.00  0.00    -0.080 A 
BRANCH  19  26
ATOM     25  C   LIG    1      -10.731   1.743   3.018  0.00  0.00    +0.240 C 
ATOM     26  O   LIG    1      -10.420   0.979   1.851  0.00  0.00    -0.310 OA
ENDBRANCH  19  26
ENDBRANCH  18  22
BRANCH  18  27
ATOM     27  C   LIG    1       -5.401   3.072  -1.323  0.00  0.00    +0.190 A 
ATOM     28  N   LIG    1       -5.399   4.295  -0.866  0.00  0.00    -0.480 NA
ATOM     29  C   LIG    1       -5.437   5.152  -1.897  0.00  0.00    +0.140 A 
ATOM     30  C   LIG    1       -5.464   4.434  -3.036  0.00  0.00    +0.130 A 
ATOM     31  N   LIG    1       -5.435   3.114  -2.672  0.00  0.00    -0.450 N 
ATOM     32  C   LIG    1       -5.444   1.963  -3.578  0.00  0.00    +0.320 C 
ENDBRANCH  18  27
ENDBRANCH   1  18
TORSDOF 6
