REMARK  Name = ZINCpk00001AZiHp.0
REMARK                            x       y       z     vdW  Elec       q    Type
REMARK                         _______ _______ _______ _____ _____    ______ ____
ROOT
ATOM      1  C   LIG    1       -2.363  -0.319   0.023  0.00  0.00    +0.550 C 
ATOM      2  N   LIG    1       -1.124  -0.848   0.009  0.00  0.00    -0.640 N 
ATOM      3  H   LIG    1       -1.008  -1.811   0.003  0.00  0.00    +0.410 HD
ATOM      4  O   LIG    1       -2.508   0.890   0.031  0.00  0.00    -0.530 OA
ENDROOT
BRANCH   2   5
ATOM      5  C   LIG    1        0.002  -0.004   0.002  0.00  0.00    +0.010 A 
ATOM      6  C   LIG    1        1.300  -0.402  -0.013  0.00  0.00    +0.200 A 
ATOM      7  N   LIG    1        2.072   0.716  -0.014  0.00  0.00    -0.370 N 
ATOM      8  N   LIG    1        1.219   1.827   0.000  0.00  0.00    -0.250 NA
ATOM      9  C   LIG    1       -0.017   1.398   0.010  0.00  0.00    +0.260 A 
BRANCH   7  10
ATOM     10  C   LIG    1        3.536   0.752  -0.027  0.00  0.00    +0.370 C 
BRANCH  10  11
ATOM     11  C   LIG    1        4.007   1.586  -1.191  0.00  0.00    +0.500 C 
ATOM     12  O   LIG    1        3.199   2.098  -1.936  0.00  0.00    -0.510 OA
ATOM     13  N   LIG    1        5.326   1.761  -1.404  0.00  0.00    -0.850 N 
ATOM     14  H   LIG    1        5.629   2.298  -2.154  0.00  0.00    +0.410 HD
ATOM     15  H   LIG    1        5.973   1.351  -0.808  0.00  0.00    +0.400 HD
ENDBRANCH  10  11
ENDBRANCH   7  10
ENDBRANCH   2   5
BRANCH   1  17
ATOM     16  C   LIG    1       -4.774  -0.665   0.045  0.00  0.00    +0.140 C 
ATOM     17  C   LIG    1       -3.533  -1.196   0.030  0.00  0.00    -0.090 C 
BRANCH  16  25
ATOM     18  C   LIG    1       -9.437  -4.681  -1.272  0.00  0.00    +0.220 C 
ATOM     19  N   LIG    1       -9.256  -4.080   0.056  0.00  0.00    -0.500 N 
ATOM     20  C   LIG    1      -10.501  -3.474   0.531  0.00  0.00    +0.220 C 
ATOM     21  C   LIG    1      -10.768  -2.199  -0.278  0.00  0.00    -0.010 C 
ATOM     22  C   LIG    1       -9.700  -1.170   0.101  0.00  0.00    +0.080 C 
ATOM     23  C   LIG    1       -8.338  -1.819   0.074  0.00  0.00    -0.120 A 
ATOM     24  C   LIG    1       -7.237  -1.002   0.073  0.00  0.00    +0.060 A 
ATOM     25  C   LIG    1       -5.950  -1.546   0.052  0.00  0.00    -0.100 A 
ATOM     26  C   LIG    1       -5.788  -2.937   0.043  0.00  0.00    +0.040 A 
ATOM     27  C   LIG    1       -6.895  -3.750   0.047  0.00  0.00    +0.010 A 
ATOM     28  C   LIG    1       -8.182  -3.198   0.061  0.00  0.00    +0.130 A 
ENDBRANCH  16  25
ENDBRANCH   1  17
TORSDOF 5
