REMARK  Name = ZINCpe000000VPvP.0
REMARK                            x       y       z     vdW  Elec       q    Type
REMARK                         _______ _______ _______ _____ _____    ______ ____
ROOT
ATOM      1  N   LIG    1       -3.509   2.368   0.032  0.00  0.00    -0.630 N 
ATOM      2  C   LIG    1       -2.534   1.278   0.021  0.00  0.00    +0.520 C 
ATOM      3  N   LIG    1       -1.191   1.870   0.018  0.00  0.00    -0.640 N 
ATOM      4  C   LIG    1       -1.390   3.326   0.033  0.00  0.00    +0.290 C 
ATOM      5  C   LIG    1       -0.014   1.212   0.009  0.00  0.00    +0.740 C 
ATOM      6  N   LIG    1        1.143   1.901   0.001  0.00  0.00    -0.740 N 
ATOM      7  H   LIG    1        1.130   2.871   0.007  0.00  0.00    +0.400 HD
ATOM      8  O   LIG    1        0.002  -0.004   0.002  0.00  0.00    -0.570 OA
ATOM      9  C   LIG    1       -2.880   3.555   0.035  0.00  0.00    +0.530 C 
ATOM     10  O   LIG    1       -3.425   4.639   0.043  0.00  0.00    -0.490 OA
ENDROOT
BRANCH   1  11
ATOM     11  C   LIG    1       -4.963   2.191   0.037  0.00  0.00    +0.340 C 
BRANCH  11  12
ATOM     12  C   LIG    1       -5.463   2.121   1.481  0.00  0.00    +0.160 C 
BRANCH  12  14
ATOM     13  C   LIG    1       -5.666   3.417   3.488  0.00  0.00    +0.200 C 
ATOM     14  O   LIG    1       -5.233   3.375   2.126  0.00  0.00    -0.380 OA
ENDBRANCH  12  14
ENDBRANCH  11  12
ENDBRANCH   1  11
BRANCH   6  15
ATOM     15  C   LIG    1        2.422   1.186  -0.015  0.00  0.00    +0.340 C 
BRANCH  15  16
ATOM     16  C   LIG    1        3.554   2.181  -0.020  0.00  0.00    -0.110 A 
ATOM     17  C   LIG    1        4.064   2.638  -1.221  0.00  0.00    +0.050 A 
ATOM     18  C   LIG    1        5.099   3.556  -1.234  0.00  0.00    +0.020 A 
ATOM     19  C   LIG    1        5.631   4.007  -0.038  0.00  0.00    +0.080 A 
ATOM     20  O   LIG    1        6.656   4.908  -0.036  0.00  0.00    -0.320 OA
ATOM     21  C   LIG    1        6.340   6.213   0.454  0.00  0.00    +0.230 C 
ATOM     22  C   LIG    1        6.444   6.260   1.970  0.00  0.00    -0.010 C 
ATOM     23  C   LIG    1        5.416   5.368   2.649  0.00  0.00    +0.230 C 
ATOM     24  O   LIG    1        5.655   3.993   2.341  0.00  0.00    -0.320 OA
ATOM     25  C   LIG    1        5.123   3.543   1.168  0.00  0.00    +0.060 A 
ATOM     26  C   LIG    1        4.083   2.630   1.177  0.00  0.00    +0.050 A 
ENDBRANCH  15  16
ENDBRANCH   6  15
TORSDOF 5
