REMARK  Name = ZINCpk00000eb5Uf.0
REMARK                            x       y       z     vdW  Elec       q    Type
REMARK                         _______ _______ _______ _____ _____    ______ ____
ROOT
ATOM      1  C   LIG    1       -1.488   4.044   4.902  0.00  0.00    +0.170 C 
ATOM      2  C   LIG    1       -1.406   4.405   6.388  0.00  0.00    +0.170 C 
ATOM      3  N   LIG    1       -1.881   5.783   6.579  0.00  0.00    -0.520 NA
ATOM      4  C   LIG    1       -1.078   6.726   5.786  0.00  0.00    +0.140 C 
ATOM      5  C   LIG    1       -1.163   6.341   4.307  0.00  0.00    +0.230 C 
ATOM      6  O   LIG    1       -0.727   4.989   4.145  0.00  0.00    -0.380 OA
ENDROOT
BRANCH   1   7
ATOM      7  C   LIG    1       -0.920   2.640   4.686  0.00  0.00    +0.340 C 
BRANCH   7  11
ATOM      8  C   LIG    1       -0.013   1.086   0.008  0.00  0.00    +0.110 C 
ATOM      9  C   LIG    1       -0.718   1.572   1.248  0.00  0.00    -0.240 A 
ATOM     10  C   LIG    1       -0.138   1.839   2.441  0.00  0.00    +0.230 A 
ATOM     11  N   LIG    1       -1.107   2.248   3.287  0.00  0.00    -0.370 N 
ATOM     12  N   LIG    1       -2.322   2.232   2.591  0.00  0.00    -0.290 NA
ATOM     13  C   LIG    1       -2.087   1.833   1.367  0.00  0.00    +0.230 A 
ENDBRANCH   7  11
ENDBRANCH   1   7
BRANCH   3  14
ATOM     14  C   LIG    1       -1.873   6.151   8.001  0.00  0.00    +0.160 C 
BRANCH  14  15
ATOM     15  C   LIG    1       -2.600   7.484   8.188  0.00  0.00    +0.230 C 
BRANCH  15  16
ATOM     16  O   LIG    1       -3.978   7.327   7.846  0.00  0.00    -0.540 OA
ATOM     17  H   LIG    1       -4.444   6.671   8.382  0.00  0.00    +0.370 HD
ENDBRANCH  15  16
BRANCH  15  18
ATOM     18  C   LIG    1       -2.483   7.929   9.647  0.00  0.00    +0.140 C 
BRANCH  18  19
ATOM     19  O   LIG    1       -3.060   9.227   9.797  0.00  0.00    -0.370 OA
BRANCH  19  20
ATOM     20  C   LIG    1       -3.003   9.738  11.130  0.00  0.00    +0.220 C 
BRANCH  20  21
ATOM     21  C   LIG    1       -3.636  11.105  11.171  0.00  0.00    -0.090 A 
ATOM     22  C   LIG    1       -2.864  12.232  10.960  0.00  0.00    +0.020 A 
ATOM     23  C   LIG    1       -3.445  13.485  10.993  0.00  0.00    +0.000 A 
ATOM     24  C   LIG    1       -4.798  13.613  11.248  0.00  0.00    +0.010 A 
ATOM     25  C   LIG    1       -5.569  12.487  11.465  0.00  0.00    +0.000 A 
ATOM     26  C   LIG    1       -4.989  11.233  11.427  0.00  0.00    +0.020 A 
ENDBRANCH  20  21
ENDBRANCH  19  20
ENDBRANCH  18  19
ENDBRANCH  15  18
ENDBRANCH  14  15
ENDBRANCH   3  14
TORSDOF 9
