REMARK  Name = ZINCpk00000j8DKi.0
REMARK                            x       y       z     vdW  Elec       q    Type
REMARK                         _______ _______ _______ _____ _____    ______ ____
ROOT
ATOM      1  C   LIG    1       -0.695   1.377   1.198  0.00  0.00    +0.220 C 
ATOM      2  C   LIG    1        0.526   2.085   0.602  0.00  0.00    +0.040 C 
ATOM      3  C   LIG    1        0.178   2.604  -0.795  0.00  0.00    +0.020 C 
ATOM      4  C   LIG    1       -0.966   3.615  -0.696  0.00  0.00    +0.010 C 
ATOM      5  C   LIG    1       -2.204   2.925  -0.114  0.00  0.00    +0.270 C 
ATOM      6  N   LIG    1       -1.839   2.298   1.163  0.00  0.00    -0.600 N 
ATOM      7  C   LIG    1       -2.541   2.563   2.283  0.00  0.00    +0.550 C 
ATOM      8  O   LIG    1       -2.139   2.167   3.360  0.00  0.00    -0.500 OA
ENDROOT
BRANCH   7   9
ATOM      9  C   LIG    1       -3.799   3.335   2.202  0.00  0.00    -0.130 A 
ATOM     10  C   LIG    1       -4.446   3.493   0.975  0.00  0.00    +0.040 A 
ATOM     11  C   LIG    1       -5.622   4.210   0.907  0.00  0.00    +0.000 A 
ATOM     12  C   LIG    1       -6.155   4.782   2.049  0.00  0.00    +0.040 A 
ATOM     13  C   LIG    1       -5.516   4.633   3.267  0.00  0.00    +0.000 A 
ATOM     14  C   LIG    1       -4.342   3.913   3.350  0.00  0.00    +0.070 A 
ENDBRANCH   7   9
BRANCH   1  17
ATOM     15  N   LIG    1       -0.754  -0.238   3.071  0.00  0.00    -0.720 N 
ATOM     16  H   LIG    1       -1.193  -0.865   2.475  0.00  0.00    +0.400 HD
ATOM     17  C   LIG    1       -0.404   0.984   2.624  0.00  0.00    +0.540 C 
ATOM     18  O   LIG    1        0.145   1.768   3.369  0.00  0.00    -0.520 OA
BRANCH  15  24
ATOM     19  C   LIG    1        1.553  -3.464   7.744  0.00  0.00    +0.090 C 
ATOM     20  C   LIG    1        1.814  -2.617   6.525  0.00  0.00    +0.530 C 
ATOM     21  N   LIG    1        0.782  -2.176   5.778  0.00  0.00    -0.620 N 
ATOM     22  C   LIG    1       -0.640  -2.447   6.036  0.00  0.00    +0.260 C 
ATOM     23  C   LIG    1       -1.450  -1.723   4.940  0.00  0.00    +0.030 C 
ATOM     24  C   LIG    1       -0.472  -0.619   4.457  0.00  0.00    +0.250 C 
ATOM     25  C   LIG    1        0.893  -1.344   4.566  0.00  0.00    +0.240 C 
ATOM     26  O   LIG    1        2.951  -2.331   6.217  0.00  0.00    -0.540 OA
ENDBRANCH  15  24
ENDBRANCH   1  17
TORSDOF 3
