REMARK  Name = ZINCpe000000UjOW.0
REMARK                            x       y       z     vdW  Elec       q    Type
REMARK                         _______ _______ _______ _____ _____    ______ ____
ROOT
ATOM      1  N   LIG    1       -1.601  -1.201  -1.371  0.00  0.00    -0.740 N 
ATOM      2  H   LIG    1       -1.105  -0.817  -2.111  0.00  0.00    +0.400 HD
ATOM      3  C   LIG    1       -2.660  -1.999  -1.613  0.00  0.00    +0.710 C 
ATOM      4  N   LIG    1       -3.029  -2.264  -2.881  0.00  0.00    -0.740 N 
ATOM      5  H   LIG    1       -2.533  -1.879  -3.621  0.00  0.00    +0.400 HD
ATOM      6  O   LIG    1       -3.281  -2.481  -0.685  0.00  0.00    -0.590 OA
ENDROOT
BRANCH   1   7
ATOM      7  C   LIG    1       -1.200  -0.914   0.008  0.00  0.00    +0.420 C 
BRANCH   7  12
ATOM      8  N   LIG    1       -0.016   1.351   0.009  0.00  0.00    -0.470 N 
ATOM      9  C   LIG    1        1.281   1.743  -0.001  0.00  0.00    +0.380 A 
ATOM     10  N   LIG    1        2.013   0.662  -0.014  0.00  0.00    -0.290 NA
ATOM     11  N   LIG    1        1.253  -0.375  -0.012  0.00  0.00    -0.270 NA
ATOM     12  C   LIG    1        0.002  -0.004   0.002  0.00  0.00    +0.150 A 
BRANCH   8  14
ATOM     13  C   LIG    1       -1.677   2.408   1.460  0.00  0.00    +0.050 C 
ATOM     14  C   LIG    1       -1.198   2.216   0.020  0.00  0.00    +0.300 C 
ENDBRANCH   8  14
ENDBRANCH   7  12
ENDBRANCH   1   7
BRANCH   4  15
ATOM     15  C   LIG    1       -4.180  -3.132  -3.143  0.00  0.00    +0.270 C 
BRANCH  15  16
ATOM     16  C   LIG    1       -4.383  -3.267  -4.654  0.00  0.00    +0.270 C 
BRANCH  16  17
ATOM     17  C   LIG    1       -5.638  -4.058  -4.923  0.00  0.00    -0.110 A 
ATOM     18  C   LIG    1       -5.561  -5.418  -5.150  0.00  0.00    +0.040 A 
ATOM     19  C   LIG    1       -6.716  -6.147  -5.393  0.00  0.00    +0.100 A 
ATOM     20  C   LIG    1       -7.946  -5.508  -5.419  0.00  0.00    -0.030 A 
ATOM     21  C   LIG    1       -8.023  -4.146  -5.197  0.00  0.00    -0.030 A 
ATOM     22  C   LIG    1       -6.868  -3.419  -4.949  0.00  0.00    +0.100 A 
BRANCH  19  23
ATOM     23  O   LIG    1       -6.641  -7.487  -5.611  0.00  0.00    -0.320 OA
ATOM     24  C   LIG    1       -7.869  -8.173  -5.860  0.00  0.00    +0.250 C 
ENDBRANCH  19  23
BRANCH  22  25
ATOM     25  O   LIG    1       -6.943  -2.079  -4.731  0.00  0.00    -0.320 OA
ATOM     26  C   LIG    1       -8.243  -1.486  -4.772  0.00  0.00    +0.250 C 
ENDBRANCH  22  25
ENDBRANCH  16  17
BRANCH  16  27
ATOM     27  O   LIG    1       -3.262  -3.943  -5.227  0.00  0.00    -0.550 OA
ATOM     28  H   LIG    1       -3.119  -4.833  -4.877  0.00  0.00    +0.380 HD
ENDBRANCH  16  27
ENDBRANCH  15  16
ENDBRANCH   4  15
TORSDOF 9
