REMARK  Name = ZINCvU0000000J5a.0
REMARK                            x       y       z     vdW  Elec       q    Type
REMARK                         _______ _______ _______ _____ _____    ______ ____
ROOT
ATOM      1  C   LIG    1       -1.083   4.769   3.074  0.00  0.00    +0.510 C 
ATOM      2  N   LIG    1       -1.401   3.623   2.440  0.00  0.00    -0.730 N 
ATOM      3  H   LIG    1       -2.216   3.151   2.672  0.00  0.00    +0.400 HD
ATOM      4  O   LIG    1       -0.065   5.360   2.784  0.00  0.00    -0.530 OA
ENDROOT
BRANCH   2   5
ATOM      5  C   LIG    1       -0.517   3.092   1.400  0.00  0.00    +0.340 C 
ATOM      6  C   LIG    1       -0.730   1.580   1.268  0.00  0.00    +0.040 C 
ATOM      7  C   LIG    1       -0.013   1.086   0.008  0.00  0.00    +0.030 C 
ATOM      8  C   LIG    1       -0.753   1.593  -1.231  0.00  0.00    +0.130 C 
ATOM      9  C   LIG    1       -0.951   3.098  -1.103  0.00  0.00    +0.080 A 
ATOM     10  N   LIG    1       -1.245   3.882  -2.126  0.00  0.00    -0.470 NA
ATOM     11  C   LIG    1       -1.391   5.151  -1.898  0.00  0.00    +0.110 A 
ATOM     12  S   LIG    1       -1.139   5.458  -0.183  0.00  0.00    +0.130 S 
ATOM     13  C   LIG    1       -0.842   3.743   0.076  0.00  0.00    -0.240 A 
BRANCH  11  14
ATOM     14  C   LIG    1       -1.719   6.174  -2.914  0.00  0.00    -0.030 A 
ATOM     15  C   LIG    1       -1.857   7.512  -2.542  0.00  0.00    +0.020 A 
ATOM     16  C   LIG    1       -2.157   8.463  -3.497  0.00  0.00    +0.010 A 
ATOM     17  C   LIG    1       -2.332   8.090  -4.817  0.00  0.00    +0.030 A 
ATOM     18  C   LIG    1       -2.201   6.764  -5.191  0.00  0.00    +0.010 A 
ATOM     19  C   LIG    1       -1.896   5.805  -4.248  0.00  0.00    +0.060 A 
ENDBRANCH  11  14
ENDBRANCH   2   5
BRANCH   1  20
ATOM     20  C   LIG    1       -1.993   5.316   4.144  0.00  0.00    +0.050 C 
BRANCH  20  21
ATOM     21  C   LIG    1       -1.405   6.615   4.699  0.00  0.00    +0.130 C 
BRANCH  21  28
ATOM     22  C   LIG    1       -3.802   8.639   4.249  0.00  0.00    +0.150 C 
ATOM     23  C   LIG    1       -3.373   8.055   5.571  0.00  0.00    +0.080 A 
ATOM     24  N   LIG    1       -3.929   8.293   6.731  0.00  0.00    -0.290 NA
ATOM     25  N   LIG    1       -3.235   7.565   7.707  0.00  0.00    -0.370 N 
ATOM     26  C   LIG    1       -2.250   6.880   7.090  0.00  0.00    +0.090 A 
ATOM     27  C   LIG    1       -1.255   5.963   7.755  0.00  0.00    +0.140 C 
ATOM     28  C   LIG    1       -2.315   7.161   5.768  0.00  0.00    -0.240 A 
BRANCH  25  29
ATOM     29  C   LIG    1       -3.527   7.551   9.142  0.00  0.00    +0.320 C 
BRANCH  29  30
ATOM     30  C   LIG    1       -2.733   8.660   9.835  0.00  0.00    -0.040 C 
ATOM     31  C   LIG    1       -2.941   8.567  11.348  0.00  0.00    +0.030 C 
ATOM     32  C   LIG    1       -3.218  10.023   9.337  0.00  0.00    +0.020 C 
ENDBRANCH  29  30
ENDBRANCH  25  29
ENDBRANCH  21  28
ENDBRANCH  20  21
ENDBRANCH   1  20
TORSDOF 7
