REMARK  Name = ZINCkj000005kF6K.2
REMARK                            x       y       z     vdW  Elec       q    Type
REMARK                         _______ _______ _______ _____ _____    ______ ____
ROOT
ATOM      1  N   LIG    1       -0.012   1.005   0.008  0.00  0.00    -0.390 N 
ATOM      2  C   LIG    1        1.367   1.513  -0.003  0.00  0.00    +0.250 C 
ATOM      3  C   LIG    1        2.343   0.338  -0.070  0.00  0.00    +0.050 C 
ATOM      4  C   LIG    1        3.127   0.251   1.241  0.00  0.00    +0.040 C 
ATOM      5  C   LIG    1        2.762  -1.045   1.969  0.00  0.00    +0.010 C 
ATOM      6  C   LIG    1        2.218  -0.713   3.360  0.00  0.00    +0.290 C 
ATOM      7  N   LIG    1        0.779  -1.058   3.401  0.00  0.00    -1.110 NA
ATOM      8  H   LIG    1        0.473  -1.974   3.315  0.00  0.00    +0.420 HD
ATOM      9  S   LIG    1       -0.288   0.208   3.603  0.00  0.00    +2.600 S 
ATOM     10  C   LIG    1       -1.187   0.278   2.029  0.00  0.00    -0.360 C 
ATOM     11  O   LIG    1        0.544   1.350   3.757  0.00  0.00    -0.930 OA
ATOM     12  O   LIG    1       -1.147  -0.220   4.651  0.00  0.00    -0.920 OA
ATOM     13  C   LIG    1       -0.699   1.479   1.216  0.00  0.00    +0.300 C 
ATOM     14  H   LIG    1        0.002  -0.004   0.002  0.00  0.00    +0.420 HD
ENDROOT
BRANCH   1  15
ATOM     15  C   LIG    1       -0.722   1.492  -1.183  0.00  0.00    +0.260 C 
BRANCH  15  16
ATOM     16  C   LIG    1       -2.116   0.863  -1.237  0.00  0.00    +0.140 C 
BRANCH  16  20
ATOM     17  C   LIG    1       -3.951   4.355  -4.248  0.00  0.00    +0.190 C 
ATOM     18  C   LIG    1       -3.657   2.950  -3.789  0.00  0.00    +0.060 A 
ATOM     19  N   LIG    1       -3.021   2.644  -2.709  0.00  0.00    -0.480 NA
ATOM     20  C   LIG    1       -2.845   1.362  -2.458  0.00  0.00    +0.050 A 
ATOM     21  C   LIG    1       -3.370   0.541  -3.372  0.00  0.00    -0.080 A 
ATOM     22  S   LIG    1       -4.124   1.531  -4.620  0.00  0.00    +0.180 S 
ENDBRANCH  16  20
ENDBRANCH  15  16
ENDBRANCH   1  15
TORSDOF 3
