REMARK  Name = ZINCkj000005kF6K.1
REMARK                            x       y       z     vdW  Elec       q    Type
REMARK                         _______ _______ _______ _____ _____    ______ ____
ROOT
ATOM      1  N   LIG    1       -0.386   3.898   1.978  0.00  0.00    -0.390 N 
ATOM      2  C   LIG    1        0.183   2.544   2.027  0.00  0.00    +0.250 C 
ATOM      3  C   LIG    1       -0.729   1.579   1.267  0.00  0.00    +0.050 C 
ATOM      4  C   LIG    1       -0.013   1.086   0.008  0.00  0.00    +0.030 C 
ATOM      5  C   LIG    1       -0.753   1.593  -1.232  0.00  0.00    +0.010 C 
ATOM      6  C   LIG    1        0.204   2.416  -2.096  0.00  0.00    +0.290 C 
ATOM      7  N   LIG    1       -0.228   3.832  -2.064  0.00  0.00    -1.110 NA
ATOM      8  H   LIG    1       -1.080   4.112  -2.433  0.00  0.00    +0.420 HD
ATOM      9  S   LIG    1        0.824   4.920  -1.362  0.00  0.00    +2.600 S 
ATOM     10  C   LIG    1       -0.049   5.470   0.130  0.00  0.00    -0.360 C 
ATOM     11  O   LIG    1        0.918   5.978  -2.305  0.00  0.00    -0.920 OA
ATOM     12  O   LIG    1        1.960   4.139  -1.018  0.00  0.00    -0.930 OA
ATOM     13  C   LIG    1        0.582   4.814   1.361  0.00  0.00    +0.300 C 
ATOM     14  H   LIG    1       -1.234   3.886   1.431  0.00  0.00    +0.420 HD
ENDROOT
BRANCH   1  15
ATOM     15  C   LIG    1       -0.690   4.351   3.341  0.00  0.00    +0.260 C 
BRANCH  15  16
ATOM     16  C   LIG    1       -1.397   5.707   3.282  0.00  0.00    +0.140 C 
BRANCH  16  20
ATOM     17  C   LIG    1       -3.357   5.271   7.820  0.00  0.00    +0.190 C 
ATOM     18  C   LIG    1       -2.598   5.949   6.709  0.00  0.00    +0.060 A 
ATOM     19  N   LIG    1       -2.399   5.447   5.537  0.00  0.00    -0.480 NA
ATOM     20  C   LIG    1       -1.708   6.173   4.681  0.00  0.00    +0.050 A 
ATOM     21  C   LIG    1       -1.311   7.358   5.154  0.00  0.00    -0.080 A 
ATOM     22  S   LIG    1       -1.882   7.498   6.815  0.00  0.00    +0.180 S 
ENDBRANCH  16  20
ENDBRANCH  15  16
ENDBRANCH   1  15
TORSDOF 3
