REMARK  Name = ZINCpk00001AZj8a.0
REMARK                            x       y       z     vdW  Elec       q    Type
REMARK                         _______ _______ _______ _____ _____    ______ ____
ROOT
ATOM      1  O   LIG    1       -1.736   2.268  -1.088  0.00  0.00    -0.520 OA
ATOM      2  C   LIG    1       -0.742   1.585  -1.213  0.00  0.00    +0.500 C 
ATOM      3  N   LIG    1       -0.288   1.272  -2.443  0.00  0.00    -0.710 N 
ATOM      4  H   LIG    1        0.507   0.726  -2.543  0.00  0.00    +0.410 HD
ENDROOT
BRANCH   3   5
ATOM      5  C   LIG    1       -0.997   1.758  -3.630  0.00  0.00    +0.250 C 
ATOM      6  C   LIG    1       -0.482   3.159  -4.016  0.00  0.00    +0.020 C 
ATOM      7  C   LIG    1       -0.488   3.153  -5.565  0.00  0.00    +0.030 C 
ATOM      8  C   LIG    1       -0.028   1.712  -5.902  0.00  0.00    +0.020 C 
ATOM      9  C   LIG    1       -0.710   0.837  -4.829  0.00  0.00    +0.160 C 
BRANCH   9  10
ATOM     10  O   LIG    1        0.165  -0.223  -4.434  0.00  0.00    -0.300 OA
BRANCH  10  11
ATOM     11  C   LIG    1        0.037  -1.408  -5.093  0.00  0.00    -0.030 A 
ATOM     12  C   LIG    1        0.768  -2.528  -4.869  0.00  0.00    +0.210 A 
ATOM     13  N   LIG    1        0.331  -3.482  -5.733  0.00  0.00    -0.470 N 
ATOM     14  H   LIG    1        0.671  -4.388  -5.803  0.00  0.00    +0.450 HD
ATOM     15  N   LIG    1       -0.695  -2.924  -6.506  0.00  0.00    -0.270 NA
ATOM     16  C   LIG    1       -0.875  -1.687  -6.120  0.00  0.00    +0.180 A 
ENDBRANCH  10  11
ENDBRANCH   9  10
ENDBRANCH   3   5
BRANCH   2  17
ATOM     17  C   LIG    1       -0.013   1.086   0.008  0.00  0.00    +0.330 C 
BRANCH  17  18
ATOM     18  N   LIG    1       -0.698   1.558   1.213  0.00  0.00    -0.530 N 
ATOM     19  C   LIG    1       -0.413   2.717   1.832  0.00  0.00    +0.530 C 
ATOM     20  C   LIG    1       -1.342   2.827   3.022  0.00  0.00    +0.140 C 
ATOM     21  C   LIG    1       -2.164   1.560   2.965  0.00  0.00    -0.140 A 
ATOM     22  C   LIG    1       -3.171   1.061   3.760  0.00  0.00    +0.060 A 
ATOM     23  C   LIG    1       -3.752  -0.158   3.454  0.00  0.00    -0.010 A 
ATOM     24  C   LIG    1       -3.317  -0.870   2.351  0.00  0.00    +0.050 A 
ATOM     25  C   LIG    1       -2.307  -0.372   1.553  0.00  0.00    -0.020 A 
ATOM     26  O   LIG    1        0.428   3.524   1.498  0.00  0.00    -0.500 OA
ATOM     27  C   LIG    1       -1.718   0.854   1.854  0.00  0.00    +0.150 A 
ENDBRANCH  17  18
ENDBRANCH   2  17
TORSDOF 5
