REMARK  Name = ZINCpe00000gMbr9.0
REMARK                            x       y       z     vdW  Elec       q    Type
REMARK                         _______ _______ _______ _____ _____    ______ ____
ROOT
ATOM      1  C   LIG    1       -0.043   1.522   0.141  0.00  0.00    +0.190 C 
ATOM      2  N   LIG    1       -0.025   0.056   0.053  0.00  0.00    -0.520 NA
ATOM      3  C   LIG    1       -1.389  -0.490   0.085  0.00  0.00    +0.180 C 
ATOM      4  C   LIG    1       -1.339  -1.996  -0.190  0.00  0.00    +0.310 C 
ATOM      5  N   LIG    1       -0.400  -2.614   0.758  0.00  0.00    -1.000 NA
ATOM      6  C   LIG    1        0.946  -2.034   0.882  0.00  0.00    +0.340 C 
ATOM      7  C   LIG    1        0.806  -0.526   1.115  0.00  0.00    +0.220 C 
ENDROOT
BRANCH   7   8
ATOM      8  C   LIG    1        2.170   0.115   1.094  0.00  0.00    +0.200 A 
ATOM      9  N   LIG    1        3.026   0.050   0.111  0.00  0.00    -0.460 NA
ATOM     10  C   LIG    1        4.131   0.736   0.440  0.00  0.00    +0.140 A 
ATOM     11  C   LIG    1        3.952   1.246   1.673  0.00  0.00    +0.130 A 
ATOM     12  N   LIG    1        2.706   0.858   2.086  0.00  0.00    -0.570 N 
ATOM     13  H   LIG    1        2.288   1.073   2.934  0.00  0.00    +0.420 HD
ENDBRANCH   7   8
BRANCH   5  14
ATOM     14  S   LIG    1       -0.846  -3.927   1.663  0.00  0.00    +2.690 S 
ATOM     15  O   LIG    1        0.356  -4.596   2.020  0.00  0.00    -0.950 OA
ATOM     16  O   LIG    1       -1.906  -4.559   0.958  0.00  0.00    -0.950 OA
BRANCH  14  17
ATOM     17  C   LIG    1       -1.540  -3.316   3.162  0.00  0.00    -0.680 A 
ATOM     18  C   LIG    1       -2.896  -3.059   3.241  0.00  0.00    +0.140 A 
ATOM     19  C   LIG    1       -3.444  -2.579   4.415  0.00  0.00    +0.020 A 
ATOM     20  C   LIG    1       -2.634  -2.353   5.518  0.00  0.00    +0.110 A 
ATOM     21  O   LIG    1       -3.187  -1.873   6.666  0.00  0.00    -0.300 OA
ATOM     22  C   LIG    1       -2.411  -2.010   7.861  0.00  0.00    +0.230 C 
ATOM     23  C   LIG    1       -0.974  -1.567   7.554  0.00  0.00    +0.230 C 
ATOM     24  O   LIG    1       -0.459  -2.404   6.512  0.00  0.00    -0.300 OA
ATOM     25  C   LIG    1       -1.271  -2.614   5.440  0.00  0.00    +0.030 A 
ATOM     26  C   LIG    1       -0.729  -3.100   4.261  0.00  0.00    +0.140 A 
ENDBRANCH  14  17
ENDBRANCH   5  14
TORSDOF 3
