REMARK  Name = ZINCrD000000CH7U.0
REMARK                            x       y       z     vdW  Elec       q    Type
REMARK                         _______ _______ _______ _____ _____    ______ ____
ROOT
ATOM      1  O   LIG    1        1.222   2.608  -0.335  0.00  0.00    -0.480 OA
ATOM      2  C   LIG    1        0.316   1.814  -0.502  0.00  0.00    +0.570 C 
ATOM      3  N   LIG    1       -0.955   2.252  -0.602  0.00  0.00    -0.610 N 
ATOM      4  C   LIG    1       -2.134   1.413  -0.879  0.00  0.00    +0.240 C 
ATOM      5  C   LIG    1       -3.175   2.381  -1.494  0.00  0.00    +0.040 C 
ATOM      6  C   LIG    1       -2.921   3.673  -0.674  0.00  0.00    +0.040 C 
ATOM      7  C   LIG    1       -1.395   3.647  -0.447  0.00  0.00    +0.230 C 
ENDROOT
BRANCH   2   8
ATOM      8  C   LIG    1        0.609   0.369  -0.601  0.00  0.00    -0.240 A 
ATOM      9  C   LIG    1       -0.407  -0.582  -0.443  0.00  0.00    +0.350 A 
ATOM     10  N   LIG    1       -0.105  -1.863  -0.544  0.00  0.00    -0.510 NA
ATOM     11  C   LIG    1        1.140  -2.253  -0.781  0.00  0.00    +0.380 A 
ATOM     12  N   LIG    1        2.131  -1.383  -0.931  0.00  0.00    -0.480 NA
ATOM     13  C   LIG    1        1.910  -0.085  -0.850  0.00  0.00    +0.400 A 
BRANCH  11  14
ATOM     14  C   LIG    1        1.434  -3.703  -0.880  0.00  0.00    +0.160 A 
ATOM     15  C   LIG    1        0.406  -4.629  -0.719  0.00  0.00    +0.030 A 
ATOM     16  C   LIG    1        0.695  -5.980  -0.820  0.00  0.00    +0.060 A 
ATOM     17  C   LIG    1        2.006  -6.360  -1.067  0.00  0.00    -0.010 A 
ATOM     18  C   LIG    1        2.979  -5.386  -1.211  0.00  0.00    +0.260 A 
ATOM     19  N   LIG    1        2.676  -4.108  -1.116  0.00  0.00    -0.440 NA
ENDBRANCH  11  14
ENDBRANCH   2   8
BRANCH   7  20
ATOM     20  C   LIG    1       -1.067   4.142   0.963  0.00  0.00    +0.000 C 
BRANCH  20  21
ATOM     21  C   LIG    1        0.451   4.246   1.127  0.00  0.00    +0.320 C 
BRANCH  21  22
ATOM     22  C   LIG    1        0.769   4.998   2.393  0.00  0.00    -0.210 A 
ATOM     23  C   LIG    1        1.120   4.439   3.552  0.00  0.00    +0.000 A 
ATOM     24  C   LIG    1        1.366   5.333   4.580  0.00  0.00    +0.010 A 
ATOM     25  C   LIG    1        1.214   6.618   4.256  0.00  0.00    -0.050 A 
ATOM     26  S   LIG    1        0.742   6.748   2.567  0.00  0.00    +0.090 S 
ENDBRANCH  21  22
BRANCH  21  27
ATOM     27  O   LIG    1        1.005   4.941   0.008  0.00  0.00    -0.520 OA
ATOM     28  H   LIG    1        0.668   5.840  -0.102  0.00  0.00    +0.350 HD
ENDBRANCH  21  27
ENDBRANCH  20  21
ENDBRANCH   7  20
TORSDOF 6
