REMARK  Name = ZINCpk000004POks.0
REMARK                            x       y       z     vdW  Elec       q    Type
REMARK                         _______ _______ _______ _____ _____    ______ ____
ROOT
ATOM      1  C   LIG    1        4.755   5.239  -1.423  0.00  0.00    +0.140 C 
ATOM      2  C   LIG    1        4.888   4.279  -0.230  0.00  0.00    +0.280 C 
ATOM      3  N   LIG    1        3.637   3.513  -0.116  0.00  0.00    -0.610 N 
ATOM      4  C   LIG    1        2.368   4.258  -0.102  0.00  0.00    +0.250 C 
ATOM      5  C   LIG    1        2.358   5.218  -1.297  0.00  0.00    +0.220 C 
ATOM      6  C   LIG    1        3.653   2.168  -0.022  0.00  0.00    +0.570 C 
ATOM      7  O   LIG    1        4.713   1.576   0.034  0.00  0.00    -0.530 OA
ATOM      8  O   LIG    1        3.554   6.001  -1.281  0.00  0.00    -0.370 OA
ENDROOT
BRANCH   6   9
ATOM      9  C   LIG    1        2.384   1.415   0.013  0.00  0.00    -0.140 A 
ATOM     10  C   LIG    1        1.365   1.803   0.888  0.00  0.00    +0.050 A 
ATOM     11  C   LIG    1        0.182   1.100   0.919  0.00  0.00    +0.010 A 
ATOM     12  C   LIG    1        0.000   0.001   0.080  0.00  0.00    +0.030 A 
ATOM     13  C   LIG    1        1.017  -0.387  -0.794  0.00  0.00    +0.000 A 
ATOM     14  C   LIG    1        2.201   0.314  -0.828  0.00  0.00    +0.070 A 
BRANCH  12  15
ATOM     15  C   LIG    1       -1.274  -0.755   0.115  0.00  0.00    -0.210 A 
ATOM     16  C   LIG    1       -1.588  -1.845  -0.646  0.00  0.00    +0.260 A 
ATOM     17  N   LIG    1       -2.834  -2.231  -0.310  0.00  0.00    -0.470 N 
ATOM     18  H   LIG    1       -3.319  -2.981  -0.691  0.00  0.00    +0.440 HD
ATOM     19  N   LIG    1       -3.310  -1.365   0.682  0.00  0.00    -0.290 NA
ATOM     20  C   LIG    1       -2.381  -0.485   0.945  0.00  0.00    +0.260 A 
ENDBRANCH  12  15
ENDBRANCH   6   9
BRANCH   1  21
ATOM     21  C   LIG    1        5.959   6.182  -1.455  0.00  0.00    +0.300 C 
BRANCH  21  23
ATOM     22  C   LIG    1        6.780   8.030  -2.814  0.00  0.00    +0.510 C 
ATOM     23  N   LIG    1        5.829   7.103  -2.587  0.00  0.00    -0.730 N 
ATOM     24  H   LIG    1        5.058   7.045  -3.173  0.00  0.00    +0.400 HD
ATOM     25  O   LIG    1        7.744   8.103  -2.082  0.00  0.00    -0.540 OA
BRANCH  22  27
ATOM     26  C   LIG    1        7.850   9.921  -4.011  0.00  0.00    +0.040 C 
ATOM     27  C   LIG    1        6.646   8.977  -3.979  0.00  0.00    +0.040 C 
ENDBRANCH  22  27
ENDBRANCH  21  23
ENDBRANCH   1  21
TORSDOF 5
