REMARK  Name = ZINCqH0000002JBP.0
REMARK                            x       y       z     vdW  Elec       q    Type
REMARK                         _______ _______ _______ _____ _____    ______ ____
ROOT
ATOM      1  C   LIG    1        2.410  -0.236  -0.770  0.00  0.00    +0.530 C 
ATOM      2  N   LIG    1        3.520  -0.971  -0.977  0.00  0.00    -0.720 N 
ATOM      3  H   LIG    1        4.362  -0.700  -0.580  0.00  0.00    +0.400 HD
ATOM      4  O   LIG    1        1.340  -0.621  -1.192  0.00  0.00    -0.530 OA
ENDROOT
BRANCH   2   5
ATOM      5  C   LIG    1        3.454  -2.179  -1.803  0.00  0.00    +0.290 C 
ATOM      6  C   LIG    1        3.009  -3.363  -0.941  0.00  0.00    +0.040 C 
BRANCH   5   7
ATOM      7  C   LIG    1        4.815  -2.465  -2.384  0.00  0.00    -0.110 A 
ATOM      8  C   LIG    1        5.947  -2.279  -1.613  0.00  0.00    +0.050 A 
ATOM      9  C   LIG    1        7.196  -2.544  -2.140  0.00  0.00    -0.020 A 
ATOM     10  C   LIG    1        7.314  -2.988  -3.450  0.00  0.00    +0.160 A 
ATOM     11  N   LIG    1        8.575  -3.253  -3.993  0.00  0.00    -0.660 N 
ATOM     12  H   LIG    1        9.334  -3.390  -3.404  0.00  0.00    +0.410 HD
ATOM     13  C   LIG    1        8.744  -3.320  -5.326  0.00  0.00    +0.520 C 
ATOM     14  C   LIG    1        7.586  -3.094  -6.261  0.00  0.00    +0.070 C 
ATOM     15  C   LIG    1        6.303  -3.652  -5.645  0.00  0.00    +0.100 C 
ATOM     16  O   LIG    1        9.841  -3.566  -5.780  0.00  0.00    -0.520 OA
ATOM     17  C   LIG    1        6.175  -3.169  -4.224  0.00  0.00    -0.120 A 
ATOM     18  C   LIG    1        4.929  -2.908  -3.689  0.00  0.00    +0.060 A 
ENDBRANCH   5   7
ENDBRANCH   2   5
BRANCH   1  19
ATOM     19  C   LIG    1        2.498   1.064  -0.013  0.00  0.00    +0.050 C 
BRANCH  19  20
ATOM     20  C   LIG    1        2.810   2.184  -0.972  0.00  0.00    +0.140 A 
ATOM     21  C   LIG    1        2.289   2.152  -2.252  0.00  0.00    -0.020 A 
ATOM     22  C   LIG    1        2.588   3.184  -3.128  0.00  0.00    +0.070 A 
ATOM     23  C   LIG    1        3.394   4.219  -2.679  0.00  0.00    -0.030 A 
ATOM     24  C   LIG    1        3.878   4.183  -1.385  0.00  0.00    +0.260 A 
ATOM     25  N   LIG    1        3.578   3.182  -0.581  0.00  0.00    -0.480 NA
ENDBRANCH  19  20
BRANCH  19  26
ATOM     26  C   LIG    1        1.161   1.344   0.678  0.00  0.00    +0.050 C 
BRANCH  26  28
ATOM     27  C   LIG    1       -0.354   0.639   2.536  0.00  0.00    +0.020 C 
ATOM     28  C   LIG    1        0.912   0.284   1.754  0.00  0.00    +0.000 C 
ENDBRANCH  26  28
ENDBRANCH  19  26
ENDBRANCH   1  19
TORSDOF 6
