REMARK  Name = ZINCrD0000075WWj.0
REMARK                            x       y       z     vdW  Elec       q    Type
REMARK                         _______ _______ _______ _____ _____    ______ ____
ROOT
ATOM      1  C   LIG    1        4.838   1.189  -0.685  0.00  0.00    +0.400 C 
ATOM      2  O   LIG    1        4.864   0.012  -0.976  0.00  0.00    -0.420 OA
ENDROOT
BRANCH   1  10
ATOM      3  O   LIG    1       -2.233   1.028   0.048  0.00  0.00    -0.500 OA
ATOM      4  C   LIG    1       -1.184   1.636   0.017  0.00  0.00    +0.490 C 
ATOM      5  C   LIG    1       -1.184   3.143  -0.007  0.00  0.00    +0.310 C 
ATOM      6  O   LIG    1       -0.019   3.637   0.658  0.00  0.00    -0.300 OA
ATOM      7  C   LIG    1        1.163   3.052   0.334  0.00  0.00    +0.120 A 
ATOM      8  C   LIG    1        2.338   3.791   0.334  0.00  0.00    +0.030 A 
ATOM      9  C   LIG    1        3.532   3.189   0.003  0.00  0.00    +0.090 A 
ATOM     10  C   LIG    1        3.565   1.831  -0.333  0.00  0.00    -0.160 A 
ATOM     11  C   LIG    1        2.379   1.084  -0.333  0.00  0.00    +0.090 A 
ATOM     12  C   LIG    1        1.188   1.695  -0.000  0.00  0.00    +0.080 A 
ATOM     13  N   LIG    1       -0.011   0.966   0.007  0.00  0.00    -0.660 N 
ATOM     14  H   LIG    1        0.002  -0.004   0.002  0.00  0.00    +0.420 HD
ENDBRANCH   1  10
BRANCH   1  15
ATOM     15  C   LIG    1        6.112   1.994  -0.685  0.00  0.00    +0.240 C 
BRANCH  15  16
ATOM     16  O   LIG    1        7.224   1.140  -1.063  0.00  0.00    -0.340 OA
BRANCH  16  17
ATOM     17  C   LIG    1        8.446   1.711  -1.112  0.00  0.00    +0.550 C 
ATOM     18  O   LIG    1        8.577   2.890  -0.845  0.00  0.00    -0.500 OA
BRANCH  17  19
ATOM     19  C   LIG    1        9.613   0.910  -1.486  0.00  0.00    -0.270 A 
ATOM     20  C   LIG    1       10.894   1.370  -1.571  0.00  0.00    +0.120 A 
ATOM     21  C   LIG    1       11.810   0.404  -1.946  0.00  0.00    -0.130 A 
ATOM     22  C   LIG    1       11.276  -0.804  -2.164  0.00  0.00    -0.190 A 
ATOM     23  C   LIG    1       12.072  -2.031  -2.599  0.00  0.00    +0.120 C 
ATOM     24  C   LIG    1       13.006  -2.410  -1.446  0.00  0.00    +0.030 C 
ATOM     25  C   LIG    1       14.244  -1.544  -1.439  0.00  0.00    +0.000 C 
ATOM     26  C   LIG    1       14.040  -0.110  -1.013  0.00  0.00    +0.010 C 
ATOM     27  C   LIG    1       13.307   0.696  -2.087  0.00  0.00    +0.110 C 
ATOM     28  S   LIG    1        9.590  -0.799  -1.892  0.00  0.00    +0.250 S 
ENDBRANCH  17  19
ENDBRANCH  16  17
ENDBRANCH  15  16
ENDBRANCH   1  15
TORSDOF 5
