REMARK  Name = ZINCqH0000004MXB.1
REMARK                            x       y       z     vdW  Elec       q    Type
REMARK                         _______ _______ _______ _____ _____    ______ ____
ROOT
ATOM      1  C   LIG    1        1.297  -3.276   2.603  0.00  0.00    +0.230 A 
ATOM      2  N   LIG    1        1.643  -4.341   3.305  0.00  0.00    -0.460 NA
ATOM      3  C   LIG    1        2.183  -3.866   4.438  0.00  0.00    +0.210 A 
ATOM      4  N   LIG    1        2.136  -2.567   4.382  0.00  0.00    -0.370 NA
ATOM      5  O   LIG    1        1.632  -2.205   3.340  0.00  0.00    +0.120 OA
ENDROOT
BRANCH   1   9
ATOM      6  C   LIG    1        0.002  -0.004   0.002  0.00  0.00    +0.320 A 
ATOM      7  N   LIG    1        0.472  -0.750   0.961  0.00  0.00    -0.480 NA
ATOM      8  C   LIG    1        0.335  -2.054   0.629  0.00  0.00    +0.040 A 
ATOM      9  C   LIG    1        0.660  -3.266   1.271  0.00  0.00    +0.060 A 
ATOM     10  C   LIG    1        0.362  -4.457   0.606  0.00  0.00    +0.040 A 
ATOM     11  C   LIG    1       -0.234  -4.407  -0.641  0.00  0.00    +0.320 A 
ATOM     12  N   LIG    1       -0.528  -3.260  -1.218  0.00  0.00    -0.460 NA
ATOM     13  C   LIG    1       -0.271  -2.099  -0.640  0.00  0.00    +0.240 A 
ATOM     14  N   LIG    1       -0.473  -0.785  -1.006  0.00  0.00    -0.580 N 
ATOM     15  H   LIG    1       -0.877  -0.474  -1.831  0.00  0.00    +0.430 HD
BRANCH   6  17
ATOM     16  C   LIG    1       -0.735   1.996   1.269  0.00  0.00    +0.050 C 
ATOM     17  C   LIG    1       -0.018   1.503   0.010  0.00  0.00    +0.150 C 
ENDBRANCH   6  17
ENDBRANCH   1   9
BRANCH   3  18
ATOM     18  C   LIG    1        2.738  -4.688   5.572  0.00  0.00    -0.020 C 
ATOM     19  C   LIG    1        1.969  -4.677   6.895  0.00  0.00    +0.070 C 
ATOM     20  C   LIG    1        3.303  -3.937   6.779  0.00  0.00    +0.080 C 
BRANCH  18  21
ATOM     21  C   LIG    1        3.417  -5.973   5.172  0.00  0.00    -0.020 A 
ATOM     22  C   LIG    1        4.512  -6.426   5.884  0.00  0.00    +0.000 A 
ATOM     23  C   LIG    1        5.132  -7.607   5.521  0.00  0.00    +0.050 A 
ATOM     24  C   LIG    1        4.665  -8.331   4.441  0.00  0.00    -0.010 A 
ATOM     25  C   LIG    1        3.572  -7.875   3.723  0.00  0.00    +0.100 A 
ATOM     26  F   LIG    1        3.115  -8.581   2.666  0.00  0.00    -0.140 F 
ATOM     27  C   LIG    1        2.948  -6.695   4.090  0.00  0.00    +0.020 A 
ENDBRANCH  18  21
ENDBRANCH   3  18
TORSDOF 4
