REMARK  Name = ZINCqH0000004MXB.0
REMARK                            x       y       z     vdW  Elec       q    Type
REMARK                         _______ _______ _______ _____ _____    ______ ____
ROOT
ATOM      1  C   LIG    1        2.785   1.087   4.747  0.00  0.00    +0.210 A 
ATOM      2  N   LIG    1        3.424   1.437   5.849  0.00  0.00    -0.450 NA
ATOM      3  C   LIG    1        3.413   2.778   5.861  0.00  0.00    +0.210 A 
ATOM      4  N   LIG    1        2.778   3.176   4.798  0.00  0.00    -0.370 NA
ATOM      5  O   LIG    1        2.408   2.225   4.143  0.00  0.00    +0.130 OA
ENDROOT
BRANCH   1   9
ATOM      6  C   LIG    1        0.731  -0.503   1.223  0.00  0.00    +0.290 A 
ATOM      7  N   LIG    1        1.269   0.268   2.146  0.00  0.00    -0.520 NA
ATOM      8  C   LIG    1        1.827  -0.520   3.078  0.00  0.00    +0.030 A 
ATOM      9  C   LIG    1        2.529  -0.290   4.274  0.00  0.00    +0.130 A 
ATOM     10  C   LIG    1        2.982  -1.396   5.008  0.00  0.00    +0.020 A 
ATOM     11  C   LIG    1        2.741  -2.658   4.564  0.00  0.00    +0.350 A 
ATOM     12  N   LIG    1        2.071  -2.889   3.422  0.00  0.00    -0.470 N 
ATOM     13  H   LIG    1        1.917  -3.803   3.135  0.00  0.00    +0.430 HD
ATOM     14  C   LIG    1        1.603  -1.857   2.660  0.00  0.00    +0.240 A 
ATOM     15  N   LIG    1        0.927  -1.782   1.519  0.00  0.00    -0.560 NA
BRANCH   6  17
ATOM     16  C   LIG    1       -0.019   1.526   0.010  0.00  0.00    +0.040 C 
ATOM     17  C   LIG    1        0.002  -0.004   0.002  0.00  0.00    +0.140 C 
ENDBRANCH   6  17
ENDBRANCH   1   9
BRANCH   3  18
ATOM     18  C   LIG    1        4.021   3.663   6.918  0.00  0.00    -0.020 C 
ATOM     19  C   LIG    1        3.066   4.458   7.809  0.00  0.00    +0.070 C 
ATOM     20  C   LIG    1        3.887   5.176   6.736  0.00  0.00    +0.080 C 
BRANCH  18  21
ATOM     21  C   LIG    1        5.291   3.148   7.545  0.00  0.00    -0.020 A 
ATOM     22  C   LIG    1        6.283   4.033   7.924  0.00  0.00    +0.010 A 
ATOM     23  C   LIG    1        7.446   3.562   8.505  0.00  0.00    +0.050 A 
ATOM     24  C   LIG    1        7.624   2.205   8.696  0.00  0.00    -0.010 A 
ATOM     25  C   LIG    1        6.633   1.317   8.311  0.00  0.00    +0.100 A 
ATOM     26  F   LIG    1        6.806  -0.010   8.498  0.00  0.00    -0.140 F 
ATOM     27  C   LIG    1        5.466   1.790   7.735  0.00  0.00    +0.020 A 
ENDBRANCH  18  21
ENDBRANCH   3  18
TORSDOF 4
