REMARK  Name = ZINCqH0000002ZNn.0
REMARK                            x       y       z     vdW  Elec       q    Type
REMARK                         _______ _______ _______ _____ _____    ______ ____
ROOT
ATOM      1  C   LIG    1       -0.591   4.268  -0.830  0.00  0.00    +0.140 A 
ATOM      2  N   LIG    1       -0.170   5.054  -1.793  0.00  0.00    -0.290 NA
ATOM      3  N   LIG    1       -0.334   4.485  -2.933  0.00  0.00    -0.270 NA
ATOM      4  C   LIG    1       -0.867   3.296  -2.768  0.00  0.00    +0.280 A 
ATOM      5  N   LIG    1       -1.045   3.118  -1.415  0.00  0.00    -0.440 N 
ENDROOT
BRANCH   4   6
ATOM      6  C   LIG    1       -1.209   2.332  -3.833  0.00  0.00    -0.110 A 
ATOM      7  C   LIG    1       -1.646   1.057  -3.664  0.00  0.00    +0.260 A 
ATOM      8  N   LIG    1       -1.861   0.479  -4.881  0.00  0.00    -0.580 N 
ATOM      9  H   LIG    1       -2.178  -0.428  -5.016  0.00  0.00    +0.420 HD
ATOM     10  C   LIG    1       -1.558   1.367  -5.891  0.00  0.00    +0.090 A 
ATOM     11  C   LIG    1       -1.597   1.281  -7.279  0.00  0.00    -0.010 A 
ATOM     12  C   LIG    1       -1.224   2.363  -8.045  0.00  0.00    +0.040 A 
ATOM     13  C   LIG    1       -0.809   3.544  -7.447  0.00  0.00    -0.010 A 
ATOM     14  C   LIG    1       -0.763   3.650  -6.074  0.00  0.00    +0.070 A 
ATOM     15  C   LIG    1       -1.137   2.563  -5.286  0.00  0.00    -0.070 A 
ENDBRANCH   4   6
BRANCH   5  16
ATOM     16  C   LIG    1       -1.609   1.944  -0.743  0.00  0.00    +0.190 C 
ATOM     17  C   LIG    1       -0.669   1.112   0.131  0.00  0.00    +0.060 C 
ATOM     18  C   LIG    1       -1.734   1.996   0.781  0.00  0.00    +0.090 C 
ENDBRANCH   5  16
BRANCH   1  19
ATOM     19  S   LIG    1       -0.573   4.625   0.895  0.00  0.00    +0.090 S 
BRANCH  19  20
ATOM     20  C   LIG    1        0.150   6.284   0.865  0.00  0.00    +0.070 C 
BRANCH  20  22
ATOM     21  N   LIG    1        0.781   8.033   2.497  0.00  0.00    -0.610 N 
ATOM     22  C   LIG    1        0.266   6.808   2.273  0.00  0.00    +0.540 C 
ATOM     23  O   LIG    1       -0.104   6.127   3.206  0.00  0.00    -0.530 OA
BRANCH  21  25
ATOM     24  C   LIG    1        2.252   8.146   4.447  0.00  0.00    +0.020 C 
ATOM     25  C   LIG    1        0.894   8.542   3.866  0.00  0.00    +0.280 C 
ENDBRANCH  21  25
BRANCH  21  26
ATOM     26  C   LIG    1        1.229   8.856   1.370  0.00  0.00    +0.260 C 
ATOM     27  C   LIG    1        0.065   9.716   0.873  0.00  0.00    +0.020 C 
ENDBRANCH  21  26
ENDBRANCH  20  22
ENDBRANCH  19  20
ENDBRANCH   1  19
TORSDOF 7
