REMARK  Name = ZINCrH000004qYen.0
REMARK                            x       y       z     vdW  Elec       q    Type
REMARK                         _______ _______ _______ _____ _____    ______ ____
ROOT
ATOM      1  C   LIG    1       -0.018   1.460   0.010  0.00  0.00    +0.600 C 
ATOM      2  N   LIG    1       -0.951   1.911   0.872  0.00  0.00    -0.610 N 
ATOM      3  C   LIG    1       -1.676   0.983   1.753  0.00  0.00    +0.270 C 
ATOM      4  C   LIG    1       -1.580   1.511   3.193  0.00  0.00    +0.170 C 
ATOM      5  N   LIG    1       -2.054   2.901   3.231  0.00  0.00    -0.530 NA
ATOM      6  C   LIG    1       -1.200   3.778   2.419  0.00  0.00    +0.180 C 
ATOM      7  C   LIG    1       -1.276   3.343   0.952  0.00  0.00    +0.300 C 
ATOM      8  O   LIG    1        0.641   2.249  -0.641  0.00  0.00    -0.520 OA
ENDROOT
BRANCH   1  12
ATOM      9  C   LIG    1        0.180  -2.459  -0.378  0.00  0.00    +0.160 A 
ATOM     10  N   LIG    1        1.358  -1.893  -0.448  0.00  0.00    -0.460 NA
ATOM     11  C   LIG    1        1.406  -0.595  -0.337  0.00  0.00    +0.160 A 
ATOM     12  C   LIG    1        0.199   0.021  -0.147  0.00  0.00    -0.300 A 
ATOM     13  C   LIG    1        2.700   0.173  -0.409  0.00  0.00    +0.160 C 
ATOM     14  S   LIG    1       -1.050  -1.223  -0.133  0.00  0.00    +0.170 S 
BRANCH   9  19
ATOM     15  C   LIG    1       -2.244  -6.842  -0.533  0.00  0.00    +0.180 C 
ATOM     16  C   LIG    1       -1.132  -5.825  -0.554  0.00  0.00    +0.030 A 
ATOM     17  C   LIG    1        0.179  -6.098  -0.717  0.00  0.00    -0.060 A 
ATOM     18  C   LIG    1        0.864  -4.870  -0.680  0.00  0.00    +0.050 A 
ATOM     19  C   LIG    1       -0.076  -3.901  -0.485  0.00  0.00    +0.010 A 
ATOM     20  O   LIG    1       -1.283  -4.499  -0.415  0.00  0.00    -0.170 OA
ENDBRANCH   9  19
ENDBRANCH   1  12
BRANCH   5  21
ATOM     21  C   LIG    1       -2.145   3.389   4.614  0.00  0.00    +0.280 C 
BRANCH  21  22
ATOM     22  C   LIG    1       -3.212   2.618   5.349  0.00  0.00    +0.080 A 
ATOM     23  C   LIG    1       -2.941   1.546   6.099  0.00  0.00    -0.090 A 
ATOM     24  S   LIG    1       -4.460   0.957   6.770  0.00  0.00    +0.120 S 
ATOM     25  C   LIG    1       -5.308   2.211   5.976  0.00  0.00    +0.050 A 
ATOM     26  C   LIG    1       -6.797   2.426   6.049  0.00  0.00    +0.180 C 
ATOM     27  N   LIG    1       -4.486   2.950   5.309  0.00  0.00    -0.460 NA
ENDBRANCH  21  22
ENDBRANCH   5  21
TORSDOF 4
