REMARK  Name = ZINCrD000000BJMg.0
REMARK                            x       y       z     vdW  Elec       q    Type
REMARK                         _______ _______ _______ _____ _____    ______ ____
ROOT
ATOM      1  C   LIG    1        0.715   1.804  -4.739  0.00  0.00    -0.030 A 
ATOM      2  N   LIG    1        1.623   0.869  -4.879  0.00  0.00    -0.320 NA
ATOM      3  O   LIG    1        2.123   0.891  -5.979  0.00  0.00    +0.150 OA
ATOM      4  C   LIG    1        1.605   1.869  -6.743  0.00  0.00    -0.010 A 
ATOM      5  C   LIG    1        0.665   2.499  -5.976  0.00  0.00    +0.050 A 
ENDROOT
BRANCH   4   6
ATOM      6  C   LIG    1        1.972   2.192  -8.138  0.00  0.00    +0.020 A 
ATOM      7  C   LIG    1        0.980   2.334  -9.109  0.00  0.00    +0.050 A 
ATOM      8  C   LIG    1        1.329   2.643 -10.408  0.00  0.00    +0.060 A 
ATOM      9  C   LIG    1        2.660   2.799 -10.751  0.00  0.00    +0.040 A 
ATOM     10  C   LIG    1        3.650   2.654  -9.794  0.00  0.00    +0.080 A 
ATOM     11  C   LIG    1        3.313   2.352  -8.491  0.00  0.00    -0.160 A 
BRANCH  11  12
ATOM     12  C   LIG    1        4.392   2.195  -7.450  0.00  0.00    +0.500 C 
ATOM     13  F   LIG    1        4.336   0.904  -6.912  0.00  0.00    -0.170 F 
ATOM     14  F   LIG    1        4.197   3.133  -6.431  0.00  0.00    -0.170 F 
ATOM     15  F   LIG    1        5.643   2.400  -8.040  0.00  0.00    -0.170 F 
ENDBRANCH  11  12
ENDBRANCH   4   6
BRANCH   1  17
ATOM     16  O   LIG    1       -0.913   2.982  -3.539  0.00  0.00    -0.510 OA
ATOM     17  C   LIG    1       -0.102   2.077  -3.532  0.00  0.00    +0.610 C 
ATOM     18  N   LIG    1        0.056   1.322  -2.427  0.00  0.00    -0.710 N 
ATOM     19  H   LIG    1        0.703   0.600  -2.421  0.00  0.00    +0.410 HD
BRANCH  18  20
ATOM     20  C   LIG    1       -0.751   1.592  -1.234  0.00  0.00    +0.240 C 
ATOM     21  C   LIG    1       -0.013   1.086   0.008  0.00  0.00    +0.040 C 
ATOM     22  C   LIG    1       -0.728   1.579   1.271  0.00  0.00    +0.300 C 
ATOM     23  N   LIG    1       -2.151   1.254   1.162  0.00  0.00    -0.460 N 
ATOM     24  C   LIG    1       -3.075   1.208   2.138  0.00  0.00    +0.400 A 
ATOM     25  N   LIG    1       -4.223   0.873   1.608  0.00  0.00    -0.490 NA
ATOM     26  C   LIG    1       -4.067   0.696   0.285  0.00  0.00    +0.150 A 
ATOM     27  C   LIG    1       -2.783   0.930  -0.011  0.00  0.00    -0.020 A 
ATOM     28  C   LIG    1       -2.100   0.868  -1.353  0.00  0.00    +0.120 C 
ENDBRANCH  18  20
ENDBRANCH   1  17
TORSDOF 4
