REMARK  Name = ZINCpk000000mSLS.0
REMARK                            x       y       z     vdW  Elec       q    Type
REMARK                         _______ _______ _______ _____ _____    ______ ____
ROOT
ATOM      1  C   LIG    1        6.751   5.002   2.579  0.00  0.00    +0.110 C 
ATOM      2  C   LIG    1        5.892   6.031   1.892  0.00  0.00    +0.510 C 
ATOM      3  N   LIG    1        4.574   5.805   1.723  0.00  0.00    -0.610 N 
ATOM      4  C   LIG    1        3.804   6.751   0.922  0.00  0.00    +0.290 C 
ATOM      5  C   LIG    1        2.770   7.457   1.806  0.00  0.00    +0.070 C 
ATOM      6  C   LIG    1        1.575   6.546   1.975  0.00  0.00    -0.020 A 
ATOM      7  C   LIG    1        0.381   6.867   1.353  0.00  0.00    +0.010 A 
ATOM      8  C   LIG    1       -0.716   6.039   1.505  0.00  0.00    +0.120 A 
ATOM      9  C   LIG    1       -0.618   4.896   2.276  0.00  0.00    -0.680 A 
ATOM     10  C   LIG    1        0.576   4.582   2.900  0.00  0.00    +0.130 A 
ATOM     11  C   LIG    1        1.672   5.411   2.741  0.00  0.00    -0.100 A 
ATOM     12  C   LIG    1        2.976   5.059   3.421  0.00  0.00    +0.080 C 
ATOM     13  C   LIG    1        3.986   4.626   2.352  0.00  0.00    +0.290 C 
ATOM     14  O   LIG    1        6.386   7.063   1.490  0.00  0.00    -0.540 OA
ENDROOT
BRANCH   9  15
ATOM     15  S   LIG    1       -2.017   3.842   2.470  0.00  0.00    +2.690 S 
ATOM     16  O   LIG    1       -1.813   3.123   3.679  0.00  0.00    -0.950 OA
ATOM     17  O   LIG    1       -3.163   4.647   2.228  0.00  0.00    -0.950 OA
BRANCH  15  18
ATOM     18  N   LIG    1       -1.963   2.726   1.248  0.00  0.00    -0.990 NA
ATOM     19  C   LIG    1       -2.624   3.006  -0.029  0.00  0.00    +0.300 C 
BRANCH  18  20
ATOM     20  C   LIG    1       -1.255   1.459   1.444  0.00  0.00    +0.230 C 
ATOM     21  C   LIG    1       -2.188   0.295   1.105  0.00  0.00    +0.040 C 
BRANCH  20  22
ATOM     22  C   LIG    1       -0.029   1.413   0.529  0.00  0.00    +0.120 C 
ATOM     23  C   LIG    1        0.944   2.525   0.924  0.00  0.00    +0.010 C 
ATOM     24  C   LIG    1        0.662   0.055   0.670  0.00  0.00    +0.070 C 
BRANCH  22  25
ATOM     25  O   LIG    1       -0.440   1.599  -0.827  0.00  0.00    -0.550 OA
ATOM     26  H   LIG    1       -0.719   2.502  -1.033  0.00  0.00    +0.380 HD
ENDBRANCH  22  25
ENDBRANCH  20  22
ENDBRANCH  18  20
ENDBRANCH  15  18
ENDBRANCH   9  15
TORSDOF 5
