REMARK  Name = ZINCpk00000xIaEd.0
REMARK                            x       y       z     vdW  Elec       q    Type
REMARK                         _______ _______ _______ _____ _____    ______ ____
ROOT
ATOM      1  S   LIG    1        1.797   3.455   0.004  0.00  0.00    +2.730 S 
ATOM      2  O   LIG    1        0.721   4.217  -0.527  0.00  0.00    -0.960 OA
ATOM      3  O   LIG    1        3.104   3.465  -0.553  0.00  0.00    -0.940 OA
ENDROOT
BRANCH   1   8
ATOM      4  C   LIG    1        3.183   3.792   2.392  0.00  0.00    +0.320 C 
ATOM      5  C   LIG    1        2.856   4.321   3.805  0.00  0.00    +0.040 C 
ATOM      6  C   LIG    1        1.312   4.185   3.877  0.00  0.00    +0.020 C 
ATOM      7  C   LIG    1        0.904   4.519   2.418  0.00  0.00    +0.260 C 
ATOM      8  N   LIG    1        1.960   3.914   1.586  0.00  0.00    -1.000 NA
BRANCH   4  12
ATOM      9  C   LIG    1        7.677   5.302   0.766  0.00  0.00    +0.350 C 
ATOM     10  N   LIG    1        6.245   5.269   1.073  0.00  0.00    -0.370 N 
ATOM     11  C   LIG    1        5.588   4.263   1.686  0.00  0.00    +0.250 A 
ATOM     12  C   LIG    1        4.285   4.617   1.780  0.00  0.00    -0.250 A 
ATOM     13  C   LIG    1        4.144   5.888   1.212  0.00  0.00    +0.240 A 
ATOM     14  N   LIG    1        5.318   6.279   0.788  0.00  0.00    -0.290 NA
ENDBRANCH   4  12
ENDBRANCH   1   8
BRANCH   1  15
ATOM     15  C   LIG    1        1.267   1.775  -0.001  0.00  0.00    -0.820 A 
ATOM     16  C   LIG    1       -0.016   1.345   0.009  0.00  0.00    +0.370 A 
ATOM     17  N   LIG    1        0.002  -0.004   0.002  0.00  0.00    -0.350 N 
ATOM     18  N   LIG    1        1.341  -0.417  -0.013  0.00  0.00    -0.290 NA
ATOM     19  C   LIG    1        2.098   0.650  -0.015  0.00  0.00    +0.330 A 
BRANCH  17  20
ATOM     20  C   LIG    1       -1.171  -0.882   0.009  0.00  0.00    +0.260 C 
ATOM     21  C   LIG    1       -2.301  -0.233  -0.795  0.00  0.00    +0.010 C 
ATOM     22  C   LIG    1       -3.547  -1.120  -0.717  0.00  0.00    +0.240 C 
ATOM     23  O   LIG    1       -3.913  -1.304   0.652  0.00  0.00    -0.380 OA
ATOM     24  C   LIG    1       -2.913  -1.949   1.442  0.00  0.00    +0.230 C 
ATOM     25  C   LIG    1       -1.642  -1.096   1.451  0.00  0.00    -0.000 C 
ENDBRANCH  17  20
ENDBRANCH   1  15
TORSDOF 4
