REMARK  Name = ZINCrD000000Abuh.0
REMARK                            x       y       z     vdW  Elec       q    Type
REMARK                         _______ _______ _______ _____ _____    ______ ____
ROOT
ATOM      1  O   LIG    1       -5.061   0.898   0.068  0.00  0.00    -0.520 OA
ATOM      2  C   LIG    1       -5.041  -0.315   0.053  0.00  0.00    +0.520 C 
ATOM      3  N   LIG    1       -6.196  -1.009   0.059  0.00  0.00    -0.670 N 
ATOM      4  H   LIG    1       -6.182  -1.975  -0.021  0.00  0.00    +0.420 HD
ENDROOT
BRANCH   3   5
ATOM      5  C   LIG    1       -7.417  -0.335   0.180  0.00  0.00    +0.150 A 
ATOM      6  C   LIG    1       -8.465  -0.918   0.879  0.00  0.00    +0.010 A 
ATOM      7  C   LIG    1       -9.667  -0.250   1.004  0.00  0.00    +0.070 A 
ATOM      8  C   LIG    1       -9.831   0.999   0.420  0.00  0.00    +0.120 A 
ATOM      9  C   LIG    1       -8.784   1.580  -0.284  0.00  0.00    +0.070 A 
ATOM     10  C   LIG    1       -7.581   0.915  -0.404  0.00  0.00    +0.050 A 
BRANCH   8  11
ATOM     11  N   LIG    1      -11.054   1.674   0.542  0.00  0.00    -0.100 N 
ATOM     12  N   LIG    1      -11.301   2.834   0.043  0.00  0.00    -0.290 NA
ATOM     13  C   LIG    1      -12.538   3.166   0.340  0.00  0.00    +0.180 A 
ATOM     14  C   LIG    1      -13.050   2.103   1.089  0.00  0.00    +0.180 A 
ATOM     15  N   LIG    1      -12.080   1.221   1.172  0.00  0.00    -0.290 NA
ENDBRANCH   8  11
ENDBRANCH   3   5
BRANCH   2  16
ATOM     16  C   LIG    1       -3.723  -1.046   0.027  0.00  0.00    +0.090 C 
BRANCH  16  17
ATOM     17  C   LIG    1       -2.577  -0.032   0.025  0.00  0.00    +0.070 C 
BRANCH  17  18
ATOM     18  C   LIG    1       -1.260  -0.762  -0.001  0.00  0.00    +0.400 C 
ATOM     19  O   LIG    1       -1.239  -1.975  -0.016  0.00  0.00    -0.450 OA
BRANCH  18  20
ATOM     20  C   LIG    1        0.002  -0.005  -0.007  0.00  0.00    -0.170 A 
ATOM     21  C   LIG    1       -0.017   1.393   0.011  0.00  0.00    +0.070 A 
ATOM     22  C   LIG    1        1.170   2.093   0.005  0.00  0.00    +0.010 A 
ATOM     23  C   LIG    1        2.383   1.420  -0.018  0.00  0.00    -0.060 A 
ATOM     24  C   LIG    1        3.798   1.958  -0.029  0.00  0.00    +0.080 C 
ATOM     25  C   LIG    1        4.675   0.777  -0.497  0.00  0.00    +0.030 C 
ATOM     26  C   LIG    1        3.844  -0.447  -0.061  0.00  0.00    +0.080 C 
ATOM     27  C   LIG    1        2.409   0.036  -0.036  0.00  0.00    -0.110 A 
ATOM     28  C   LIG    1        1.227  -0.678  -0.030  0.00  0.00    +0.080 A 
ENDBRANCH  18  20
ENDBRANCH  17  18
ENDBRANCH  16  17
ENDBRANCH   2  16
TORSDOF 6
