REMARK  Name = ZINCvU000000040F.0
REMARK                            x       y       z     vdW  Elec       q    Type
REMARK                         _______ _______ _______ _____ _____    ______ ____
ROOT
ATOM      1  C   LIG    1        7.168   0.749  -0.393  0.00  0.00    -0.090 A 
ATOM      2  C   LIG    1        8.470   0.244  -0.421  0.00  0.00    +0.090 A 
ATOM      3  C   LIG    1        8.679  -1.105  -0.622  0.00  0.00    -0.030 A 
ATOM      4  C   LIG    1        7.604  -1.960  -0.795  0.00  0.00    +0.070 A 
ATOM      5  C   LIG    1        6.311  -1.472  -0.764  0.00  0.00    -0.090 A 
ATOM      6  C   LIG    1        6.083  -0.120  -0.569  0.00  0.00    +0.170 A 
ENDROOT
BRANCH   1   8
ATOM      7  N   LIG    1        5.728   2.661  -0.191  0.00  0.00    -0.210 NA
ATOM      8  C   LIG    1        6.937   2.189  -0.179  0.00  0.00    +0.230 C 
BRANCH   7  11
ATOM      9  O   LIG    1        3.339   3.774   0.191  0.00  0.00    -0.480 OA
ATOM     10  C   LIG    1        4.266   4.531  -0.010  0.00  0.00    +0.530 C 
ATOM     11  N   LIG    1        5.516   4.045  -0.144  0.00  0.00    -0.590 N 
ATOM     12  H   LIG    1        6.269   4.654  -0.209  0.00  0.00    +0.380 HD
BRANCH  10  13
ATOM     13  C   LIG    1        4.020   6.014  -0.108  0.00  0.00    +0.120 C 
BRANCH  13  14
ATOM     14  C   LIG    1        2.550   6.293   0.077  0.00  0.00    -0.060 A 
ATOM     15  C   LIG    1        1.709   6.320  -1.020  0.00  0.00    +0.040 A 
ATOM     16  C   LIG    1        0.360   6.571  -0.851  0.00  0.00    +0.020 A 
ATOM     17  C   LIG    1       -0.146   6.806   0.415  0.00  0.00    -0.030 A 
ATOM     18  C   LIG    1        0.698   6.784   1.512  0.00  0.00    +0.020 A 
ATOM     19 CL   LIG    1       -1.838   7.128   0.628  0.00  0.00    -0.070 Cl
ATOM     20  C   LIG    1        2.045   6.527   1.342  0.00  0.00    +0.040 A 
ENDBRANCH  13  14
ENDBRANCH  10  13
ENDBRANCH   7  11
ENDBRANCH   1   8
BRANCH   6  21
ATOM     21  O   LIG    1        4.813   0.360  -0.543  0.00  0.00    -0.270 OA
BRANCH  21  22
ATOM     22  C   LIG    1        3.755  -0.599  -0.602  0.00  0.00    +0.240 C 
BRANCH  22  23
ATOM     23  C   LIG    1        2.438   0.115  -0.764  0.00  0.00    -0.110 A 
ATOM     24  C   LIG    1        2.402   1.473  -0.846  0.00  0.00    +0.090 A 
ATOM     25  C   LIG    1        1.193   2.151  -0.997  0.00  0.00    +0.020 A 
ATOM     26  C   LIG    1        0.014   1.475  -1.065  0.00  0.00    +0.010 A 
ATOM     27  C   LIG    1        0.012   0.072  -0.983  0.00  0.00    -0.050 A 
ATOM     28  C   LIG    1       -1.185  -0.661  -1.051  0.00  0.00    +0.030 A 
ATOM     29  C   LIG    1       -1.149  -2.019  -0.968  0.00  0.00    +0.000 A 
ATOM     30  C   LIG    1        0.059  -2.697  -0.818  0.00  0.00    +0.010 A 
ATOM     31  C   LIG    1        1.238  -2.020  -0.749  0.00  0.00    +0.000 A 
ATOM     32  C   LIG    1        1.241  -0.618  -0.831  0.00  0.00    -0.040 A 
ENDBRANCH  22  23
ENDBRANCH  21  22
ENDBRANCH   6  21
TORSDOF 7
