REMARK  Name = ZINCpe000000UmPU.0
REMARK                            x       y       z     vdW  Elec       q    Type
REMARK                         _______ _______ _______ _____ _____    ______ ____
ROOT
ATOM      1  C   LIG    1        0.063   1.806   2.440  0.00  0.00    +0.380 C 
ENDROOT
BRANCH   1   5
ATOM      2  C   LIG    1        1.867  -1.905   5.286  0.00  0.00    +0.360 C 
ATOM      3  N   LIG    1        1.519  -1.082   4.125  0.00  0.00    -0.370 N 
ATOM      4  C   LIG    1        0.856   0.093   4.154  0.00  0.00    +0.260 A 
ATOM      5  C   LIG    1        0.736   0.531   2.880  0.00  0.00    -0.270 A 
ATOM      6  C   LIG    1        1.341  -0.411   2.042  0.00  0.00    +0.250 A 
ATOM      7  N   LIG    1        1.816  -1.376   2.788  0.00  0.00    -0.290 NA
ENDBRANCH   1   5
BRANCH   1   8
ATOM      8  N   LIG    1       -0.698   1.558   1.213  0.00  0.00    -0.570 N 
ATOM      9  C   LIG    1       -2.030   1.765   1.194  0.00  0.00    +0.660 C 
ATOM     10  O   LIG    1       -2.599   2.157   2.193  0.00  0.00    -0.570 OA
ATOM     11  C   LIG    1       -0.013   1.086   0.008  0.00  0.00    +0.300 C 
BRANCH   9  12
ATOM     12  O   LIG    1       -2.730   1.537   0.067  0.00  0.00    -0.350 OA
BRANCH  12  13
ATOM     13  C   LIG    1       -4.161   1.781   0.118  0.00  0.00    +0.140 C 
ATOM     14  C   LIG    1       -4.793   0.883   1.183  0.00  0.00    +0.040 C 
ATOM     15  C   LIG    1       -4.781   1.470  -1.245  0.00  0.00    +0.080 C 
ATOM     16  C   LIG    1       -4.415   3.248   0.471  0.00  0.00    +0.040 C 
ENDBRANCH  12  13
ENDBRANCH   9  12
ENDBRANCH   1   8
BRANCH   1  17
ATOM     17  C   LIG    1        1.108   2.861   2.178  0.00  0.00    +0.510 C 
ATOM     18  N   LIG    1        1.933   3.253   3.169  0.00  0.00    -0.520 N 
ATOM     19  H   LIG    1        1.854   2.856   4.051  0.00  0.00    +0.430 HD
ATOM     20  O   LIG    1        1.206   3.356   1.076  0.00  0.00    -0.520 OA
BRANCH  18  21
ATOM     21  N   LIG    1        2.904   4.233   2.926  0.00  0.00    -0.520 N 
ATOM     22  H   LIG    1        2.982   4.629   2.044  0.00  0.00    +0.430 HD
ATOM     23  C   LIG    1        3.728   4.625   3.917  0.00  0.00    +0.550 C 
ATOM     24  O   LIG    1        3.630   4.129   5.020  0.00  0.00    -0.540 OA
BRANCH  23  25
ATOM     25  C   LIG    1        4.773   5.679   3.656  0.00  0.00    -0.060 C 
ATOM     26  C   LIG    1        6.238   5.241   3.672  0.00  0.00    +0.060 C 
ATOM     27  C   LIG    1        5.678   6.082   4.822  0.00  0.00    +0.080 C 
ENDBRANCH  23  25
ENDBRANCH  18  21
ENDBRANCH   1  17
TORSDOF 7
