REMARK  Name = ZINCrD000000BNTD.0
REMARK                            x       y       z     vdW  Elec       q    Type
REMARK                         _______ _______ _______ _____ _____    ______ ____
ROOT
ATOM      1  O   LIG    1       -1.200   2.835   0.087  0.00  0.00    -0.530 OA
ATOM      2  C   LIG    1       -1.185   1.620   0.065  0.00  0.00    +0.580 C 
ATOM      3  N   LIG    1       -0.009   0.961   0.051  0.00  0.00    -0.720 N 
ATOM      4  H   LIG    1        0.003  -0.009   0.034  0.00  0.00    +0.400 HD
ENDROOT
BRANCH   2   5
ATOM      5  C   LIG    1       -2.453   0.866   0.055  0.00  0.00    -0.260 A 
ATOM      6  C   LIG    1       -3.683   1.541   0.075  0.00  0.00    +0.180 A 
ATOM      7  C   LIG    1       -4.835   0.802   0.058  0.00  0.00    -0.100 A 
ATOM      8  C   LIG    1       -4.753  -0.589   0.034  0.00  0.00    +0.430 A 
ATOM      9  N   LIG    1       -3.578  -1.204   0.020  0.00  0.00    -0.550 NA
ATOM     10  C   LIG    1       -2.447  -0.530   0.030  0.00  0.00    +0.350 A 
BRANCH   8  11
ATOM     11  N   LIG    1       -5.916  -1.341   0.023  0.00  0.00    -0.690 N 
ATOM     12  H   LIG    1       -5.870  -2.306  -0.064  0.00  0.00    +0.410 HD
BRANCH  11  13
ATOM     13  C   LIG    1       -7.218  -0.678   0.142  0.00  0.00    +0.220 C 
ATOM     14  C   LIG    1       -8.201  -1.234   1.175  0.00  0.00    +0.020 C 
ATOM     15  C   LIG    1       -8.452  -1.457  -0.319  0.00  0.00    +0.030 C 
ENDBRANCH  11  13
ENDBRANCH   8  11
ENDBRANCH   2   5
BRANCH   3  16
ATOM     16  C   LIG    1        1.250   1.710   0.056  0.00  0.00    +0.320 C 
BRANCH  16  17
ATOM     17  C   LIG    1        2.336   0.870  -0.568  0.00  0.00    -0.090 A 
ATOM     18  C   LIG    1        2.401  -0.484  -0.298  0.00  0.00    +0.020 A 
ATOM     19  C   LIG    1        3.396  -1.257  -0.868  0.00  0.00    +0.030 A 
ATOM     20  C   LIG    1        4.330  -0.676  -1.711  0.00  0.00    +0.050 A 
ATOM     21  O   LIG    1        5.306  -1.449  -2.261  0.00  0.00    -0.310 OA
ATOM     22  C   LIG    1        5.998  -0.905  -3.390  0.00  0.00    +0.220 C 
ATOM     23  C   LIG    1        6.374   0.548  -3.070  0.00  0.00    +0.220 C 
ATOM     24  O   LIG    1        5.168   1.276  -2.811  0.00  0.00    -0.310 OA
ATOM     25  C   LIG    1        4.264   0.686  -1.983  0.00  0.00    +0.060 A 
ATOM     26  C   LIG    1        3.261   1.455  -1.412  0.00  0.00    +0.040 A 
ENDBRANCH  16  17
BRANCH  16  27
ATOM     27  C   LIG    1        1.634   2.053   1.496  0.00  0.00    -0.060 C 
ATOM     28  C   LIG    1        0.811   1.416   2.618  0.00  0.00    +0.010 C 
ATOM     29  C   LIG    1        0.654   2.905   2.305  0.00  0.00    +0.030 C 
ENDBRANCH  16  27
ENDBRANCH   3  16
TORSDOF 6
