REMARK  Name = ZINCkj00000y2jqK.0
REMARK                            x       y       z     vdW  Elec       q    Type
REMARK                         _______ _______ _______ _____ _____    ______ ____
ROOT
ATOM      1  C   LIG    1       -0.720   1.523   3.716  0.00  0.00    +0.150 C 
ATOM      2  C   LIG    1        0.376   2.392   4.368  0.00  0.00    +0.110 C 
ATOM      3  C   LIG    1        1.688   1.760   3.833  0.00  0.00    +0.070 C 
ATOM      4  C   LIG    1        1.275   1.353   2.399  0.00  0.00    +0.250 C 
ATOM      5  N   LIG    1       -0.125   0.892   2.523  0.00  0.00    -0.380 N 
ATOM      6  H   LIG    1       -0.143  -0.112   2.624  0.00  0.00    +0.430 HD
ENDROOT
BRANCH   1  13
ATOM      7  C   LIG    1       -2.646   4.231   6.632  0.00  0.00    +0.110 C 
ATOM      8  C   LIG    1       -1.931   3.818   5.372  0.00  0.00    +0.530 C 
ATOM      9  N   LIG    1       -2.531   2.986   4.498  0.00  0.00    -0.610 N 
ATOM     10  C   LIG    1       -3.924   2.512   4.581  0.00  0.00    +0.260 C 
ATOM     11  C   LIG    1       -4.305   2.141   3.126  0.00  0.00    +0.060 C 
ATOM     12  C   LIG    1       -2.973   1.540   2.596  0.00  0.00    +0.040 C 
ATOM     13  C   LIG    1       -1.904   2.400   3.304  0.00  0.00    +0.230 C 
ATOM     14  O   LIG    1       -0.814   4.234   5.144  0.00  0.00    -0.530 OA
ENDBRANCH   1  13
BRANCH   5  15
ATOM     15  C   LIG    1       -0.882   1.284   1.327  0.00  0.00    +0.250 C 
BRANCH  15  16
ATOM     16  C   LIG    1       -0.064   0.957   0.076  0.00  0.00    +0.330 C 
BRANCH  16  17
ATOM     17  N   LIG    1       -0.819   1.347  -1.117  0.00  0.00    -0.390 N 
ATOM     18  C   LIG    1       -0.388   2.171  -2.096  0.00  0.00    +0.240 A 
ATOM     19  C   LIG    1       -1.377   2.275  -3.013  0.00  0.00    -0.090 A 
ATOM     20  C   LIG    1       -2.450   1.488  -2.581  0.00  0.00    +0.260 A 
ATOM     21  N   LIG    1       -2.114   0.927  -1.447  0.00  0.00    -0.300 NA
ENDBRANCH  16  17
ENDBRANCH  15  16
ENDBRANCH   5  15
TORSDOF 4
