REMARK  Name = ZINCkj00000y2jqK.1
REMARK                            x       y       z     vdW  Elec       q    Type
REMARK                         _______ _______ _______ _____ _____    ______ ____
ROOT
ATOM      1  C   LIG    1       -0.710   1.484   1.212  0.00  0.00    +0.160 C 
ATOM      2  C   LIG    1       -1.925   2.356   0.829  0.00  0.00    +0.100 C 
ATOM      3  C   LIG    1       -2.278   1.858  -0.597  0.00  0.00    +0.080 C 
ATOM      4  C   LIG    1       -0.877   1.556  -1.177  0.00  0.00    +0.260 C 
ATOM      5  N   LIG    1       -0.105   1.003  -0.044  0.00  0.00    -0.390 N 
ATOM      6  H   LIG    1       -0.137  -0.005  -0.072  0.00  0.00    +0.420 HD
ENDROOT
BRANCH   1  13
ATOM      7  C   LIG    1        2.212  -0.959   3.478  0.00  0.00    +0.110 C 
ATOM      8  C   LIG    1        1.023  -0.066   3.229  0.00  0.00    +0.530 C 
ATOM      9  N   LIG    1        0.000  -0.503   2.468  0.00  0.00    -0.640 N 
ATOM     10  C   LIG    1       -0.135  -1.860   1.907  0.00  0.00    +0.260 C 
ATOM     11  C   LIG    1       -1.657  -2.046   1.683  0.00  0.00    +0.050 C 
ATOM     12  C   LIG    1       -2.080  -0.625   1.224  0.00  0.00    +0.040 C 
ATOM     13  C   LIG    1       -1.165   0.295   2.059  0.00  0.00    +0.240 C 
ATOM     14  O   LIG    1        0.987   1.045   3.715  0.00  0.00    -0.520 OA
ENDBRANCH   1  13
BRANCH   5  15
ATOM     15  C   LIG    1        1.289   1.458  -0.127  0.00  0.00    +0.260 C 
BRANCH  15  16
ATOM     16  C   LIG    1        1.951   0.849  -1.364  0.00  0.00    +0.330 C 
BRANCH  16  17
ATOM     17  N   LIG    1        3.342   1.302  -1.447  0.00  0.00    -0.390 N 
ATOM     18  C   LIG    1        4.432   0.510  -1.531  0.00  0.00    +0.240 A 
ATOM     19  C   LIG    1        5.520   1.312  -1.589  0.00  0.00    -0.090 A 
ATOM     20  C   LIG    1        5.081   2.639  -1.539  0.00  0.00    +0.260 A 
ATOM     21  N   LIG    1        3.775   2.634  -1.460  0.00  0.00    -0.300 NA
ENDBRANCH  16  17
ENDBRANCH  15  16
ENDBRANCH   5  15
TORSDOF 4
