REMARK  Name = ZINCrD00000F5LjR.0
REMARK                            x       y       z     vdW  Elec       q    Type
REMARK                         _______ _______ _______ _____ _____    ______ ____
ROOT
ATOM      1  N   LIG    1        3.447   2.176  -0.020  0.00  0.00    -0.700 N 
ATOM      2  H   LIG    1        3.400   3.145  -0.014  0.00  0.00    +0.420 HD
ENDROOT
BRANCH   1   6
ATOM      3  C   LIG    1        8.189   2.649  -1.340  0.00  0.00    +0.030 C 
ATOM      4  C   LIG    1        7.151   1.727  -0.697  0.00  0.00    -0.020 C 
ATOM      5  C   LIG    1        5.796   2.438  -0.650  0.00  0.00    +0.040 C 
ATOM      6  C   LIG    1        4.749   1.506  -0.036  0.00  0.00    +0.220 C 
ATOM      7  C   LIG    1        5.162   1.153   1.397  0.00  0.00    +0.260 C 
ATOM      8  N   LIG    1        6.523   0.602   1.375  0.00  0.00    -0.610 N 
ATOM      9  C   LIG    1        6.788  -0.594   1.937  0.00  0.00    +0.520 C 
ATOM     10  O   LIG    1        7.916  -1.039   1.913  0.00  0.00    -0.530 OA
ATOM     11  C   LIG    1        7.590   1.378   0.728  0.00  0.00    +0.280 C 
BRANCH   9  12
ATOM     12  C   LIG    1        5.683  -1.379   2.596  0.00  0.00    +0.070 C 
BRANCH  12  13
ATOM     13  C   LIG    1        6.247  -2.688   3.150  0.00  0.00    +0.230 C 
BRANCH  13  14
ATOM     14  C   LIG    1        5.168  -3.455   3.794  0.00  0.00    +0.200 C 
ATOM     15  N   LIG    1        4.335  -4.046   4.291  0.00  0.00    -0.420 NA
ENDBRANCH  13  14
ENDBRANCH  12  13
ENDBRANCH   9  12
ENDBRANCH   1   6
BRANCH   1  16
ATOM     16  C   LIG    1        2.282   1.426  -0.012  0.00  0.00    +0.450 A 
ATOM     17  C   LIG    1        2.336   0.031  -0.020  0.00  0.00    -0.110 A 
ATOM     18  C   LIG    1        1.147  -0.671  -0.013  0.00  0.00    +0.130 A 
ATOM     19  N   LIG    1        0.002  -0.004   0.002  0.00  0.00    -0.520 NA
ATOM     20  C   LIG    1       -0.016   1.314   0.009  0.00  0.00    +0.410 A 
ATOM     21  N   LIG    1        1.094   2.024   0.003  0.00  0.00    -0.550 NA
BRANCH  18  22
ATOM     22  C   LIG    1        1.152  -2.178  -0.020  0.00  0.00    +0.520 C 
ATOM     23  F   LIG    1        1.722  -2.649   1.167  0.00  0.00    -0.170 F 
ATOM     24  F   LIG    1        1.899  -2.637  -1.110  0.00  0.00    -0.170 F 
ATOM     25  F   LIG    1       -0.162  -2.648  -0.125  0.00  0.00    -0.160 F 
ENDBRANCH  18  22
BRANCH  20  26
ATOM     26  C   LIG    1       -1.343   2.028   0.019  0.00  0.00    +0.020 C 
ATOM     27  C   LIG    1       -2.600   1.181   0.227  0.00  0.00    +0.060 C 
ATOM     28  C   LIG    1       -2.293   1.771  -1.152  0.00  0.00    +0.060 C 
ENDBRANCH  20  26
ENDBRANCH   1  16
TORSDOF 7
