REMARK  Name = ZINCnE000001RPVe.0
REMARK                            x       y       z     vdW  Elec       q    Type
REMARK                         _______ _______ _______ _____ _____    ______ ____
ROOT
ATOM      1  N   LIG    1        3.750   2.196   0.644  0.00  0.00    -0.690 N 
ATOM      2  H   LIG    1        4.621   1.790   0.772  0.00  0.00    +0.410 HD
ATOM      3  C   LIG    1        3.656   3.492   0.285  0.00  0.00    +0.700 C 
ATOM      4  N   LIG    1        4.768   4.185  -0.034  0.00  0.00    -0.620 N 
ATOM      5  C   LIG    1        6.063   3.503  -0.165  0.00  0.00    +0.250 C 
ATOM      6  C   LIG    1        7.084   4.209   0.733  0.00  0.00    +0.000 C 
ATOM      7  C   LIG    1        7.120   5.699   0.386  0.00  0.00    +0.000 C 
ATOM      8  C   LIG    1        5.743   6.317   0.641  0.00  0.00    +0.020 C 
ATOM      9  C   LIG    1        4.706   5.635  -0.264  0.00  0.00    +0.230 C 
ATOM     10  O   LIG    1        2.570   4.036   0.248  0.00  0.00    -0.520 OA
ENDROOT
BRANCH   1  14
ATOM     11  C   LIG    1        0.293  -0.063   1.208  0.00  0.00    -0.050 A 
ATOM     12  C   LIG    1        0.266   1.321   1.403  0.00  0.00    +0.120 A 
ATOM     13  C   LIG    1        1.410   2.064   1.215  0.00  0.00    +0.050 A 
ATOM     14  C   LIG    1        2.593   1.440   0.833  0.00  0.00    +0.220 A 
ATOM     15  C   LIG    1        2.625   0.063   0.637  0.00  0.00    -0.010 A 
ATOM     16  C   LIG    1        1.484  -0.688   0.823  0.00  0.00    +0.030 A 
ATOM     17 CL   LIG    1        1.525  -2.406   0.580  0.00  0.00    -0.060 Cl
BRANCH  11  19
ATOM     18  N   LIG    1       -1.837  -1.454   1.556  0.00  0.00    -0.410 NA
ATOM     19  C   LIG    1       -0.895  -0.838   1.402  0.00  0.00    +0.260 C 
ENDBRANCH  11  19
ENDBRANCH   1  14
BRANCH   9  20
ATOM     20  C   LIG    1        3.306   6.149   0.079  0.00  0.00    +0.070 C 
BRANCH  20  21
ATOM     21  C   LIG    1        3.311   7.679   0.079  0.00  0.00    -0.080 C 
BRANCH  21  22
ATOM     22  C   LIG    1        1.954   8.185   0.494  0.00  0.00    +0.490 C 
ATOM     23  O   LIG    1        1.745   9.385   0.559  0.00  0.00    -0.710 OA
ATOM     24  O   LIG    1        1.065   7.396   0.765  0.00  0.00    -0.690 OA
ENDBRANCH  21  22
ENDBRANCH  20  21
ENDBRANCH   9  20
TORSDOF 5
