REMARK  Name = ZINCc70000006lv8.0
REMARK                            x       y       z     vdW  Elec       q    Type
REMARK                         _______ _______ _______ _____ _____    ______ ____
ROOT
ATOM      1  C   LIG    1       -2.416   3.618   0.034  0.00  0.00    +0.620 A 
ATOM      2  N   LIG    1       -3.588   3.016   0.036  0.00  0.00    -0.610 NA
ATOM      3  C   LIG    1       -3.677   1.680   0.029  0.00  0.00    +0.190 A 
ATOM      4  C   LIG    1       -4.913   1.012   0.031  0.00  0.00    +0.060 A 
ATOM      5  C   LIG    1       -4.904  -0.356   0.024  0.00  0.00    +0.020 A 
ATOM      6  C   LIG    1       -3.694  -1.044   0.015  0.00  0.00    +0.240 A 
ATOM      7  N   LIG    1       -2.542  -0.413   0.012  0.00  0.00    -0.430 NA
ATOM      8  C   LIG    1       -2.487   0.915   0.019  0.00  0.00    -0.050 A 
ATOM      9  C   LIG    1       -1.214   1.639   0.017  0.00  0.00    +0.530 A 
ATOM     10  N   LIG    1       -1.258   2.963   0.030  0.00  0.00    -0.630 NA
ENDROOT
BRANCH   1  11
ATOM     11  N   LIG    1       -2.388   5.001   0.042  0.00  0.00    -0.820 N 
ATOM     12  H   LIG    1       -1.538   5.468   0.041  0.00  0.00    +0.410 HD
ATOM     13  H   LIG    1       -3.218   5.503   0.049  0.00  0.00    +0.420 HD
ENDBRANCH   1  11
BRANCH   9  14
ATOM     14  N   LIG    1       -0.011   0.966   0.007  0.00  0.00    -0.800 N 
ATOM     15  H   LIG    1        0.822   1.462   0.002  0.00  0.00    +0.410 HD
ATOM     16  H   LIG    1        0.002  -0.004   0.002  0.00  0.00    +0.420 HD
ENDBRANCH   9  14
TORSDOF 2
