REMARK  Name = ZINCrD0000074UW9.0
REMARK                            x       y       z     vdW  Elec       q    Type
REMARK                         _______ _______ _______ _____ _____    ______ ____
ROOT
ATOM      1  C   LIG    1        5.162   4.992  -0.020  0.00  0.00    +0.560 C 
ATOM      2  N   LIG    1        6.107   5.953  -0.023  0.00  0.00    -0.460 N 
ATOM      3  N   LIG    1        5.867   7.325  -0.020  0.00  0.00    -0.230 NA
ATOM      4  C   LIG    1        6.938   8.047  -0.020  0.00  0.00    +0.190 C 
ATOM      5  C   LIG    1        8.152   7.147  -0.036  0.00  0.00    +0.110 C 
ATOM      6  C   LIG    1        7.560   5.723  -0.038  0.00  0.00    +0.330 C 
ATOM      7  O   LIG    1        5.485   3.823  -0.029  0.00  0.00    -0.480 OA
ENDROOT
BRANCH   4   8
ATOM      8  C   LIG    1        6.971   9.513  -0.013  0.00  0.00    +0.020 A 
ATOM      9  C   LIG    1        5.885  10.339   0.001  0.00  0.00    +0.030 A 
ATOM     10  C   LIG    1        6.379  11.656   0.002  0.00  0.00    -0.060 A 
ATOM     11  C   LIG    1        7.725  11.575  -0.011  0.00  0.00    +0.210 A 
ATOM     12  O   LIG    1        8.079  10.280  -0.015  0.00  0.00    -0.160 OA
ENDBRANCH   4   8
BRANCH   6  13
ATOM     13  C   LIG    1        7.990   4.969   1.194  0.00  0.00    -0.030 A 
ATOM     14  C   LIG    1        8.927   4.005   1.238  0.00  0.00    -0.030 A 
ATOM     15  C   LIG    1        9.009   3.575   2.583  0.00  0.00    -0.060 A 
ATOM     16  C   LIG    1        8.116   4.302   3.279  0.00  0.00    +0.180 A 
ATOM     17  O   LIG    1        7.506   5.148   2.434  0.00  0.00    -0.170 OA
ENDBRANCH   6  13
BRANCH   1  18
ATOM     18  C   LIG    1        3.703   5.370  -0.004  0.00  0.00    +0.280 C 
BRANCH  18  19
ATOM     19  O   LIG    1        2.891   4.166  -0.003  0.00  0.00    -0.330 OA
BRANCH  19  20
ATOM     20  C   LIG    1        1.552   4.330   0.010  0.00  0.00    +0.560 C 
ATOM     21  O   LIG    1        1.077   5.450   0.020  0.00  0.00    -0.480 OA
BRANCH  20  24
ATOM     22  C   LIG    1       -1.574   4.409   0.038  0.00  0.00    +0.140 C 
ATOM     23  C   LIG    1       -0.695   3.184   0.025  0.00  0.00    -0.060 A 
ATOM     24  C   LIG    1        0.671   3.161   0.012  0.00  0.00    -0.080 A 
ATOM     25  O   LIG    1        1.065   1.870   0.002  0.00  0.00    -0.150 OA
ATOM     26  C   LIG    1       -0.013   1.076   0.008  0.00  0.00    +0.240 A 
ATOM     27  C   LIG    1       -1.122   1.848   0.017  0.00  0.00    -0.070 A 
ENDBRANCH  20  24
ENDBRANCH  19  20
ENDBRANCH  18  19
ENDBRANCH   1  18
TORSDOF 6
