REMARK  Name = ZINCvU0000000JEn.0
REMARK                            x       y       z     vdW  Elec       q    Type
REMARK                         _______ _______ _______ _____ _____    ______ ____
ROOT
ATOM      1  O   LIG    1        2.098   4.206  -0.890  0.00  0.00    -0.480 OA
ATOM      2  C   LIG    1        1.079   3.577  -0.679  0.00  0.00    +0.570 C 
ATOM      3  C   LIG    1        1.166   2.144  -0.368  0.00  0.00    -0.160 A 
ATOM      4  C   LIG    1        2.394   1.487  -0.308  0.00  0.00    +0.110 A 
ATOM      5  C   LIG    1        2.434   0.141  -0.013  0.00  0.00    -0.010 A 
ATOM      6  C   LIG    1        1.265  -0.567   0.225  0.00  0.00    +0.060 A 
ATOM      7  C   LIG    1        0.039   0.065   0.172  0.00  0.00    -0.010 A 
ATOM      8  C   LIG    1       -0.021   1.421  -0.124  0.00  0.00    +0.050 A 
ATOM      9  C   LIG    1       -1.306   2.147  -0.188  0.00  0.00    -0.300 C 
ATOM     10  C   LIG    1       -1.275   3.578  -0.513  0.00  0.00    +0.580 C 
ATOM     11  O   LIG    1       -2.317   4.204  -0.578  0.00  0.00    -0.520 OA
ATOM     12  C   LIG    1       -2.499   1.499   0.046  0.00  0.00    +0.430 C 
ATOM     13  N   LIG    1       -0.107   4.204  -0.734  0.00  0.00    -0.530 N 
ENDROOT
BRANCH  13  14
ATOM     14  C   LIG    1       -0.128   5.572  -1.036  0.00  0.00    +0.170 A 
ATOM     15  C   LIG    1       -0.215   5.991  -2.357  0.00  0.00    +0.040 A 
ATOM     16  C   LIG    1       -0.243   7.340  -2.651  0.00  0.00    +0.060 A 
ATOM     17  C   LIG    1       -0.170   8.273  -1.633  0.00  0.00    +0.030 A 
ATOM     18  C   LIG    1       -0.077   7.859  -0.317  0.00  0.00    +0.080 A 
ATOM     19  C   LIG    1       -0.056   6.511  -0.016  0.00  0.00    -0.160 A 
BRANCH  19  20
ATOM     20  C   LIG    1        0.045   6.060   1.418  0.00  0.00    +0.510 C 
ATOM     21  F   LIG    1        1.202   5.291   1.585  0.00  0.00    -0.170 F 
ATOM     22  F   LIG    1       -1.077   5.291   1.746  0.00  0.00    -0.170 F 
ATOM     23  F   LIG    1        0.105   7.179   2.256  0.00  0.00    -0.170 F 
ENDBRANCH  19  20
ENDBRANCH  13  14
BRANCH  12  24
ATOM     24  N   LIG    1       -3.649   2.215   0.169  0.00  0.00    -0.610 N 
ATOM     25  H   LIG    1       -3.619   3.184   0.174  0.00  0.00    +0.430 HD
BRANCH  24  26
ATOM     26  C   LIG    1       -4.874   1.553   0.288  0.00  0.00    +0.160 A 
ATOM     27  C   LIG    1       -4.920   0.165   0.275  0.00  0.00    -0.020 A 
ATOM     28  C   LIG    1       -6.132  -0.486   0.400  0.00  0.00    +0.070 A 
ATOM     29  C   LIG    1       -7.300   0.242   0.524  0.00  0.00    +0.010 A 
ATOM     30  C   LIG    1       -7.260   1.626   0.531  0.00  0.00    +0.000 A 
ATOM     31 CL   LIG    1       -8.729   2.536   0.689  0.00  0.00    -0.060 Cl
ATOM     32  C   LIG    1       -6.050   2.283   0.414  0.00  0.00    +0.000 A 
ENDBRANCH  24  26
ENDBRANCH  12  24
TORSDOF 4
