REMARK  Name = ZINCvU0000000DQg.0
REMARK                            x       y       z     vdW  Elec       q    Type
REMARK                         _______ _______ _______ _____ _____    ______ ____
ROOT
ATOM      1  C   LIG    1       -0.451   4.547   6.199  0.00  0.00    +0.260 A 
ATOM      2  N   LIG    1       -1.394   4.949   7.015  0.00  0.00    -0.290 NA
ATOM      3  N   LIG    1       -0.784   5.218   8.248  0.00  0.00    -0.340 N 
ATOM      4  C   LIG    1       -1.248   5.657   9.458  0.00  0.00    +0.370 A 
ATOM      5  N   LIG    1       -0.467   5.843  10.491  0.00  0.00    -0.490 NA
ATOM      6  C   LIG    1        0.867   5.612  10.432  0.00  0.00    +0.140 A 
ATOM      7  C   LIG    1        1.438   5.156   9.223  0.00  0.00    -0.080 A 
ATOM      8  C   LIG    1        2.808   4.914   9.147  0.00  0.00    +0.090 A 
ATOM      9  C   LIG    1        3.599   5.123  10.256  0.00  0.00    +0.020 A 
ATOM     10  C   LIG    1        3.041   5.571  11.446  0.00  0.00    +0.060 A 
ATOM     11  C   LIG    1        1.691   5.816  11.543  0.00  0.00    +0.060 A 
ATOM     12  C   LIG    1        0.547   4.952   8.075  0.00  0.00    +0.340 A 
ATOM     13  N   LIG    1        0.718   4.551   6.833  0.00  0.00    -0.510 NA
ENDROOT
BRANCH   1  14
ATOM     14  C   LIG    1       -0.659   4.146   4.761  0.00  0.00    +0.170 C 
BRANCH  14  15
ATOM     15  C   LIG    1       -0.948   2.646   4.686  0.00  0.00    +0.340 C 
BRANCH  15  22
ATOM     16  C   LIG    1       -3.668   2.631   3.200  0.00  0.00    +0.140 C 
ATOM     17  C   LIG    1       -2.327   2.245   2.630  0.00  0.00    +0.090 A 
ATOM     18  C   LIG    1       -2.088   1.831   1.364  0.00  0.00    -0.120 A 
ATOM     19  C   LIG    1       -0.718   1.572   1.248  0.00  0.00    +0.080 A 
ATOM     20  N   LIG    1       -0.154   1.829   2.400  0.00  0.00    -0.290 NA
ATOM     21  C   LIG    1       -0.013   1.086   0.008  0.00  0.00    +0.160 C 
ATOM     22  N   LIG    1       -1.150   2.256   3.289  0.00  0.00    -0.370 N 
ENDBRANCH  15  22
ENDBRANCH  14  15
ENDBRANCH   1  14
BRANCH   4  23
ATOM     23  S   LIG    1       -2.971   5.985   9.633  0.00  0.00    +0.040 S 
BRANCH  23  24
ATOM     24  C   LIG    1       -3.016   6.514  11.364  0.00  0.00    +0.150 C 
BRANCH  24  25
ATOM     25  C   LIG    1       -4.432   6.856  11.748  0.00  0.00    -0.080 A 
ATOM     26  C   LIG    1       -4.899   8.148  11.587  0.00  0.00    +0.050 A 
ATOM     27  C   LIG    1       -6.199   8.461  11.934  0.00  0.00    +0.030 A 
ATOM     28  C   LIG    1       -7.031   7.484  12.453  0.00  0.00    -0.020 A 
ATOM     29  C   LIG    1       -6.562   6.193  12.619  0.00  0.00    +0.030 A 
ATOM     30 CL   LIG    1       -8.662   7.879  12.897  0.00  0.00    -0.060 Cl
ATOM     31  C   LIG    1       -5.263   5.880  12.266  0.00  0.00    +0.050 A 
ENDBRANCH  24  25
ENDBRANCH  23  24
ENDBRANCH   4  23
TORSDOF 6
