REMARK  Name = ZINCrg00000fSzUY.0
REMARK                            x       y       z     vdW  Elec       q    Type
REMARK                         _______ _______ _______ _____ _____    ______ ____
ROOT
ATOM      1  N   LIG    1       -1.150  -0.694   0.111  0.00  0.00    -0.710 N 
ATOM      2  H   LIG    1       -1.998  -0.224   0.122  0.00  0.00    +0.430 HD
ATOM      3  C   LIG    1        0.002  -0.004   0.002  0.00  0.00    +0.590 C 
ATOM      4  O   LIG    1        1.059  -0.597  -0.104  0.00  0.00    -0.560 OA
ENDROOT
BRANCH   3   5
ATOM      5  C   LIG    1       -0.018   1.467   0.012  0.00  0.00    -0.350 A 
ATOM      6  C   LIG    1        1.161   2.184   0.019  0.00  0.00    +0.430 A 
ATOM      7  N   LIG    1        1.181   3.523   0.027  0.00  0.00    -0.590 N 
ATOM      8  H   LIG    1        2.040   3.974   0.031  0.00  0.00    +0.430 HD
ATOM      9  C   LIG    1        0.035   4.288   0.029  0.00  0.00    +0.180 A 
ATOM     10  C   LIG    1        0.112   5.678   0.037  0.00  0.00    -0.030 A 
ATOM     11  C   LIG    1       -1.042   6.431   0.039  0.00  0.00    +0.080 A 
ATOM     12  C   LIG    1       -2.287   5.820   0.033  0.00  0.00    -0.010 A 
ATOM     13  C   LIG    1       -2.387   4.446   0.025  0.00  0.00    +0.110 A 
ATOM     14  C   LIG    1       -1.228   3.671   0.023  0.00  0.00    -0.180 A 
ATOM     15  C   LIG    1       -1.295   2.198   0.008  0.00  0.00    +0.430 A 
ATOM     16  O   LIG    1       -2.363   1.611  -0.003  0.00  0.00    -0.470 OA
ENDBRANCH   3   5
BRANCH   1  17
ATOM     17  C   LIG    1       -1.122  -2.155   0.213  0.00  0.00    +0.300 C 
BRANCH  17  19
ATOM     18  O   LIG    1       -3.467  -1.907   0.318  0.00  0.00    -0.520 OA
ATOM     19  C   LIG    1       -2.531  -2.678   0.324  0.00  0.00    +0.510 C 
ATOM     20  N   LIG    1       -2.752  -4.004   0.429  0.00  0.00    -0.720 N 
ATOM     21  H   LIG    1       -2.004  -4.621   0.434  0.00  0.00    +0.400 HD
BRANCH  20  22
ATOM     22  C   LIG    1       -4.122  -4.512   0.537  0.00  0.00    +0.240 C 
ATOM     23  C   LIG    1       -4.171  -5.954   0.027  0.00  0.00    +0.040 C 
ATOM     24  C   LIG    1       -5.630  -6.394  -0.143  0.00  0.00    +0.150 C 
ATOM     25  C   LIG    1       -6.367  -6.084   1.137  0.00  0.00    +0.080 A 
ATOM     26  N   LIG    1       -7.515  -6.547   1.540  0.00  0.00    -0.290 NA
ATOM     27  N   LIG    1       -7.799  -5.982   2.792  0.00  0.00    -0.480 N 
ATOM     28  H   LIG    1       -8.591  -6.150   3.327  0.00  0.00    +0.440 HD
ATOM     29  C   LIG    1       -6.777  -5.161   3.122  0.00  0.00    +0.250 A 
ATOM     30  C   LIG    1       -5.880  -5.205   2.119  0.00  0.00    -0.230 A 
ATOM     31  C   LIG    1       -4.569  -4.467   2.003  0.00  0.00    +0.100 C 
ENDBRANCH  20  22
ENDBRANCH  17  19
ENDBRANCH   1  17
TORSDOF 4
