REMARK  Name = ZINCrD00000l7iWe.0
REMARK                            x       y       z     vdW  Elec       q    Type
REMARK                         _______ _______ _______ _____ _____    ______ ____
ROOT
ATOM      1  C   LIG    1       -7.183   5.451   1.086  0.00  0.00    +0.560 C 
ATOM      2  N   LIG    1       -6.260   5.646   0.123  0.00  0.00    -0.670 N 
ATOM      3  H   LIG    1       -6.426   6.290  -0.583  0.00  0.00    +0.410 HD
ATOM      4  O   LIG    1       -6.936   4.718   2.024  0.00  0.00    -0.500 OA
ENDROOT
BRANCH   1   7
ATOM      5  C   LIG    1       -9.102   5.123   3.226  0.00  0.00    +0.140 C 
ATOM      6  C   LIG    1       -9.428   5.977   2.028  0.00  0.00    +0.050 A 
ATOM      7  C   LIG    1       -8.494   6.128   1.002  0.00  0.00    -0.150 A 
ATOM      8  C   LIG    1       -8.801   6.925  -0.102  0.00  0.00    +0.120 A 
ATOM      9  C   LIG    1      -10.029   7.550  -0.177  0.00  0.00    +0.030 A 
ATOM     10  C   LIG    1      -10.950   7.397   0.844  0.00  0.00    +0.140 A 
ATOM     11  C   LIG    1      -10.650   6.612   1.943  0.00  0.00    -0.060 A 
BRANCH  11  12
ATOM     12  N   LIG    1      -11.642   6.453   3.030  0.00  0.00    +0.030 N 
ATOM     13  O   LIG    1      -11.334   5.872   4.056  0.00  0.00    -0.150 OA
ATOM     14  O   LIG    1      -12.766   6.902   2.899  0.00  0.00    -0.160 OA
ENDBRANCH  11  12
ENDBRANCH   1   7
BRANCH   2  15
ATOM     15  C   LIG    1       -5.064   4.922   0.143  0.00  0.00    +0.140 A 
ATOM     16  C   LIG    1       -4.463   4.603   1.355  0.00  0.00    +0.030 A 
ATOM     17  C   LIG    1       -3.282   3.888   1.371  0.00  0.00    +0.040 A 
ATOM     18  C   LIG    1       -2.697   3.489   0.183  0.00  0.00    -0.080 A 
ATOM     19  C   LIG    1       -3.289   3.809  -1.025  0.00  0.00    +0.040 A 
ATOM     20  C   LIG    1       -4.474   4.519  -1.048  0.00  0.00    -0.010 A 
BRANCH  18  21
ATOM     21  C   LIG    1       -1.407   2.710   0.205  0.00  0.00    +0.100 C 
BRANCH  21  22
ATOM     22  C   LIG    1       -1.713   1.235   0.257  0.00  0.00    +0.530 C 
ATOM     23  N   LIG    1       -0.707   0.339   0.284  0.00  0.00    -0.620 N 
ATOM     24  C   LIG    1        0.728   0.660   0.260  0.00  0.00    +0.240 C 
ATOM     25  C   LIG    1        1.498  -0.677   0.272  0.00  0.00    +0.030 C 
ATOM     26  C   LIG    1        0.450  -1.686  -0.269  0.00  0.00    +0.040 C 
ATOM     27  C   LIG    1       -0.862  -1.126   0.336  0.00  0.00    +0.250 C 
ATOM     28  O   LIG    1       -2.864   0.854   0.275  0.00  0.00    -0.530 OA
ENDBRANCH  21  22
ENDBRANCH  18  21
ENDBRANCH   2  15
TORSDOF 5
