REMARK  Name = ZINCrD00000dehJT.0
REMARK                            x       y       z     vdW  Elec       q    Type
REMARK                         _______ _______ _______ _____ _____    ______ ____
ROOT
ATOM      1  C   LIG    1       -4.857   6.961   2.218  0.00  0.00    +0.560 C 
ATOM      2  N   LIG    1       -3.638   6.461   2.501  0.00  0.00    -0.610 N 
ATOM      3  C   LIG    1       -2.576   6.185   1.522  0.00  0.00    +0.240 C 
ATOM      4  C   LIG    1       -1.358   5.651   2.306  0.00  0.00    +0.250 C 
ATOM      5  C   LIG    1       -1.605   6.189   3.740  0.00  0.00    -0.080 C 
ATOM      6  C   LIG    1       -1.127   7.637   3.872  0.00  0.00    +0.050 C 
ATOM      7  C   LIG    1       -0.932   5.295   4.784  0.00  0.00    +0.060 C 
ATOM      8  C   LIG    1       -3.148   6.101   3.844  0.00  0.00    +0.260 C 
ATOM      9  O   LIG    1       -5.657   7.149   3.109  0.00  0.00    -0.540 OA
ENDROOT
BRANCH   4  10
ATOM     10  N   LIG    1       -1.338   4.186   2.297  0.00  0.00    -0.720 N 
ATOM     11  H   LIG    1       -1.745   3.692   3.026  0.00  0.00    +0.400 HD
ATOM     12  C   LIG    1       -0.755   3.526   1.278  0.00  0.00    +0.510 C 
ATOM     13  O   LIG    1       -0.247   4.144   0.366  0.00  0.00    -0.530 OA
BRANCH  12  14
ATOM     14  C   LIG    1       -0.735   2.019   1.269  0.00  0.00    +0.040 C 
BRANCH  14  15
ATOM     15  C   LIG    1       -0.019   1.526   0.010  0.00  0.00    +0.030 C 
BRANCH  15  16
ATOM     16  C   LIG    1        0.002  -0.004   0.002  0.00  0.00    +0.010 C 
BRANCH  16  17
ATOM     17  C   LIG    1        0.718  -0.497  -1.257  0.00  0.00    -0.020 C 
ATOM     18  C   LIG    1       -0.095  -0.107  -2.495  0.00  0.00    +0.000 C 
ATOM     19  C   LIG    1        0.588  -0.672  -3.743  0.00  0.00    +0.200 C 
ATOM     20  O   LIG    1        0.707  -2.091  -3.618  0.00  0.00    -0.380 OA
ATOM     21  C   LIG    1        1.497  -2.514  -2.505  0.00  0.00    +0.200 C 
ATOM     22  C   LIG    1        0.850  -2.023  -1.207  0.00  0.00    -0.010 C 
ENDBRANCH  16  17
ENDBRANCH  15  16
ENDBRANCH  14  15
ENDBRANCH  12  14
ENDBRANCH   4  10
BRANCH   1  25
ATOM     23  C   LIG    1       -6.624   7.850   0.536  0.00  0.00    +0.010 C 
ATOM     24  C   LIG    1       -5.400   8.761   0.427  0.00  0.00    +0.060 C 
ATOM     25  C   LIG    1       -5.226   7.285   0.793  0.00  0.00    -0.070 C 
BRANCH  23  26
ATOM     26  C   LIG    1       -7.322   7.444  -0.763  0.00  0.00    +0.050 C 
BRANCH  26  28
ATOM     27  C   LIG    1       -9.443   7.601  -2.075  0.00  0.00    +0.010 C 
ATOM     28  C   LIG    1       -8.745   8.006  -0.775  0.00  0.00    +0.000 C 
ENDBRANCH  26  28
ENDBRANCH  23  26
ENDBRANCH   1  25
TORSDOF 8
