REMARK  Name = ZINCrD000000fKic.0
REMARK                            x       y       z     vdW  Elec       q    Type
REMARK                         _______ _______ _______ _____ _____    ______ ____
ROOT
ATOM      1  N   LIG    1        0.978   1.198  -2.703  0.00  0.00    -0.660 N 
ATOM      2  H   LIG    1        1.475   1.931  -2.306  0.00  0.00    +0.410 HD
ATOM      3  C   LIG    1       -0.223   0.848  -2.199  0.00  0.00    +0.520 C 
ATOM      4  O   LIG    1       -0.901   0.021  -2.770  0.00  0.00    -0.510 OA
ENDROOT
BRANCH   1   8
ATOM      5  C   LIG    1        2.553  -0.867  -5.965  0.00  0.00    +0.130 A 
ATOM      6  C   LIG    1        3.402  -0.220  -5.076  0.00  0.00    +0.000 A 
ATOM      7  C   LIG    1        2.881   0.464  -3.996  0.00  0.00    +0.000 A 
ATOM      8  C   LIG    1        1.507   0.505  -3.799  0.00  0.00    +0.130 A 
ATOM      9  C   LIG    1        0.658  -0.146  -4.684  0.00  0.00    +0.050 A 
ATOM     10  C   LIG    1        1.179  -0.826  -5.767  0.00  0.00    +0.040 A 
BRANCH   5  13
ATOM     11  C   LIG    1        2.874  -2.519  -9.331  0.00  0.00    +0.110 C 
ATOM     12  C   LIG    1        2.384  -1.638  -8.210  0.00  0.00    +0.510 C 
ATOM     13  N   LIG    1        3.083  -1.561  -7.060  0.00  0.00    -0.680 N 
ATOM     14  H   LIG    1        3.952  -1.986  -6.991  0.00  0.00    +0.410 HD
ATOM     15  O   LIG    1        1.362  -0.999  -8.343  0.00  0.00    -0.520 OA
ENDBRANCH   5  13
ENDBRANCH   1   8
BRANCH   3  16
ATOM     16  C   LIG    1       -0.721   1.484  -0.927  0.00  0.00    +0.250 C 
BRANCH  16  17
ATOM     17  N   LIG    1       -2.131   1.140  -0.729  0.00  0.00    -0.710 N 
ATOM     18  H   LIG    1       -2.494   0.333  -1.126  0.00  0.00    +0.410 HD
ATOM     19  C   LIG    1       -2.924   1.945   0.006  0.00  0.00    +0.570 C 
ATOM     20  O   LIG    1       -2.469   2.956   0.504  0.00  0.00    -0.530 OA
BRANCH  19  21
ATOM     21  C   LIG    1       -4.347   1.598   0.206  0.00  0.00    -0.130 A 
ATOM     22  C   LIG    1       -4.874   0.440  -0.369  0.00  0.00    +0.040 A 
ATOM     23  C   LIG    1       -6.202   0.120  -0.175  0.00  0.00    +0.010 A 
ATOM     24  C   LIG    1       -7.013   0.948   0.580  0.00  0.00    +0.040 A 
ATOM     25  C   LIG    1       -6.498   2.100   1.149  0.00  0.00    -0.090 A 
ATOM     26  C   LIG    1       -7.389   2.996   1.969  0.00  0.00    +0.090 C 
ATOM     27  C   LIG    1       -5.171   2.429   0.966  0.00  0.00    +0.080 A 
ENDBRANCH  19  21
ENDBRANCH  16  17
BRANCH  16  28
ATOM     28  C   LIG    1        0.101   0.969   0.256  0.00  0.00    -0.020 C 
ATOM     29  C   LIG    1       -0.232  -0.503   0.506  0.00  0.00    +0.030 C 
ATOM     30  C   LIG    1       -0.235   1.787   1.505  0.00  0.00    +0.030 C 
ENDBRANCH  16  28
ENDBRANCH   3  16
TORSDOF 6
