REMARK  Name = ZINCqH0000038D2o.0
REMARK                            x       y       z     vdW  Elec       q    Type
REMARK                         _______ _______ _______ _____ _____    ______ ____
ROOT
ATOM      1  N   LIG    1        3.625   0.868   0.494  0.00  0.00    -0.740 N 
ATOM      2  H   LIG    1        3.945   1.534  -0.134  0.00  0.00    +0.400 HD
ATOM      3  C   LIG    1        2.303   0.638   0.619  0.00  0.00    +0.710 C 
ATOM      4  N   LIG    1        1.425   1.335  -0.128  0.00  0.00    -0.740 N 
ATOM      5  H   LIG    1        1.744   2.002  -0.756  0.00  0.00    +0.400 HD
ATOM      6  O   LIG    1        1.903  -0.198   1.407  0.00  0.00    -0.580 OA
ENDROOT
BRANCH   4   7
ATOM      7  C   LIG    1       -0.013   1.086   0.008  0.00  0.00    +0.310 C 
ATOM      8  C   LIG    1       -0.577   1.957   1.132  0.00  0.00    +0.040 C 
BRANCH   7   9
ATOM      9  C   LIG    1       -0.706   1.424  -1.287  0.00  0.00    -0.100 A 
ATOM     10  C   LIG    1       -0.161   2.368  -2.136  0.00  0.00    +0.040 A 
ATOM     11  C   LIG    1       -0.794   2.676  -3.326  0.00  0.00    +0.050 A 
ATOM     12  C   LIG    1       -1.977   2.048  -3.665  0.00  0.00    +0.020 A 
ATOM     13  C   LIG    1       -2.528   1.105  -2.814  0.00  0.00    +0.080 A 
ATOM     14  F   LIG    1       -3.685   0.490  -3.144  0.00  0.00    -0.120 F 
ATOM     15  C   LIG    1       -1.891   0.793  -1.622  0.00  0.00    +0.080 A 
ATOM     16  F   LIG    1       -2.427  -0.127  -0.790  0.00  0.00    -0.120 F 
ENDBRANCH   7   9
ENDBRANCH   4   7
BRANCH   1  17
ATOM     17  C   LIG    1        4.580   0.110   1.307  0.00  0.00    +0.410 C 
BRANCH  17  21
ATOM     18  C   LIG    1        8.588  -0.459  -1.433  0.00  0.00    +0.160 C 
ATOM     19  C   LIG    1        7.863   0.265  -0.328  0.00  0.00    +0.230 A 
ATOM     20  N   LIG    1        6.636  -0.076   0.012  0.00  0.00    -0.510 NA
ATOM     21  C   LIG    1        5.982   0.553   0.978  0.00  0.00    +0.310 A 
ATOM     22  N   LIG    1        6.504   1.542   1.663  0.00  0.00    -0.490 NA
ATOM     23  C   LIG    1        7.748   1.963   1.400  0.00  0.00    +0.160 A 
ATOM     24  C   LIG    1        8.343   3.016   2.109  0.00  0.00    +0.040 A 
ATOM     25  C   LIG    1        9.612   3.403   1.799  0.00  0.00    +0.060 A 
ATOM     26  C   LIG    1       10.330   2.771   0.787  0.00  0.00    +0.020 A 
ATOM     27  C   LIG    1        9.785   1.744   0.077  0.00  0.00    +0.060 A 
ATOM     28  C   LIG    1        8.480   1.319   0.369  0.00  0.00    -0.160 A 
ENDBRANCH  17  21
ENDBRANCH   1  17
TORSDOF 4
