REMARK  Name = ZINCrD000000A74r.0
REMARK                            x       y       z     vdW  Elec       q    Type
REMARK                         _______ _______ _______ _____ _____    ______ ____
ROOT
ATOM      1  O   LIG    1       -0.581   2.178  -3.459  0.00  0.00    -0.530 OA
ATOM      2  C   LIG    1        0.013   1.864  -2.444  0.00  0.00    +0.560 C 
ATOM      3  N   LIG    1        1.358   1.780  -2.449  0.00  0.00    -0.590 N 
ATOM      4  C   LIG    1        2.025   1.301  -1.258  0.00  0.00    +0.270 C 
ATOM      5  C   LIG    1        2.372   2.501  -0.341  0.00  0.00    +0.010 C 
ATOM      6  C   LIG    1        3.434   3.314  -0.964  0.00  0.00    +0.170 C 
ATOM      7  N   LIG    1        3.064   3.910  -2.247  0.00  0.00    -0.530 NA
ATOM      8  C   LIG    1        3.349   2.998  -3.334  0.00  0.00    +0.180 C 
ATOM      9  C   LIG    1        2.086   2.176  -3.673  0.00  0.00    +0.280 C 
ENDROOT
BRANCH   2  10
ATOM     10  C   LIG    1       -0.733   1.578  -1.220  0.00  0.00    -0.200 C 
ATOM     11  C   LIG    1       -0.981   0.295  -0.858  0.00  0.00    +0.090 C 
ATOM     12  C   LIG    1       -1.754   0.066   0.373  0.00  0.00    -0.140 A 
ATOM     13  C   LIG    1       -1.775  -1.181   0.997  0.00  0.00    +0.070 A 
ATOM     14  C   LIG    1       -2.513  -1.351   2.151  0.00  0.00    -0.020 A 
ATOM     15  C   LIG    1       -3.227  -0.292   2.688  0.00  0.00    +0.050 A 
ATOM     16  C   LIG    1       -3.213   0.949   2.077  0.00  0.00    -0.010 A 
ATOM     17  C   LIG    1       -2.480   1.138   0.919  0.00  0.00    +0.140 A 
ATOM     18  O   LIG    1       -2.445   2.337   0.296  0.00  0.00    -0.300 OA
ATOM     19  C   LIG    1       -1.229   2.708  -0.355  0.00  0.00    +0.320 C 
ENDBRANCH   2  10
BRANCH   7  20
ATOM     20  C   LIG    1        3.745   5.196  -2.446  0.00  0.00    +0.240 C 
BRANCH  20  21
ATOM     21  C   LIG    1        3.161   5.893  -3.647  0.00  0.00    -0.090 A 
ATOM     22  C   LIG    1        3.704   5.681  -4.901  0.00  0.00    +0.040 A 
ATOM     23  C   LIG    1        3.166   6.315  -6.004  0.00  0.00    -0.010 A 
ATOM     24  C   LIG    1        2.090   7.173  -5.853  0.00  0.00    +0.100 A 
ATOM     25  C   LIG    1        1.550   7.389  -4.596  0.00  0.00    -0.010 A 
ATOM     26  F   LIG    1        1.567   7.799  -6.930  0.00  0.00    -0.140 F 
ATOM     27  C   LIG    1        2.087   6.749  -3.495  0.00  0.00    +0.060 A 
ENDBRANCH  20  21
ENDBRANCH   7  20
TORSDOF 3
