REMARK  Name = ZINCvU0000000GuW.0
REMARK                            x       y       z     vdW  Elec       q    Type
REMARK                         _______ _______ _______ _____ _____    ______ ____
ROOT
ATOM      1  C   LIG    1       -0.751   1.561   1.224  0.00  0.00    -0.090 C 
ATOM      2  C   LIG    1       -0.297   2.616   1.953  0.00  0.00    +0.150 C 
ATOM      3  N   LIG    1        0.860   3.261   1.585  0.00  0.00    -0.640 N 
ATOM      4  H   LIG    1        1.034   4.159   1.910  0.00  0.00    +0.420 HD
ATOM      5  C   LIG    1        1.768   2.649   0.765  0.00  0.00    +0.220 C 
ATOM      6  C   LIG    1        1.405   1.600  -0.003  0.00  0.00    -0.260 C 
ATOM      7  C   LIG    1        2.336   0.953  -0.834  0.00  0.00    +0.400 C 
ATOM      8  C   LIG    1        3.772   1.397  -0.890  0.00  0.00    +0.030 C 
ATOM      9  C   LIG    1        4.153   2.025   0.455  0.00  0.00    +0.060 C 
ATOM     10  O   LIG    1        1.974   0.019  -1.521  0.00  0.00    -0.460 OA
ATOM     11  C   LIG    1        3.183   3.173   0.746  0.00  0.00    +0.090 C 
ATOM     12  C   LIG    1       -0.013   1.086   0.008  0.00  0.00    +0.190 C 
ENDROOT
BRANCH  12  13
ATOM     13  C   LIG    1       -0.726   1.577  -1.225  0.00  0.00    -0.080 A 
ATOM     14  C   LIG    1       -0.878   2.934  -1.441  0.00  0.00    +0.040 A 
ATOM     15  C   LIG    1       -1.527   3.386  -2.574  0.00  0.00    -0.030 A 
ATOM     16  C   LIG    1       -2.035   2.478  -3.489  0.00  0.00    +0.100 A 
ATOM     17  C   LIG    1       -1.887   1.119  -3.269  0.00  0.00    -0.010 A 
ATOM     18  F   LIG    1       -2.675   2.919  -4.594  0.00  0.00    -0.140 F 
ATOM     19  C   LIG    1       -1.232   0.670  -2.138  0.00  0.00    +0.060 A 
ENDBRANCH  12  13
BRANCH   1  21
ATOM     20  N   LIG    1       -2.908   0.365   1.940  0.00  0.00    -0.400 NA
ATOM     21  C   LIG    1       -1.954   0.894   1.624  0.00  0.00    +0.250 C 
ENDBRANCH   1  21
BRANCH   2  22
ATOM     22  S   LIG    1       -1.193   3.155   3.371  0.00  0.00    +0.020 S 
BRANCH  22  23
ATOM     23  C   LIG    1       -0.144   4.532   3.901  0.00  0.00    +0.060 C 
BRANCH  23  24
ATOM     24  C   LIG    1       -0.731   5.165   5.136  0.00  0.00    +0.420 C 
ATOM     25  O   LIG    1       -1.758   4.729   5.611  0.00  0.00    -0.420 OA
BRANCH  24  26
ATOM     26  C   LIG    1       -0.058   6.313   5.765  0.00  0.00    -0.150 A 
ATOM     27  C   LIG    1        1.129   6.815   5.223  0.00  0.00    +0.070 A 
ATOM     28  C   LIG    1        1.751   7.894   5.815  0.00  0.00    +0.020 A 
ATOM     29  C   LIG    1        1.209   8.474   6.949  0.00  0.00    +0.070 A 
ATOM     30  C   LIG    1        0.036   7.979   7.495  0.00  0.00    -0.050 A 
ATOM     31 CL   LIG    1       -0.634   8.714   8.918  0.00  0.00    -0.050 Cl
ATOM     32  C   LIG    1       -0.601   6.903   6.911  0.00  0.00    +0.100 A 
ENDBRANCH  24  26
ENDBRANCH  23  24
ENDBRANCH  22  23
ENDBRANCH   2  22
TORSDOF 6
