REMARK  Name = ZINCkj000005fY86.0
REMARK                            x       y       z     vdW  Elec       q    Type
REMARK                         _______ _______ _______ _____ _____    ______ ____
ROOT
ATOM      1  N   LIG    1        2.425   5.355  -0.094  0.00  0.00    -0.600 N 
ATOM      2  C   LIG    1        2.422   4.015  -0.243  0.00  0.00    +0.560 C 
ATOM      3  O   LIG    1        3.458   3.389  -0.137  0.00  0.00    -0.510 OA
ENDROOT
BRANCH   2   4
ATOM      4  C   LIG    1        1.157   3.308  -0.537  0.00  0.00    +0.110 A 
ATOM      5  C   LIG    1       -0.008   3.746   0.018  0.00  0.00    -0.020 A 
ATOM      6  C   LIG    1       -1.211   3.077  -0.259  0.00  0.00    +0.110 A 
ATOM      7  C   LIG    1       -1.199   1.996  -1.086  0.00  0.00    -0.040 A 
ATOM      8  C   LIG    1        0.023   1.560  -1.643  0.00  0.00    +0.520 A 
ATOM      9  O   LIG    1        0.043   0.589  -2.382  0.00  0.00    -0.530 OA
ATOM     10  N   LIG    1        1.165   2.217  -1.365  0.00  0.00    -0.590 N 
ATOM     11  H   LIG    1        2.000   1.915  -1.754  0.00  0.00    +0.420 HD
ENDBRANCH   2   4
BRANCH   1  13
ATOM     12  C   LIG    1        0.859   6.559   1.348  0.00  0.00    +0.030 C 
ATOM     13  C   LIG    1        1.161   6.094  -0.078  0.00  0.00    +0.260 C 
ENDBRANCH   1  13
BRANCH   1  14
ATOM     14  C   LIG    1        3.695   6.072   0.054  0.00  0.00    +0.320 C 
BRANCH  14  15
ATOM     15  C   LIG    1        4.212   6.481  -1.327  0.00  0.00    +0.010 C 
BRANCH  15  16
ATOM     16  C   LIG    1        5.537   7.230  -1.173  0.00  0.00    +0.260 C 
BRANCH  16  17
ATOM     17  N   LIG    1        6.035   7.623  -2.498  0.00  0.00    -0.390 N 
ATOM     18  C   LIG    1        7.271   8.435  -2.361  0.00  0.00    +0.270 C 
ATOM     19  C   LIG    1        7.951   8.280  -3.745  0.00  0.00    +0.070 C 
ATOM     20  C   LIG    1        7.652   6.810  -4.116  0.00  0.00    +0.060 C 
ATOM     21  C   LIG    1        6.422   6.425  -3.274  0.00  0.00    +0.250 C 
ATOM     22  H   LIG    1        5.328   8.145  -2.994  0.00  0.00    +0.430 HD
ENDBRANCH  16  17
ENDBRANCH  15  16
ENDBRANCH  14  15
ENDBRANCH   1  14
TORSDOF 6
