REMARK  Name = ZINCpk00000y6ueC.1
REMARK                            x       y       z     vdW  Elec       q    Type
REMARK                         _______ _______ _______ _____ _____    ______ ____
ROOT
ATOM      1  N   LIG    1        1.780   3.855  -1.250  0.00  0.00    -0.670 NA
ATOM      2  H   LIG    1        0.923   3.664  -1.748  0.00  0.00    +0.350 HD
ENDROOT
BRANCH   1   4
ATOM      3  C   LIG    1        2.896   5.487  -2.754  0.00  0.00    +0.310 C 
ATOM      4  C   LIG    1        2.177   5.261  -1.405  0.00  0.00    +0.200 C 
ATOM      5  C   LIG    1        0.937   6.173  -1.552  0.00  0.00    +0.030 C 
ATOM      6  C   LIG    1        1.364   7.222  -2.554  0.00  0.00    +0.520 C 
ATOM      7  O   LIG    1        0.796   8.277  -2.741  0.00  0.00    -0.520 OA
ATOM      8  N   LIG    1        2.466   6.814  -3.209  0.00  0.00    -0.610 N 
ATOM      9  C   LIG    1        3.149   7.595  -4.243  0.00  0.00    +0.310 C 
BRANCH   3  15
ATOM     10  C   LIG    1        4.771   3.050  -3.148  0.00  0.00    +0.350 C 
ATOM     11  N   LIG    1        5.195   4.390  -2.734  0.00  0.00    -0.360 N 
ATOM     12  N   LIG    1        6.508   4.789  -2.453  0.00  0.00    -0.290 NA
ATOM     13  C   LIG    1        6.488   6.053  -2.114  0.00  0.00    +0.230 A 
ATOM     14  C   LIG    1        5.164   6.499  -2.172  0.00  0.00    -0.110 A 
ATOM     15  C   LIG    1        4.390   5.459  -2.559  0.00  0.00    +0.070 A 
ENDBRANCH   3  15
ENDBRANCH   1   4
BRANCH   1  16
ATOM     16  C   LIG    1        1.656   3.496   0.169  0.00  0.00    +0.310 C 
BRANCH  16  17
ATOM     17  C   LIG    1        1.249   2.050   0.288  0.00  0.00    -0.010 A 
ATOM     18  C   LIG    1        2.090   1.001   0.367  0.00  0.00    -0.030 A 
ATOM     19  C   LIG    1        1.295  -0.159   0.466  0.00  0.00    +0.000 A 
ATOM     20  C   LIG    1       -0.000   0.251   0.440  0.00  0.00    +0.060 A 
ATOM     21  O   LIG    1       -0.014   1.593   0.332  0.00  0.00    -0.160 OA
BRANCH  20  22
ATOM     22  C   LIG    1       -1.189  -0.625   0.517  0.00  0.00    +0.140 A 
ATOM     23  N   LIG    1       -1.179  -1.939   0.624  0.00  0.00    -0.270 NA
ATOM     24  N   LIG    1       -2.507  -2.382   0.667  0.00  0.00    -0.470 N 
ATOM     25  H   LIG    1       -2.797  -3.304   0.743  0.00  0.00    +0.450 HD
ATOM     26  C   LIG    1       -3.314  -1.302   0.584  0.00  0.00    +0.240 A 
ATOM     27  C   LIG    1       -2.534  -0.203   0.496  0.00  0.00    -0.100 A 
ENDBRANCH  20  22
ENDBRANCH  16  17
ENDBRANCH   1  16
TORSDOF 5
