REMARK  Name = ZINCrH00000No4Nq.0
REMARK                            x       y       z     vdW  Elec       q    Type
REMARK                         _______ _______ _______ _____ _____    ______ ____
ROOT
ATOM      1  C   LIG    1       -3.408   5.073   0.076  0.00  0.00    +0.240 C 
ATOM      2  C   LIG    1       -2.730   3.899   0.317  0.00  0.00    -0.100 C 
ATOM      3  N   LIG    1       -1.413   3.640   0.074  0.00  0.00    -0.470 NA
ATOM      4  C   LIG    1       -1.144   2.416   0.438  0.00  0.00    +0.350 C 
ATOM      5  O   LIG    1       -2.234   1.794   0.927  0.00  0.00    -0.290 OA
ATOM      6  C   LIG    1       -3.275   2.654   0.894  0.00  0.00    +0.480 C 
ATOM      7  O   LIG    1       -4.417   2.446   1.257  0.00  0.00    -0.410 OA
ENDROOT
BRANCH   1  11
ATOM      8  C   LIG    1       -7.619   5.221   0.531  0.00  0.00    -0.050 A 
ATOM      9  C   LIG    1       -6.843   6.289   0.950  0.00  0.00    +0.000 A 
ATOM     10  C   LIG    1       -5.473   6.249   0.806  0.00  0.00    +0.050 A 
ATOM     11  C   LIG    1       -4.866   5.124   0.234  0.00  0.00    -0.110 A 
ATOM     12  C   LIG    1       -5.659   4.051  -0.192  0.00  0.00    +0.070 A 
ATOM     13  C   LIG    1       -7.027   4.105  -0.036  0.00  0.00    +0.010 A 
BRANCH   8  15
ATOM     14  C   LIG    1       -9.743   5.892  -0.559  0.00  0.00    +0.030 C 
ATOM     15  C   LIG    1       -9.116   5.274   0.693  0.00  0.00    +0.060 C 
ENDBRANCH   8  15
ENDBRANCH   1  11
BRANCH   4  16
ATOM     16  C   LIG    1        0.186   1.789   0.322  0.00  0.00    -0.080 A 
ATOM     17  C   LIG    1        1.257   2.513  -0.211  0.00  0.00    +0.130 A 
ATOM     18  C   LIG    1        2.496   1.922  -0.323  0.00  0.00    +0.000 A 
ATOM     19  C   LIG    1        2.683   0.608   0.093  0.00  0.00    +0.200 A 
ATOM     20  C   LIG    1        1.619  -0.115   0.623  0.00  0.00    -0.030 A 
ATOM     21  C   LIG    1        0.377   0.469   0.738  0.00  0.00    +0.100 A 
BRANCH  19  22
ATOM     22  N   LIG    1        3.940   0.013  -0.023  0.00  0.00    -0.560 N 
ATOM     23  C   LIG    1        4.276  -1.319   0.493  0.00  0.00    +0.270 C 
ATOM     24  C   LIG    1        5.820  -1.368   0.532  0.00  0.00    +0.060 C 
ATOM     25  C   LIG    1        6.196  -0.335  -0.555  0.00  0.00    +0.070 C 
ATOM     26  C   LIG    1        4.997   0.584  -0.626  0.00  0.00    +0.520 C 
ATOM     27  O   LIG    1        4.990   1.678  -1.150  0.00  0.00    -0.500 OA
ENDBRANCH  19  22
ENDBRANCH   4  16
TORSDOF 4
