REMARK  Name = ZINCkj000005fIu3.0
REMARK                            x       y       z     vdW  Elec       q    Type
REMARK                         _______ _______ _______ _____ _____    ______ ____
ROOT
ATOM      1  N   LIG    1        0.005   1.469  -0.091  0.00  0.00    -1.000 NA
ENDROOT
BRANCH   1   2
ATOM      2  C   LIG    1       -1.229   2.246  -0.228  0.00  0.00    +0.260 C 
ATOM      3  C   LIG    1       -2.080   2.083   1.035  0.00  0.00    +0.050 C 
ATOM      4  C   LIG    1       -3.402   2.831   0.852  0.00  0.00    +0.260 C 
ATOM      5  N   LIG    1       -4.125   2.283  -0.302  0.00  0.00    -0.510 N 
ATOM      6  C   LIG    1       -3.346   2.502  -1.526  0.00  0.00    +0.270 C 
ATOM      7  H   LIG    1       -4.268   1.293  -0.167  0.00  0.00    +0.430 HD
ATOM      8  H   LIG    1       -5.019   2.743  -0.387  0.00  0.00    +0.430 HD
ATOM      9  C   LIG    1       -2.022   1.740  -1.436  0.00  0.00    +0.050 C 
ENDBRANCH   1   2
BRANCH   1  10
ATOM     10  S   LIG    1        1.470   2.240  -0.060  0.00  0.00    +2.600 S 
ATOM     11  O   LIG    1        2.316   1.357   0.663  0.00  0.00    -0.920 OA
ATOM     12  O   LIG    1        1.173   3.538   0.434  0.00  0.00    -0.950 OA
BRANCH  10  13
ATOM     13  C   LIG    1        1.975   2.322  -1.801  0.00  0.00    -0.340 C 
BRANCH  13  14
ATOM     14  C   LIG    1        3.332   3.022  -1.906  0.00  0.00    +0.170 C 
ATOM     15  C   LIG    1        3.700   3.203  -3.381  0.00  0.00    +0.020 C 
ATOM     16  C   LIG    1        5.085   3.849  -3.478  0.00  0.00    +0.020 C 
ATOM     17  C   LIG    1        6.097   2.977  -2.728  0.00  0.00    +0.000 C 
ATOM     18  C   LIG    1        5.636   2.804  -1.279  0.00  0.00    +0.230 C 
ATOM     19  O   LIG    1        4.329   2.227  -1.261  0.00  0.00    -0.380 OA
ENDBRANCH  13  14
ENDBRANCH  10  13
ENDBRANCH   1  10
BRANCH   1  20
ATOM     20  C   LIG    1       -0.057   0.009   0.013  0.00  0.00    +0.290 C 
BRANCH  20  22
ATOM     21  C   LIG    1       -0.158  -1.914   1.605  0.00  0.00    +0.010 C 
ATOM     22  C   LIG    1       -0.233  -0.391   1.479  0.00  0.00    -0.010 C 
ENDBRANCH  20  22
ENDBRANCH   1  20
TORSDOF 6
