REMARK  Name = ZINCrH000004mphs.0
REMARK                            x       y       z     vdW  Elec       q    Type
REMARK                         _______ _______ _______ _____ _____    ______ ____
ROOT
ATOM      1  C   LIG    1       -1.401  -3.321  -0.006  0.00  0.00    +0.150 C 
ATOM      2  C   LIG    1       -0.990  -4.215  -1.199  0.00  0.00    +0.100 C 
ATOM      3  C   LIG    1       -1.044  -5.622  -0.644  0.00  0.00    +0.520 C 
ATOM      4  N   LIG    1       -1.065  -5.588   0.700  0.00  0.00    -0.560 N 
ATOM      5  O   LIG    1       -1.067  -6.632  -1.314  0.00  0.00    -0.490 OA
ATOM      6  C   LIG    1       -1.020  -4.209   1.200  0.00  0.00    +0.300 C 
ENDROOT
BRANCH   4   7
ATOM      7  C   LIG    1       -1.124  -6.723   1.516  0.00  0.00    +0.190 A 
ATOM      8  C   LIG    1       -1.020  -6.593   2.895  0.00  0.00    -0.030 A 
ATOM      9  C   LIG    1       -1.078  -7.714   3.700  0.00  0.00    +0.080 A 
ATOM     10  C   LIG    1       -1.240  -8.965   3.136  0.00  0.00    -0.140 A 
ATOM     11  C   LIG    1       -1.344  -9.099   1.761  0.00  0.00    +0.130 A 
ATOM     12  F   LIG    1       -1.502 -10.323   1.212  0.00  0.00    -0.130 F 
ATOM     13  C   LIG    1       -1.303 -10.186   4.018  0.00  0.00    +0.100 C 
ATOM     14  C   LIG    1       -1.291  -7.979   0.951  0.00  0.00    -0.020 A 
ENDBRANCH   4   7
BRANCH   1  18
ATOM     15  C   LIG    1       -0.035   0.004   0.011  0.00  0.00    +0.230 A 
ATOM     16  N   LIG    1        1.034  -0.750   0.009  0.00  0.00    -0.370 NA
ATOM     17  O   LIG    1        0.718  -1.921   0.004  0.00  0.00    +0.090 OA
ATOM     18  C   LIG    1       -0.613  -2.036   0.001  0.00  0.00    +0.190 A 
ATOM     19  N   LIG    1       -1.106  -0.822   0.010  0.00  0.00    -0.460 NA
BRANCH  15  23
ATOM     20  C   LIG    1       -0.127   4.256   0.031  0.00  0.00    +0.150 A 
ATOM     21  C   LIG    1        1.091   3.590   0.029  0.00  0.00    -0.010 A 
ATOM     22  C   LIG    1        1.124   2.211   0.023  0.00  0.00    +0.100 A 
ATOM     23  C   LIG    1       -0.067   1.487   0.018  0.00  0.00    -0.070 A 
ATOM     24  C   LIG    1       -1.288   2.159   0.013  0.00  0.00    +0.110 A 
ATOM     25  C   LIG    1       -1.315   3.538   0.025  0.00  0.00    -0.070 A 
BRANCH  20  27
ATOM     26  C   LIG    1       -1.444   6.235   0.039  0.00  0.00    +0.240 C 
ATOM     27  O   LIG    1       -0.157   5.614   0.038  0.00  0.00    -0.310 OA
ENDBRANCH  20  27
ENDBRANCH  15  23
ENDBRANCH   1  18
TORSDOF 4
