REMARK  Name = ZINCrD00000l4bLC.0
REMARK                            x       y       z     vdW  Elec       q    Type
REMARK                         _______ _______ _______ _____ _____    ______ ____
ROOT
ATOM      1  C   LIG    1       -0.018   1.468   0.010  0.00  0.00    +0.190 C 
ENDROOT
BRANCH   1   2
ATOM      2  C   LIG    1       -0.723   1.954   1.250  0.00  0.00    +0.440 A 
ATOM      3  N   LIG    1       -1.992   2.242   1.166  0.00  0.00    -0.540 NA
ATOM      4  C   LIG    1       -2.692   2.678   2.231  0.00  0.00    +0.530 A 
ATOM      5  C   LIG    1       -1.981   2.834   3.512  0.00  0.00    -0.210 A 
ATOM      6  C   LIG    1       -2.621   3.284   4.664  0.00  0.00    +0.150 A 
ATOM      7  C   LIG    1       -1.910   3.410   5.826  0.00  0.00    +0.010 A 
ATOM      8  C   LIG    1       -0.558   3.095   5.865  0.00  0.00    +0.030 A 
ATOM      9  C   LIG    1        0.094   2.649   4.733  0.00  0.00    +0.000 A 
ATOM     10 CL   LIG    1        0.320   3.265   7.353  0.00  0.00    -0.040 Cl
ATOM     11  C   LIG    1       -0.611   2.514   3.546  0.00  0.00    +0.190 A 
ATOM     12  O   LIG    1       -3.879   2.939   2.137  0.00  0.00    -0.460 OA
ATOM     13  N   LIG    1       -0.010   2.072   2.384  0.00  0.00    -0.620 N 
ATOM     14  H   LIG    1        0.933   1.846   2.385  0.00  0.00    +0.430 HD
ENDBRANCH   1   2
BRANCH   1  15
ATOM     15  C   LIG    1       -0.747   1.967  -1.211  0.00  0.00    +0.390 C 
ATOM     16  O   LIG    1       -1.927   2.239  -1.144  0.00  0.00    -0.330 OA
BRANCH  15  20
ATOM     17  C   LIG    1        1.329   2.421  -4.886  0.00  0.00    +0.060 A 
ATOM     18  C   LIG    1       -0.030   2.735  -4.811  0.00  0.00    +0.040 A 
ATOM     19  C   LIG    1       -0.706   2.588  -3.618  0.00  0.00    +0.160 A 
ATOM     20  C   LIG    1       -0.029   2.124  -2.481  0.00  0.00    -0.170 A 
ATOM     21  C   LIG    1        1.336   1.815  -2.558  0.00  0.00    +0.070 A 
ATOM     22  F   LIG    1       -2.020   2.893  -3.545  0.00  0.00    -0.100 F 
ATOM     23  C   LIG    1        2.006   1.957  -3.752  0.00  0.00    +0.100 A 
ATOM     24  F   LIG    1        3.321   1.654  -3.828  0.00  0.00    -0.120 F 
BRANCH  17  26
ATOM     25  C   LIG    1        2.605   2.700  -7.141  0.00  0.00    +0.120 C 
ATOM     26  C   LIG    1        2.030   2.574  -6.126  0.00  0.00    -0.190 C 
ENDBRANCH  17  26
ENDBRANCH  15  20
ENDBRANCH   1  15
BRANCH   1  27
ATOM     27  C   LIG    1        0.002  -0.004   0.002  0.00  0.00    +0.200 C 
ATOM     28  N   LIG    1        0.018  -1.140  -0.004  0.00  0.00    -0.350 NA
ENDBRANCH   1  27
TORSDOF 5
