REMARK  Name = ZINCpk00000e93oK.0
REMARK                            x       y       z     vdW  Elec       q    Type
REMARK                         _______ _______ _______ _____ _____    ______ ____
ROOT
ATOM      1  N   LIG    1        2.755   0.986  -0.165  0.00  0.00    -0.530 NA
ATOM      2  C   LIG    1        1.736  -0.046   0.067  0.00  0.00    +0.170 C 
ATOM      3  C   LIG    1        0.506   0.251  -0.797  0.00  0.00    +0.300 C 
ATOM      4  N   LIG    1        0.068   1.629  -0.528  0.00  0.00    -0.600 N 
ATOM      5  C   LIG    1        1.068   2.705  -0.606  0.00  0.00    +0.280 C 
ATOM      6  C   LIG    1       -1.217   1.899  -0.222  0.00  0.00    +0.590 C 
ATOM      7  O   LIG    1       -2.056   1.020  -0.289  0.00  0.00    -0.550 OA
ATOM      8  C   LIG    1        2.275   2.311   0.251  0.00  0.00    +0.170 C 
ENDROOT
BRANCH   6   9
ATOM      9  C   LIG    1       -1.603   3.253   0.190  0.00  0.00    -0.050 A 
ATOM     10  C   LIG    1       -0.789   4.183   0.800  0.00  0.00    +0.000 A 
ATOM     11  C   LIG    1       -1.562   5.328   1.014  0.00  0.00    -0.060 A 
ATOM     12  C   LIG    1       -2.807   5.084   0.540  0.00  0.00    +0.190 A 
ATOM     13  N   LIG    1       -2.844   3.828   0.032  0.00  0.00    -0.400 N 
BRANCH  13  14
ATOM     14  C   LIG    1       -4.011   3.188  -0.582  0.00  0.00    +0.360 C 
BRANCH  14  15
ATOM     15  C   LIG    1       -4.946   2.708   0.498  0.00  0.00    -0.170 A 
ATOM     16  C   LIG    1       -5.938   3.541   0.990  0.00  0.00    +0.070 A 
ATOM     17  C   LIG    1       -6.776   3.056   1.982  0.00  0.00    -0.040 A 
ATOM     18  C   LIG    1       -6.594   1.767   2.446  0.00  0.00    +0.270 A 
ATOM     19  N   LIG    1       -5.639   1.002   1.955  0.00  0.00    -0.490 NA
ATOM     20  C   LIG    1       -4.828   1.428   1.007  0.00  0.00    +0.300 A 
ENDBRANCH  14  15
ENDBRANCH  13  14
ENDBRANCH   6   9
BRANCH   1  21
ATOM     21  C   LIG    1        4.013   0.645   0.512  0.00  0.00    +0.150 C 
BRANCH  21  23
ATOM     22  C   LIG    1        6.489   0.979   0.484  0.00  0.00    +0.020 C 
ATOM     23  C   LIG    1        5.158   1.454  -0.102  0.00  0.00    +0.130 C 
ATOM     24  C   LIG    1        5.168   1.252  -1.619  0.00  0.00    +0.060 C 
BRANCH  23  25
ATOM     25  O   LIG    1        4.975   2.840   0.193  0.00  0.00    -0.550 OA
ATOM     26  H   LIG    1        4.958   3.042   1.139  0.00  0.00    +0.370 HD
ENDBRANCH  23  25
ENDBRANCH  21  23
ENDBRANCH   1  21
TORSDOF 6
