REMARK  Name = ZINCvU00000005KN.1
REMARK                            x       y       z     vdW  Elec       q    Type
REMARK                         _______ _______ _______ _____ _____    ______ ____
ROOT
ATOM      1  C   LIG    1        5.723   7.746  -0.487  0.00  0.00    +0.130 A 
ATOM      2  C   LIG    1        4.498   8.399  -0.509  0.00  0.00    +0.110 A 
ATOM      3  C   LIG    1        4.452   9.779  -0.504  0.00  0.00    +0.040 A 
ATOM      4  C   LIG    1        5.626  10.511  -0.477  0.00  0.00    +0.040 A 
ATOM      5  C   LIG    1        6.849   9.863  -0.455  0.00  0.00    -0.650 A 
ATOM      6 CL   LIG    1        5.565  12.246  -0.471  0.00  0.00    -0.040 Cl
ATOM      7  C   LIG    1        6.900   8.483  -0.455  0.00  0.00    +0.130 A 
ENDROOT
BRANCH   1  10
ATOM      8  O   LIG    1        3.948   6.217  -1.748  0.00  0.00    -0.520 OA
ATOM      9  C   LIG    1        4.859   5.643  -1.190  0.00  0.00    +0.530 C 
ATOM     10  N   LIG    1        5.772   6.347  -0.492  0.00  0.00    -0.670 N 
ATOM     11  H   LIG    1        6.463   5.884   0.007  0.00  0.00    +0.420 HD
BRANCH   9  12
ATOM     12  C   LIG    1        4.969   4.142  -1.276  0.00  0.00    +0.090 C 
BRANCH  12  13
ATOM     13  C   LIG    1        3.817   3.594  -2.120  0.00  0.00    +0.230 C 
BRANCH  13  14
ATOM     14  O   LIG    1        3.922   2.171  -2.202  0.00  0.00    -0.310 OA
BRANCH  14  15
ATOM     15  C   LIG    1        2.968   1.522  -2.921  0.00  0.00    +0.100 A 
ATOM     16  C   LIG    1        1.953   2.240  -3.535  0.00  0.00    -0.040 A 
ATOM     17  C   LIG    1        0.984   1.578  -4.265  0.00  0.00    +0.040 A 
ATOM     18  C   LIG    1        1.025   0.202  -4.386  0.00  0.00    +0.010 A 
ATOM     19  C   LIG    1        2.036  -0.518  -3.775  0.00  0.00    +0.020 A 
ATOM     20  C   LIG    1        3.008   0.139  -3.043  0.00  0.00    +0.070 A 
ATOM     21  F   LIG    1        3.996  -0.564  -2.446  0.00  0.00    -0.130 F 
ENDBRANCH  14  15
ENDBRANCH  13  14
ENDBRANCH  12  13
ENDBRANCH   9  12
ENDBRANCH   1  10
BRANCH   5  22
ATOM     22  S   LIG    1        8.341  10.799  -0.420  0.00  0.00    +2.690 S 
ATOM     23  O   LIG    1        9.405   9.858  -0.462  0.00  0.00    -0.940 OA
ATOM     24  O   LIG    1        8.190  11.756   0.619  0.00  0.00    -0.930 OA
BRANCH  22  25
ATOM     25  N   LIG    1        8.416  11.654  -1.836  0.00  0.00    -1.050 N 
ATOM     26  H   LIG    1        8.400  12.623  -1.819  0.00  0.00    +0.430 HD
BRANCH  25  27
ATOM     27  C   LIG    1        8.504  10.979  -3.056  0.00  0.00    +0.150 A 
ATOM     28  C   LIG    1        9.395   9.924  -3.205  0.00  0.00    +0.010 A 
ATOM     29  C   LIG    1        9.476   9.255  -4.411  0.00  0.00    +0.060 A 
ATOM     30  C   LIG    1        8.678   9.640  -5.472  0.00  0.00    +0.020 A 
ATOM     31  C   LIG    1        7.793  10.695  -5.329  0.00  0.00    -0.020 A 
ATOM     32 CL   LIG    1        6.793  11.175  -6.665  0.00  0.00    -0.060 Cl
ATOM     33  C   LIG    1        7.704  11.365  -4.124  0.00  0.00    +0.020 A 
ENDBRANCH  25  27
ENDBRANCH  22  25
ENDBRANCH   5  22
TORSDOF 8
