REMARK  Name = ZINCrH000004og2o.0
REMARK                            x       y       z     vdW  Elec       q    Type
REMARK                         _______ _______ _______ _____ _____    ______ ____
ROOT
ATOM      1  N   LIG    1       -0.288   1.272  -2.443  0.00  0.00    -0.720 N 
ATOM      2  H   LIG    1        0.507   0.726  -2.543  0.00  0.00    +0.410 HD
ATOM      3  C   LIG    1       -0.742   1.585  -1.213  0.00  0.00    +0.540 C 
ATOM      4  O   LIG    1       -1.736   2.268  -1.088  0.00  0.00    -0.520 OA
ENDROOT
BRANCH   1   6
ATOM      5  C   LIG    1       -2.141   0.800  -3.968  0.00  0.00    +0.060 C 
ATOM      6  C   LIG    1       -0.997   1.758  -3.630  0.00  0.00    +0.350 C 
BRANCH   6   7
ATOM      7  C   LIG    1       -0.041   1.828  -4.792  0.00  0.00    +0.020 A 
ATOM      8  C   LIG    1       -0.011   2.810  -5.703  0.00  0.00    -0.020 A 
ATOM      9  C   LIG    1        1.068   2.469  -6.638  0.00  0.00    -0.130 A 
ATOM     10  C   LIG    1        1.595   3.071  -7.780  0.00  0.00    +0.060 A 
ATOM     11  C   LIG    1        2.640   2.469  -8.445  0.00  0.00    +0.000 A 
ATOM     12  C   LIG    1        3.168   1.273  -7.982  0.00  0.00    +0.050 A 
ATOM     13  C   LIG    1        2.657   0.668  -6.854  0.00  0.00    +0.020 A 
ATOM     14  C   LIG    1        1.602   1.257  -6.169  0.00  0.00    +0.060 A 
ATOM     15  O   LIG    1        0.911   0.917  -5.062  0.00  0.00    -0.190 OA
ENDBRANCH   6   7
ENDBRANCH   1   6
BRANCH   3  16
ATOM     16  C   LIG    1       -0.013   1.086   0.008  0.00  0.00    +0.100 C 
BRANCH  16  17
ATOM     17  S   LIG    1       -0.860   1.669   1.497  0.00  0.00    +0.100 S 
BRANCH  17  18
ATOM     18  C   LIG    1        0.174   0.961   2.735  0.00  0.00    +0.360 A 
ATOM     19  N   LIG    1        1.209   0.243   2.370  0.00  0.00    -0.520 NA
ATOM     20  C   LIG    1        2.034  -0.318   3.277  0.00  0.00    +0.090 A 
ATOM     21  C   LIG    1        1.785  -0.145   4.637  0.00  0.00    -0.240 A 
ATOM     22  C   LIG    1        0.651   0.635   5.015  0.00  0.00    +0.560 A 
ATOM     23  O   LIG    1        0.389   0.816   6.192  0.00  0.00    -0.520 OA
ATOM     24  C   LIG    1        2.768  -0.821   5.462  0.00  0.00    +0.090 A 
ATOM     25  C   LIG    1        3.704  -1.466   4.793  0.00  0.00    -0.050 A 
ATOM     26  S   LIG    1        3.473  -1.307   3.062  0.00  0.00    +0.200 S 
ATOM     27  N   LIG    1       -0.124   1.167   4.051  0.00  0.00    -0.520 N 
ATOM     28  C   LIG    1       -1.293   1.971   4.416  0.00  0.00    +0.330 C 
ENDBRANCH  17  18
ENDBRANCH  16  17
ENDBRANCH   3  16
TORSDOF 5
