REMARK  Name = ZINCnE000001Qa2j.0
REMARK                            x       y       z     vdW  Elec       q    Type
REMARK                         _______ _______ _______ _____ _____    ______ ____
ROOT
ATOM      1  S   LIG    1        2.554   4.360   0.048  0.00  0.00    +2.610 S 
ATOM      2  O   LIG    1        3.025   3.906  -1.213  0.00  0.00    -1.010 OA
ATOM      3  O   LIG    1        3.244   4.122   1.267  0.00  0.00    -1.030 OA
ENDROOT
BRANCH   1   4
ATOM      4  C   LIG    1        2.374   6.108  -0.089  0.00  0.00    -0.630 A 
ATOM      5  C   LIG    1        2.894   6.935   0.887  0.00  0.00    +0.140 A 
ATOM      6  C   LIG    1        2.756   8.308   0.778  0.00  0.00    +0.030 A 
ATOM      7  C   LIG    1        2.089   8.854  -0.305  0.00  0.00    +0.070 A 
ATOM      8  C   LIG    1        1.563   8.029  -1.281  0.00  0.00    -0.070 A 
ATOM      9  F   LIG    1        3.269   9.116   1.732  0.00  0.00    -0.140 F 
ATOM     10  C   LIG    1        1.705   6.654  -1.175  0.00  0.00    +0.230 A 
BRANCH  10  11
ATOM     11  O   LIG    1        1.188   5.841  -2.134  0.00  0.00    -0.270 OA
BRANCH  11  12
ATOM     12  C   LIG    1        0.409   6.461  -3.160  0.00  0.00    +0.140 C 
ATOM     13  C   LIG    1       -0.564   5.439  -3.750  0.00  0.00    +0.060 C 
ATOM     14  C   LIG    1        1.337   6.977  -4.262  0.00  0.00    +0.020 C 
ENDBRANCH  11  12
ENDBRANCH  10  11
ENDBRANCH   1   4
BRANCH   1  15
ATOM     15  N   LIG    1        1.037   3.724   0.237  0.00  0.00    -1.070 NA
BRANCH  15  21
ATOM     16  C   LIG    1       -1.944  -0.149   0.838  0.00  0.00    +0.070 C 
ATOM     17  C   LIG    1       -0.566   0.435   0.665  0.00  0.00    -0.080 A 
ATOM     18  C   LIG    1        0.539  -0.396   0.641  0.00  0.00    -0.120 A 
ATOM     19  C   LIG    1        1.806   0.136   0.483  0.00  0.00    +0.030 A 
ATOM     20  C   LIG    1        1.973   1.502   0.348  0.00  0.00    -0.160 A 
ATOM     21  C   LIG    1        0.869   2.341   0.372  0.00  0.00    +0.270 A 
ATOM     22  C   LIG    1       -0.406   1.804   0.531  0.00  0.00    +0.030 A 
BRANCH  22  23
ATOM     23  O   LIG    1       -1.493   2.623   0.550  0.00  0.00    -0.480 OA
ATOM     24  H   LIG    1       -1.734   2.936   1.432  0.00  0.00    +0.360 HD
ENDBRANCH  22  23
ENDBRANCH  15  21
ENDBRANCH   1  15
TORSDOF 6
