REMARK  Name = ZINCrg000000nGe2.0
REMARK                            x       y       z     vdW  Elec       q    Type
REMARK                         _______ _______ _______ _____ _____    ______ ____
ROOT
ATOM      1  N   LIG    1        6.100  -0.597  -0.224  0.00  0.00    -0.990 NA
ENDROOT
BRANCH   1   2
ATOM      2  C   LIG    1        4.819   0.087  -0.421  0.00  0.00    +0.260 C 
ATOM      3  C   LIG    1        4.875   1.480   0.218  0.00  0.00    +0.020 C 
ATOM      4  C   LIG    1        3.628   2.255  -0.206  0.00  0.00    +0.080 C 
ATOM      5  C   LIG    1        2.386   1.444   0.056  0.00  0.00    -0.080 A 
ATOM      6  C   LIG    1        1.171   2.115   0.089  0.00  0.00    +0.000 A 
ATOM      7  C   LIG    1       -0.003   1.427   0.318  0.00  0.00    +0.000 A 
ATOM      8  C   LIG    1        0.029   0.060   0.516  0.00  0.00    +0.000 A 
ATOM      9  C   LIG    1        1.236  -0.608   0.485  0.00  0.00    +0.000 A 
ATOM     10  C   LIG    1        2.419   0.082   0.258  0.00  0.00    -0.070 A 
ATOM     11  C   LIG    1        3.702  -0.708   0.252  0.00  0.00    +0.080 C 
ENDBRANCH   1   2
BRANCH   1  12
ATOM     12  S   LIG    1        7.060  -0.947  -1.527  0.00  0.00    +2.720 S 
ATOM     13  O   LIG    1        6.201  -0.992  -2.658  0.00  0.00    -0.960 OA
ATOM     14  O   LIG    1        7.887  -2.034  -1.135  0.00  0.00    -0.920 OA
BRANCH  12  15
ATOM     15  C   LIG    1        8.132   0.430  -1.770  0.00  0.00    -0.860 A 
ATOM     16  C   LIG    1        7.919   1.291  -2.788  0.00  0.00    +0.510 A 
ATOM     17  N   LIG    1        8.758   2.358  -2.960  0.00  0.00    -0.530 N 
ATOM     18  C   LIG    1        9.799   2.553  -2.130  0.00  0.00    +0.690 A 
ATOM     19  N   LIG    1       10.037   1.707  -1.110  0.00  0.00    -0.550 N 
ATOM     20  C   LIG    1       11.178   1.940  -0.221  0.00  0.00    +0.350 C 
ATOM     21  O   LIG    1       10.534   3.505  -2.304  0.00  0.00    -0.520 OA
ATOM     22  C   LIG    1        8.524   3.295  -4.062  0.00  0.00    +0.350 C 
ATOM     23  C   LIG    1        9.231   0.646  -0.904  0.00  0.00    +0.590 A 
ATOM     24  O   LIG    1        9.446  -0.119   0.018  0.00  0.00    -0.490 OA
ENDBRANCH  12  15
ENDBRANCH   1  12
BRANCH   1  25
ATOM     25  C   LIG    1        6.531  -0.971   1.125  0.00  0.00    +0.300 C 
BRANCH  25  27
ATOM     26  C   LIG    1        6.301  -2.682   2.931  0.00  0.00    +0.020 C 
ATOM     27  C   LIG    1        5.977  -2.354   1.472  0.00  0.00    -0.020 C 
ENDBRANCH  25  27
ENDBRANCH   1  25
TORSDOF 5
