REMARK  Name = ZINCrD00000F5LFl.0
REMARK                            x       y       z     vdW  Elec       q    Type
REMARK                         _______ _______ _______ _____ _____    ______ ____
ROOT
ATOM      1  C   LIG    1       -0.645   3.367   1.316  0.00  0.00    +0.200 A 
ATOM      2  C   LIG    1       -1.098   4.138   2.366  0.00  0.00    +0.100 A 
ATOM      3  N   LIG    1       -0.852   5.428   2.071  0.00  0.00    -0.400 NA
ATOM      4  C   LIG    1       -0.268   5.500   0.887  0.00  0.00    +0.210 A 
ATOM      5  C   LIG    1        0.192   6.601   0.125  0.00  0.00    +0.200 A 
ATOM      6  C   LIG    1        0.781   6.376  -1.084  0.00  0.00    -0.080 A 
ATOM      7  C   LIG    1        0.914   5.061  -1.562  0.00  0.00    +0.060 A 
ATOM      8  C   LIG    1        0.469   4.021  -0.829  0.00  0.00    +0.160 A 
ATOM      9  N   LIG    1       -0.120   4.226   0.392  0.00  0.00    -0.360 N 
ENDROOT
BRANCH   2  10
ATOM     10  C   LIG    1       -1.742   3.635   3.602  0.00  0.00    +0.310 A 
ATOM     11  N   LIG    1       -1.984   2.372   3.882  0.00  0.00    -0.300 NA
ATOM     12  N   LIG    1       -2.597   2.349   5.145  0.00  0.00    -0.380 N 
ATOM     13  C   LIG    1       -2.694   3.628   5.548  0.00  0.00    +0.310 A 
ATOM     14  C   LIG    1       -3.049   1.163   5.878  0.00  0.00    +0.360 C 
ATOM     15  N   LIG    1       -2.180   4.391   4.619  0.00  0.00    -0.510 NA
BRANCH  13  16
ATOM     16  C   LIG    1       -3.292   4.101   6.848  0.00  0.00    +0.030 C 
ATOM     17  C   LIG    1       -3.491   5.607   7.027  0.00  0.00    +0.070 C 
ATOM     18  C   LIG    1       -2.384   4.884   7.798  0.00  0.00    +0.060 C 
ENDBRANCH  13  16
ENDBRANCH   2  10
BRANCH   1  19
ATOM     19  N   LIG    1       -0.706   1.976   1.219  0.00  0.00    -0.560 N 
ATOM     20  H   LIG    1       -0.332   1.539   2.048  0.00  0.00    +0.380 HD
BRANCH  19  21
ATOM     21  C   LIG    1       -0.011   1.502   0.015  0.00  0.00    +0.220 C 
BRANCH  21  23
ATOM     22  C   LIG    1       -0.891  -0.684  -0.625  0.00  0.00    +0.050 C 
ATOM     23  C   LIG    1        0.027  -0.004   0.017  0.00  0.00    -0.140 C 
ATOM     24  C   LIG    1        1.121  -0.729   0.758  0.00  0.00    +0.080 C 
ENDBRANCH  21  23
ENDBRANCH  19  21
ENDBRANCH   1  19
BRANCH   5  25
ATOM     25  O   LIG    1        0.060   7.868   0.600  0.00  0.00    -0.280 OA
BRANCH  25  26
ATOM     26  C   LIG    1        0.549   8.925  -0.228  0.00  0.00    +0.190 C 
BRANCH  26  27
ATOM     27  C   LIG    1        0.314  10.268   0.467  0.00  0.00    +0.260 C 
ATOM     28  F   LIG    1        1.081  10.328   1.636  0.00  0.00    -0.210 F 
ENDBRANCH  26  27
ENDBRANCH  25  26
ENDBRANCH   5  25
TORSDOF 8
