REMARK  Name = ZINCkj000005hfr6.0
REMARK                            x       y       z     vdW  Elec       q    Type
REMARK                         _______ _______ _______ _____ _____    ______ ____
ROOT
ATOM      1  C   LIG    1        2.793   0.315  -1.365  0.00  0.00    +0.290 C 
ATOM      2  N   LIG    1        2.066   1.583  -1.261  0.00  0.00    -0.580 N 
ATOM      3  C   LIG    1        1.994   2.406  -2.325  0.00  0.00    +0.510 C 
ATOM      4  O   LIG    1        1.392   3.456  -2.239  0.00  0.00    -0.510 OA
ENDROOT
BRANCH   3   5
ATOM      5  C   LIG    1        2.660   2.024  -3.621  0.00  0.00    +0.090 C 
ATOM      6  C   LIG    1        1.863   0.903  -4.338  0.00  0.00    +0.100 C 
ATOM      7  C   LIG    1        2.254   1.143  -5.820  0.00  0.00    +0.280 C 
ATOM      8  N   LIG    1        2.342   2.612  -5.957  0.00  0.00    -0.510 N 
ATOM      9  H   LIG    1        3.093   2.850  -6.587  0.00  0.00    +0.440 HD
ATOM     10  H   LIG    1        1.471   2.973  -6.317  0.00  0.00    +0.440 HD
ATOM     11  F   LIG    1        3.982   1.624  -3.397  0.00  0.00    -0.160 F 
ATOM     12  C   LIG    1        2.607   3.192  -4.628  0.00  0.00    +0.310 C 
ENDBRANCH   3   5
BRANCH   2  13
ATOM     13  C   LIG    1        1.418   1.954  -0.001  0.00  0.00    +0.330 C 
BRANCH  13  14
ATOM     14  C   LIG    1       -0.017   1.425   0.010  0.00  0.00    +0.190 C 
BRANCH  14  15
ATOM     15  O   LIG    1        0.002  -0.004   0.002  0.00  0.00    -0.310 OA
BRANCH  15  16
ATOM     16  C   LIG    1       -1.201  -0.638   0.010  0.00  0.00    +0.090 A 
ATOM     17  C   LIG    1       -2.374   0.100   0.031  0.00  0.00    -0.040 A 
ATOM     18  C   LIG    1       -3.596  -0.546   0.034  0.00  0.00    +0.050 A 
ATOM     19  C   LIG    1       -3.650  -1.927   0.027  0.00  0.00    +0.020 A 
ATOM     20  C   LIG    1       -2.481  -2.667   0.012  0.00  0.00    +0.040 A 
ATOM     21  C   LIG    1       -1.256  -2.026   0.003  0.00  0.00    +0.070 A 
ATOM     22  F   LIG    1       -0.115  -2.749  -0.012  0.00  0.00    -0.130 F 
ENDBRANCH  15  16
ENDBRANCH  14  15
ENDBRANCH  13  14
ENDBRANCH   2  13
TORSDOF 5
