REMARK  Name = ZINCvU00000005D2.0
REMARK                            x       y       z     vdW  Elec       q    Type
REMARK                         _______ _______ _______ _____ _____    ______ ____
ROOT
ATOM      1  C   LIG    1        5.997  -1.002   0.741  0.00  0.00    +0.300 A 
ATOM      2  N   LIG    1        4.805  -0.509   0.644  0.00  0.00    -0.450 NA
ATOM      3  C   LIG    1        4.669   0.798   0.884  0.00  0.00    +0.100 A 
ATOM      4  C   LIG    1        5.815   1.441   1.213  0.00  0.00    -0.040 A 
ATOM      5  S   LIG    1        7.129   0.268   1.196  0.00  0.00    +0.110 S 
ENDROOT
BRANCH   1   8
ATOM      6  C   LIG    1        5.779  -4.624  -0.225  0.00  0.00    +0.130 C 
ATOM      7  C   LIG    1        5.395  -3.204   0.103  0.00  0.00    +0.510 C 
ATOM      8  N   LIG    1        6.333  -2.333   0.525  0.00  0.00    -0.480 N 
ATOM      9  O   LIG    1        4.243  -2.845  -0.013  0.00  0.00    -0.460 OA
BRANCH   8  10
ATOM     10  C   LIG    1        7.646  -2.769   0.745  0.00  0.00    +0.110 A 
ATOM     11  C   LIG    1        8.668  -2.353  -0.098  0.00  0.00    +0.060 A 
ATOM     12  C   LIG    1        9.961  -2.785   0.121  0.00  0.00    +0.050 A 
ATOM     13  C   LIG    1       10.239  -3.629   1.180  0.00  0.00    +0.100 A 
ATOM     14  C   LIG    1        9.224  -4.045   2.022  0.00  0.00    -0.170 A 
ATOM     15  C   LIG    1        7.929  -3.614   1.810  0.00  0.00    +0.080 A 
BRANCH  14  16
ATOM     16  C   LIG    1        9.531  -4.966   3.175  0.00  0.00    +0.510 C 
ATOM     17  F   LIG    1        8.803  -6.152   3.031  0.00  0.00    -0.170 F 
ATOM     18  F   LIG    1        9.177  -4.343   4.376  0.00  0.00    -0.170 F 
ATOM     19  F   LIG    1       10.899  -5.258   3.187  0.00  0.00    -0.170 F 
ENDBRANCH  14  16
ENDBRANCH   8  10
ENDBRANCH   1   8
BRANCH   3  20
ATOM     20  C   LIG    1        3.375   1.483   0.804  0.00  0.00    +0.170 C 
ATOM     21  C   LIG    1        2.261   0.790   0.471  0.00  0.00    -0.040 C 
BRANCH  21  22
ATOM     22  C   LIG    1        1.012   1.451   0.394  0.00  0.00    +0.550 C 
ATOM     23  N   LIG    1       -0.097   0.761   0.062  0.00  0.00    -0.670 N 
ATOM     24  H   LIG    1       -0.029  -0.173  -0.191  0.00  0.00    +0.420 HD
ATOM     25  O   LIG    1        0.939   2.644   0.628  0.00  0.00    -0.520 OA
BRANCH  23  26
ATOM     26  C   LIG    1       -1.344   1.392   0.078  0.00  0.00    +0.180 A 
ATOM     27  C   LIG    1       -2.478   0.683   0.452  0.00  0.00    -0.030 A 
ATOM     28  C   LIG    1       -3.709   1.311   0.473  0.00  0.00    +0.070 A 
ATOM     29  C   LIG    1       -3.816   2.640   0.109  0.00  0.00    -0.030 A 
ATOM     30  C   LIG    1       -2.688   3.349  -0.271  0.00  0.00    +0.120 A 
ATOM     31  F   LIG    1       -2.795   4.649  -0.626  0.00  0.00    -0.140 F 
ATOM     32  C   LIG    1       -1.452   2.728  -0.287  0.00  0.00    -0.010 A 
ENDBRANCH  23  26
ENDBRANCH  21  22
ENDBRANCH   3  20
TORSDOF 6
