REMARK  Name = ZINCpk00000e9GxX.0
REMARK                            x       y       z     vdW  Elec       q    Type
REMARK                         _______ _______ _______ _____ _____    ______ ____
ROOT
ATOM      1  N   LIG    1       -5.219   6.806   0.075  0.00  0.00    -0.520 NA
ATOM      2  C   LIG    1       -4.211   6.769  -0.992  0.00  0.00    +0.180 C 
ATOM      3  C   LIG    1       -3.618   5.362  -1.086  0.00  0.00    +0.060 C 
ATOM      4  C   LIG    1       -2.981   4.990   0.256  0.00  0.00    +0.080 C 
ATOM      5  C   LIG    1       -4.041   5.084   1.357  0.00  0.00    +0.050 C 
ATOM      6  C   LIG    1       -4.622   6.499   1.381  0.00  0.00    +0.190 C 
ENDROOT
BRANCH   4   7
ATOM      7  C   LIG    1       -2.448   3.582   0.188  0.00  0.00    +0.170 A 
ATOM      8  N   LIG    1       -3.145   2.502  -0.069  0.00  0.00    -0.230 NA
ATOM      9  N   LIG    1       -2.382   1.465  -0.051  0.00  0.00    -0.250 NA
ATOM     10  C   LIG    1       -1.143   1.840   0.210  0.00  0.00    +0.120 A 
ATOM     11  C   LIG    1        0.083   1.161   0.349  0.00  0.00    +0.410 A 
ATOM     12  N   LIG    1        1.174   1.840   0.611  0.00  0.00    -0.450 NA
ATOM     13  C   LIG    1        1.150   3.167   0.755  0.00  0.00    +0.240 A 
ATOM     14  C   LIG    1        0.000   3.865   0.638  0.00  0.00    +0.190 A 
ATOM     15  N   LIG    1       -1.165   3.208   0.365  0.00  0.00    -0.380 N 
ENDBRANCH   4   7
BRANCH   1  16
ATOM     16  C   LIG    1       -5.908   8.103   0.103  0.00  0.00    +0.220 C 
BRANCH  16  19
ATOM     17  C   LIG    1       -7.224  10.549  -0.462  0.00  0.00    +0.320 C 
ATOM     18  N   LIG    1       -7.341   9.437  -1.409  0.00  0.00    -0.530 N 
ATOM     19  C   LIG    1       -6.722   8.267  -1.155  0.00  0.00    +0.500 C 
ATOM     20  O   LIG    1       -6.819   7.347  -1.939  0.00  0.00    -0.440 OA
BRANCH  18  21
ATOM     21  C   LIG    1       -8.091   9.588  -2.569  0.00  0.00    +0.270 A 
ATOM     22  N   LIG    1       -8.255   8.673  -3.473  0.00  0.00    -0.480 NA
ATOM     23  C   LIG    1       -9.005   8.987  -4.513  0.00  0.00    +0.250 A 
ATOM     24  C   LIG    1       -9.490  10.230  -4.492  0.00  0.00    -0.100 A 
ATOM     25  S   LIG    1       -8.927  11.011  -3.017  0.00  0.00    +0.120 S 
ENDBRANCH  18  21
ENDBRANCH  16  19
ENDBRANCH   1  16
TORSDOF 4
