REMARK  Name = ZINCvU00000005W2.0
REMARK                            x       y       z     vdW  Elec       q    Type
REMARK                         _______ _______ _______ _____ _____    ______ ____
ROOT
ATOM      1  C   LIG    1       -0.277   3.976  -1.125  0.00  0.00    +0.100 C 
ATOM      2  C   LIG    1        0.369   4.242   0.236  0.00  0.00    +0.040 C 
ENDROOT
BRANCH   2   3
ATOM      3  C   LIG    1        1.867   4.150   0.107  0.00  0.00    +0.540 C 
ATOM      4  N   LIG    1        2.473   2.947   0.135  0.00  0.00    -0.500 N 
ATOM      5  O   LIG    1        2.528   5.159  -0.021  0.00  0.00    -0.490 OA
BRANCH   4   6
ATOM      6  C   LIG    1        1.669   1.722   0.173  0.00  0.00    +0.240 C 
ATOM      7  C   LIG    1        2.001   0.933   1.441  0.00  0.00    +0.020 C 
ATOM      8  C   LIG    1        1.162  -0.345   1.480  0.00  0.00    +0.020 C 
ATOM      9  C   LIG    1        1.476  -1.200   0.251  0.00  0.00    +0.010 C 
ATOM     10  C   LIG    1        1.144  -0.411  -1.017  0.00  0.00    +0.020 C 
ATOM     11  C   LIG    1        1.984   0.868  -1.057  0.00  0.00    +0.020 C 
ENDBRANCH   4   6
BRANCH   4  12
ATOM     12  C   LIG    1        3.861   2.867   0.127  0.00  0.00    +0.240 A 
ATOM     13  N   LIG    1        4.542   1.771   0.252  0.00  0.00    -0.500 NA
ATOM     14  C   LIG    1        5.857   1.879   0.223  0.00  0.00    +0.240 A 
ATOM     15  C   LIG    1        6.309   3.125   0.066  0.00  0.00    -0.130 A 
ATOM     16  S   LIG    1        4.918   4.199  -0.048  0.00  0.00    +0.230 S 
ENDBRANCH   4  12
ENDBRANCH   2   3
BRANCH   2  17
ATOM     17  S   LIG    1       -0.088   5.902   0.807  0.00  0.00    +0.100 S 
BRANCH  17  18
ATOM     18  C   LIG    1       -1.831   5.777   1.038  0.00  0.00    +0.130 A 
ATOM     19  N   LIG    1       -2.569   4.711   0.824  0.00  0.00    -0.240 NA
ATOM     20  N   LIG    1       -3.802   4.961   1.095  0.00  0.00    -0.240 NA
ATOM     21  C   LIG    1       -3.925   6.214   1.492  0.00  0.00    +0.210 A 
ATOM     22  C   LIG    1       -5.022   7.001   1.899  0.00  0.00    +0.010 A 
ATOM     23  C   LIG    1       -4.814   8.296   2.258  0.00  0.00    +0.120 A 
ATOM     24  C   LIG    1       -3.514   8.833   2.220  0.00  0.00    -0.190 A 
ATOM     25  C   LIG    1       -2.472   8.072   1.830  0.00  0.00    +0.340 A 
ATOM     26 CL   LIG    1       -6.620   6.324   1.940  0.00  0.00    +0.010 Cl
ATOM     27  N   LIG    1       -2.663   6.768   1.466  0.00  0.00    -0.380 N 
BRANCH  24  28
ATOM     28  C   LIG    1       -3.285  10.268   2.618  0.00  0.00    +0.530 C 
ATOM     29  F   LIG    1       -1.965  10.427   3.052  0.00  0.00    -0.170 F 
ATOM     30  F   LIG    1       -4.161  10.610   3.655  0.00  0.00    -0.160 F 
ATOM     31  F   LIG    1       -3.518  11.100   1.518  0.00  0.00    -0.160 F 
ENDBRANCH  24  28
ENDBRANCH  17  18
ENDBRANCH   2  17
TORSDOF 6
