REMARK  Name = ZINCrH000004rw6b.0
REMARK                            x       y       z     vdW  Elec       q    Type
REMARK                         _______ _______ _______ _____ _____    ______ ____
ROOT
ATOM      1  C   LIG    1       -2.735  -0.225   5.633  0.00  0.00    +0.290 C 
ENDROOT
BRANCH   1   2
ATOM      2  C   LIG    1       -3.162   0.161   4.240  0.00  0.00    +0.530 C 
ATOM      3  N   LIG    1       -2.661   1.272   3.666  0.00  0.00    -0.560 N 
ATOM      4  C   LIG    1       -3.065   1.666   2.307  0.00  0.00    +0.300 C 
ATOM      5  C   LIG    1       -2.158   1.057   1.272  0.00  0.00    +0.030 C 
ATOM      6  C   LIG    1       -0.729   1.579   1.267  0.00  0.00    +0.030 C 
ATOM      7  S   LIG    1        0.157   0.983   2.736  0.00  0.00    -0.140 S 
ATOM      8  C   LIG    1       -0.404   2.114   3.986  0.00  0.00    -0.100 A 
ATOM      9  C   LIG    1        0.478   2.996   4.581  0.00  0.00    +0.080 A 
ATOM     10  C   LIG    1        0.019   3.847   5.573  0.00  0.00    +0.030 A 
ATOM     11  C   LIG    1       -1.307   3.801   5.962  0.00  0.00    +0.040 A 
ATOM     12  C   LIG    1       -2.190   2.924   5.359  0.00  0.00    +0.010 A 
ATOM     13  C   LIG    1       -0.013   1.086   0.008  0.00  0.00    +0.070 C 
ATOM     14  C   LIG    1       -1.743   2.082   4.348  0.00  0.00    +0.150 A 
ATOM     15  O   LIG    1       -3.956  -0.529   3.636  0.00  0.00    -0.520 OA
ENDBRANCH   1   2
BRANCH   1  16
ATOM     16  N   LIG    1       -3.414  -1.461   6.027  0.00  0.00    -0.730 N 
ATOM     17  H   LIG    1       -4.030  -1.893   5.414  0.00  0.00    +0.410 HD
BRANCH  16  24
ATOM     18  C   LIG    1       -4.786  -3.857   6.716  0.00  0.00    +0.100 C 
ATOM     19  C   LIG    1       -3.825  -3.188   7.664  0.00  0.00    -0.100 A 
ATOM     20  C   LIG    1       -3.584  -3.738   8.907  0.00  0.00    +0.040 A 
ATOM     21  C   LIG    1       -2.707  -3.121   9.780  0.00  0.00    +0.060 A 
ATOM     22  C   LIG    1       -2.063  -1.955   9.409  0.00  0.00    -0.620 A 
ATOM     23  C   LIG    1       -2.296  -1.401   8.165  0.00  0.00    +0.040 A 
ATOM     24  C   LIG    1       -3.177  -2.018   7.286  0.00  0.00    +0.200 A 
BRANCH  22  25
ATOM     25  S   LIG    1       -0.946  -1.173  10.525  0.00  0.00    +2.500 S 
ATOM     26  O   LIG    1       -0.056  -0.453   9.683  0.00  0.00    -0.940 OA
ATOM     27  O   LIG    1       -0.479  -2.230  11.352  0.00  0.00    -0.940 OA
ATOM     28  C   LIG    1       -1.984  -0.030  11.478  0.00  0.00    -0.260 C 
ENDBRANCH  22  25
ENDBRANCH  16  24
ENDBRANCH   1  16
TORSDOF 4
