REMARK  Name = ZINCvU0000000Al9.0
REMARK                            x       y       z     vdW  Elec       q    Type
REMARK                         _______ _______ _______ _____ _____    ______ ____
ROOT
ATOM      1  C   LIG    1       -0.979   3.103  -1.112  0.00  0.00    +0.050 C 
ATOM      2  C   LIG    1       -0.934   1.573  -1.156  0.00  0.00    +0.050 C 
ATOM      3  C   LIG    1       -0.192   1.053   0.079  0.00  0.00    +0.290 C 
ATOM      4  N   LIG    1       -0.827   1.604   1.284  0.00  0.00    -0.990 NA
ATOM      5  C   LIG    1       -1.005   3.059   1.385  0.00  0.00    +0.300 C 
ATOM      6  C   LIG    1       -1.739   3.557   0.136  0.00  0.00    +0.050 C 
ENDROOT
BRANCH   4   7
ATOM      7  S   LIG    1       -1.336   0.604   2.502  0.00  0.00    +2.690 S 
ATOM      8  O   LIG    1       -1.547  -0.672   1.912  0.00  0.00    -0.930 OA
ATOM      9  O   LIG    1       -2.348   1.311   3.205  0.00  0.00    -0.940 OA
BRANCH   7  10
ATOM     10  C   LIG    1        0.011   0.417   3.621  0.00  0.00    -0.670 A 
ATOM     11  C   LIG    1       -0.088   0.907   4.910  0.00  0.00    +0.150 A 
ATOM     12  C   LIG    1        0.967   0.757   5.791  0.00  0.00    +0.030 A 
ATOM     13  C   LIG    1        2.126   0.127   5.380  0.00  0.00    +0.110 A 
ATOM     14  C   LIG    1        2.230  -0.359   4.089  0.00  0.00    -0.050 A 
ATOM     15 CL   LIG    1        3.686  -1.151   3.573  0.00  0.00    -0.030 Cl
ATOM     16  C   LIG    1        1.171  -0.214   3.209  0.00  0.00    +0.050 A 
ATOM     17 CL   LIG    1        1.300  -0.823   1.588  0.00  0.00    -0.020 Cl
ENDBRANCH   7  10
ENDBRANCH   4   7
BRANCH   1  19
ATOM     18  O   LIG    1       -2.099   2.845  -3.169  0.00  0.00    -0.480 OA
ATOM     19  C   LIG    1       -1.679   3.620  -2.342  0.00  0.00    +0.460 C 
BRANCH  19  20
ATOM     20  O   LIG    1       -1.835   4.941  -2.520  0.00  0.00    -0.290 OA
BRANCH  20  21
ATOM     21  C   LIG    1       -2.379   5.345  -3.697  0.00  0.00    +0.100 A 
ATOM     22  C   LIG    1       -1.572   5.692  -4.744  0.00  0.00    +0.040 A 
ATOM     23  C   LIG    1       -2.113   6.108  -5.958  0.00  0.00    +0.050 A 
ATOM     24  C   LIG    1       -3.462   6.182  -6.137  0.00  0.00    -0.020 A 
ATOM     25  C   LIG    1       -4.326   5.834  -5.084  0.00  0.00    -0.040 A 
ATOM     26  C   LIG    1       -5.722   5.899  -5.234  0.00  0.00    +0.040 A 
ATOM     27  C   LIG    1       -6.528   5.554  -4.192  0.00  0.00    +0.030 A 
ATOM     28  C   LIG    1       -5.989   5.137  -2.977  0.00  0.00    +0.030 A 
ATOM     29  C   LIG    1       -4.642   5.062  -2.796  0.00  0.00    +0.030 A 
ATOM     30 CL   LIG    1       -4.111   6.704  -7.660  0.00  0.00    -0.050 Cl
ATOM     31  C   LIG    1       -3.780   5.404  -3.849  0.00  0.00    -0.040 A 
ENDBRANCH  20  21
ENDBRANCH  19  20
ENDBRANCH   1  19
TORSDOF 5
