REMARK  Name = ZINCrH000004u7WY.0
REMARK                            x       y       z     vdW  Elec       q    Type
REMARK                         _______ _______ _______ _____ _____    ______ ____
ROOT
ATOM      1  O   LIG    1       -4.742   6.826  -0.359  0.00  0.00    -0.530 OA
ATOM      2  C   LIG    1       -4.775   6.392  -1.494  0.00  0.00    +0.560 C 
ATOM      3  N   LIG    1       -4.024   5.323  -1.828  0.00  0.00    -0.710 N 
ATOM      4  H   LIG    1       -4.050   4.977  -2.734  0.00  0.00    +0.410 HD
ENDROOT
BRANCH   2   5
ATOM      5  C   LIG    1       -5.638   7.035  -2.507  0.00  0.00    -0.100 A 
ATOM      6  C   LIG    1       -5.673   6.543  -3.813  0.00  0.00    +0.050 A 
ATOM      7  C   LIG    1       -6.484   7.145  -4.752  0.00  0.00    +0.070 A 
ATOM      8  C   LIG    1       -7.254   8.241  -4.405  0.00  0.00    -0.160 A 
ATOM      9  C   LIG    1       -7.219   8.738  -3.114  0.00  0.00    +0.070 A 
ATOM     10  C   LIG    1       -6.416   8.142  -2.164  0.00  0.00    +0.090 A 
BRANCH   8  11
ATOM     11  C   LIG    1       -8.133   8.898  -5.438  0.00  0.00    +0.510 C 
ATOM     12  F   LIG    1       -9.251   9.459  -4.811  0.00  0.00    -0.170 F 
ATOM     13  F   LIG    1       -8.552   7.942  -6.370  0.00  0.00    -0.170 F 
ATOM     14  F   LIG    1       -7.413   9.902  -6.093  0.00  0.00    -0.170 F 
ENDBRANCH   8  11
ENDBRANCH   2   5
BRANCH   3  15
ATOM     15  C   LIG    1       -3.169   4.685  -0.824  0.00  0.00    +0.300 C 
BRANCH  15  16
ATOM     16  C   LIG    1       -2.441   3.523  -1.450  0.00  0.00    +0.530 C 
ATOM     17  N   LIG    1       -1.592   2.783  -0.710  0.00  0.00    -0.610 N 
ATOM     18  C   LIG    1       -1.283   2.998   0.716  0.00  0.00    +0.250 C 
ATOM     19  C   LIG    1       -0.802   1.617   1.234  0.00  0.00    +0.040 C 
ATOM     20  C   LIG    1       -0.013   1.086   0.008  0.00  0.00    +0.050 C 
ATOM     21  C   LIG    1       -0.821   1.627  -1.190  0.00  0.00    +0.270 C 
ATOM     22  O   LIG    1       -2.619   3.255  -2.619  0.00  0.00    -0.520 OA
BRANCH  21  23
ATOM     23  C   LIG    1        0.117   2.055  -2.289  0.00  0.00    -0.090 A 
ATOM     24  C   LIG    1        0.774   3.268  -2.205  0.00  0.00    +0.010 A 
ATOM     25  C   LIG    1        1.638   3.658  -3.211  0.00  0.00    +0.000 A 
ATOM     26  C   LIG    1        1.837   2.839  -4.307  0.00  0.00    +0.000 A 
ATOM     27  C   LIG    1        1.177   1.628  -4.394  0.00  0.00    +0.000 A 
ATOM     28  C   LIG    1        0.317   1.236  -3.385  0.00  0.00    +0.020 A 
ENDBRANCH  21  23
ENDBRANCH  15  16
ENDBRANCH   3  15
TORSDOF 5
