REMARK  Name = ZINCrD0000075ZDb.0
REMARK                            x       y       z     vdW  Elec       q    Type
REMARK                         _______ _______ _______ _____ _____    ______ ____
ROOT
ATOM      1  O   LIG    1       -7.160   6.383   0.393  0.00  0.00    -0.970 OA
ATOM      2  S   LIG    1       -6.885   5.000   0.217  0.00  0.00    +2.820 S 
ATOM      3  O   LIG    1       -7.493   4.210  -0.796  0.00  0.00    -0.970 OA
ENDROOT
BRANCH   2   4
ATOM      4  N   LIG    1       -7.238   4.265   1.658  0.00  0.00    -1.050 NA
ATOM      5  C   LIG    1       -7.607   2.909   2.093  0.00  0.00    +0.290 C 
ATOM      6  C   LIG    1       -6.982   3.240   3.459  0.00  0.00    +0.160 C 
ATOM      7  C   LIG    1       -7.328   4.683   3.066  0.00  0.00    +0.310 C 
BRANCH   6   8
ATOM      8  O   LIG    1       -7.724   2.743   4.575  0.00  0.00    -0.360 OA
BRANCH   8   9
ATOM      9  C   LIG    1       -7.021   1.774   5.355  0.00  0.00    +0.220 C 
BRANCH   9  10
ATOM     10  C   LIG    1       -7.892   1.321   6.498  0.00  0.00    -0.100 A 
ATOM     11  C   LIG    1       -7.843   1.985   7.710  0.00  0.00    +0.020 A 
ATOM     12  C   LIG    1       -8.645   1.573   8.757  0.00  0.00    +0.000 A 
ATOM     13  C   LIG    1       -9.490   0.491   8.596  0.00  0.00    +0.010 A 
ATOM     14  C   LIG    1       -9.536  -0.176   7.386  0.00  0.00    +0.000 A 
ATOM     15  C   LIG    1       -8.737   0.239   6.337  0.00  0.00    +0.020 A 
ENDBRANCH   9  10
ENDBRANCH   8   9
ENDBRANCH   6   8
ENDBRANCH   2   4
BRANCH   2  16
ATOM     16  N   LIG    1       -5.250   4.873  -0.010  0.00  0.00    -1.110 NA
ATOM     17  H   LIG    1       -4.698   5.671  -0.022  0.00  0.00    +0.420 HD
BRANCH  16  18
ATOM     18  C   LIG    1       -4.635   3.556  -0.192  0.00  0.00    +0.240 C 
ATOM     19  C   LIG    1       -3.446   3.560  -1.167  0.00  0.00    +0.050 C 
ATOM     20  C   LIG    1       -2.553   3.868   0.047  0.00  0.00    +0.030 C 
ATOM     21  C   LIG    1       -3.628   3.188   0.911  0.00  0.00    +0.030 C 
BRANCH  20  22
ATOM     22  C   LIG    1       -1.238   3.133   0.031  0.00  0.00    -0.070 A 
ATOM     23  C   LIG    1       -1.219   1.751   0.017  0.00  0.00    +0.020 A 
ATOM     24  C   LIG    1       -0.013   1.076   0.008  0.00  0.00    +0.020 A 
ATOM     25  C   LIG    1        1.176   1.784   0.000  0.00  0.00    -0.040 A 
ATOM     26  C   LIG    1        1.156   3.167   0.008  0.00  0.00    +0.020 A 
ATOM     27 CL   LIG    1        2.691   0.937  -0.018  0.00  0.00    -0.070 Cl
ATOM     28  C   LIG    1       -0.050   3.841   0.023  0.00  0.00    +0.030 A 
ENDBRANCH  20  22
ENDBRANCH  16  18
ENDBRANCH   2  16
TORSDOF 7
