REMARK  Name = ZINCrH000004ks1p.0
REMARK                            x       y       z     vdW  Elec       q    Type
REMARK                         _______ _______ _______ _____ _____    ______ ____
ROOT
ATOM      1  C   LIG    1       -3.667   2.812   0.141  0.00  0.00    +0.300 C 
ATOM      2  C   LIG    1       -4.591   2.309   1.222  0.00  0.00    -0.100 A 
ATOM      3  C   LIG    1       -5.690   3.092   1.548  0.00  0.00    -0.020 A 
ATOM      4  C   LIG    1       -6.580   2.682   2.524  0.00  0.00    +0.110 A 
ATOM      5  C   LIG    1       -6.370   1.474   3.182  0.00  0.00    +0.110 A 
ATOM      6  C   LIG    1       -5.272   0.700   2.856  0.00  0.00    -0.030 A 
ATOM      7  C   LIG    1       -4.376   1.118   1.879  0.00  0.00    -0.050 A 
ATOM      8  C   LIG    1       -3.188   0.234   1.601  0.00  0.00    +0.080 C 
ATOM      9  C   LIG    1       -2.586   0.548   0.227  0.00  0.00    +0.290 C 
ATOM     10  N   LIG    1       -2.440   2.010   0.127  0.00  0.00    -0.610 N 
ATOM     11  C   LIG    1       -1.226   2.587   0.022  0.00  0.00    +0.620 C 
ATOM     12  O   LIG    1       -0.233   1.896  -0.106  0.00  0.00    -0.520 OA
ENDROOT
BRANCH  11  13
ATOM     13  C   LIG    1       -1.104   4.046   0.063  0.00  0.00    -0.210 A 
ATOM     14  C   LIG    1       -0.277   4.795  -0.728  0.00  0.00    +0.110 A 
ATOM     15  C   LIG    1       -0.358   6.143  -0.476  0.00  0.00    +0.030 A 
ATOM     16  C   LIG    1       -1.221   6.490   0.489  0.00  0.00    -0.180 A 
ATOM     17 CL   LIG    1       -1.516   8.121   1.005  0.00  0.00    -0.010 Cl
ATOM     18  S   LIG    1       -1.990   5.114   1.142  0.00  0.00    +0.230 S 
ENDBRANCH  11  13
BRANCH   5  19
ATOM     19  O   LIG    1       -7.241   1.057   4.140  0.00  0.00    -0.300 OA
ATOM     20  C   LIG    1       -6.960  -0.194   4.771  0.00  0.00    +0.240 C 
ENDBRANCH   5  19
BRANCH   4  21
ATOM     21  O   LIG    1       -7.654   3.455   2.839  0.00  0.00    -0.300 OA
ATOM     22  C   LIG    1       -7.803   4.682   2.122  0.00  0.00    +0.240 C 
ENDBRANCH   4  21
BRANCH   1  23
ATOM     23  C   LIG    1       -4.364   2.699  -1.216  0.00  0.00    +0.110 C 
BRANCH  23  24
ATOM     24  C   LIG    1       -3.495   3.318  -2.280  0.00  0.00    +0.460 C 
ATOM     25  O   LIG    1       -2.428   3.800  -1.984  0.00  0.00    -0.490 OA
BRANCH  24  27
ATOM     26  C   LIG    1       -3.018   3.946  -4.529  0.00  0.00    +0.260 C 
ATOM     27  O   LIG    1       -3.907   3.333  -3.558  0.00  0.00    -0.360 OA
ENDBRANCH  24  27
ENDBRANCH  23  24
ENDBRANCH   1  23
TORSDOF 6
