REMARK  Name = ZINCrD000000ABHy.0
REMARK                            x       y       z     vdW  Elec       q    Type
REMARK                         _______ _______ _______ _____ _____    ______ ____
ROOT
ATOM      1  O   LIG    1        2.599   2.832  -1.927  0.00  0.00    -0.520 OA
ATOM      2  C   LIG    1        3.208   2.094  -1.181  0.00  0.00    +0.520 C 
ATOM      3  N   LIG    1        4.516   1.848  -1.396  0.00  0.00    -0.730 N 
ATOM      4  H   LIG    1        5.003   1.258  -0.800  0.00  0.00    +0.400 HD
ENDROOT
BRANCH   3   5
ATOM      5  C   LIG    1        5.201   2.472  -2.531  0.00  0.00    +0.330 C 
BRANCH   5   6
ATOM      6  C   LIG    1        6.644   2.037  -2.546  0.00  0.00    -0.200 A 
ATOM      7  C   LIG    1        7.026   0.898  -3.243  0.00  0.00    +0.120 A 
ATOM      8  C   LIG    1        8.361   0.535  -3.232  0.00  0.00    -0.040 A 
ATOM      9  C   LIG    1        9.269   1.316  -2.528  0.00  0.00    +0.330 A 
ATOM     10  N   LIG    1        8.866   2.394  -1.876  0.00  0.00    -0.540 NA
ATOM     11  C   LIG    1        7.601   2.769  -1.873  0.00  0.00    +0.320 A 
BRANCH   9  12
ATOM     12  O   LIG    1       10.580   0.970  -2.509  0.00  0.00    -0.300 OA
BRANCH  12  13
ATOM     13  C   LIG    1       11.463   1.815  -1.768  0.00  0.00    +0.240 C 
BRANCH  13  14
ATOM     14  C   LIG    1       12.890   1.269  -1.862  0.00  0.00    -0.040 C 
ATOM     15  C   LIG    1       13.552   0.795  -0.566  0.00  0.00    +0.020 C 
ATOM     16  C   LIG    1       14.007   2.099  -1.227  0.00  0.00    +0.030 C 
ENDBRANCH  13  14
ENDBRANCH  12  13
ENDBRANCH   9  12
ENDBRANCH   5   6
ENDBRANCH   3   5
BRANCH   2  17
ATOM     17  C   LIG    1        2.503   1.453  -0.014  0.00  0.00    +0.160 C 
BRANCH  17  18
ATOM     18  C   LIG    1        1.060   1.888   0.002  0.00  0.00    +0.000 A 
ATOM     19  C   LIG    1       -0.013   1.076   0.008  0.00  0.00    +0.160 A 
ATOM     20  O   LIG    1       -1.109   1.860   0.017  0.00  0.00    -0.190 OA
ATOM     21  C   LIG    1       -0.696   3.139   0.026  0.00  0.00    +0.230 A 
ATOM     22  N   LIG    1        0.617   3.154   0.013  0.00  0.00    -0.440 NA
BRANCH  21  23
ATOM     23  C   LIG    1       -1.572   4.329   0.040  0.00  0.00    -0.020 A 
ATOM     24  C   LIG    1       -1.016   5.609   0.048  0.00  0.00    +0.070 A 
ATOM     25  C   LIG    1       -1.840   6.716   0.056  0.00  0.00    +0.010 A 
ATOM     26  C   LIG    1       -3.215   6.559   0.069  0.00  0.00    +0.030 A 
ATOM     27  C   LIG    1       -3.772   5.293   0.067  0.00  0.00    +0.010 A 
ATOM     28  C   LIG    1       -2.960   4.178   0.053  0.00  0.00    +0.040 A 
ENDBRANCH  21  23
ENDBRANCH  17  18
ENDBRANCH   2  17
TORSDOF 8
