REMARK  Name = ZINCpk00000ebtBt.0
REMARK                            x       y       z     vdW  Elec       q    Type
REMARK                         _______ _______ _______ _____ _____    ______ ____
ROOT
ATOM      1  O   LIG    1        1.232   9.591   0.042  0.00  0.00    -0.510 OA
ATOM      2  C   LIG    1        1.595   8.434   0.032  0.00  0.00    +0.540 C 
ATOM      3  N   LIG    1        0.684   7.441   0.036  0.00  0.00    -0.470 N 
ATOM      4  C   LIG    1       -0.776   7.619   0.050  0.00  0.00    +0.260 C 
ATOM      5  C   LIG    1       -1.317   6.175   0.041  0.00  0.00    +0.090 C 
ATOM      6  C   LIG    1       -0.070   5.320   0.031  0.00  0.00    +0.150 C 
ATOM      7  N   LIG    1        0.972   6.077   0.026  0.00  0.00    -0.250 NA
ENDROOT
BRANCH   6   8
ATOM      8  C   LIG    1       -0.050   3.845   0.023  0.00  0.00    -0.040 A 
ATOM      9  C   LIG    1        1.167   3.160   0.008  0.00  0.00    +0.050 A 
ATOM     10  C   LIG    1        1.178   1.781   0.000  0.00  0.00    +0.010 A 
ATOM     11  C   LIG    1       -0.013   1.076   0.008  0.00  0.00    +0.030 A 
ATOM     12  C   LIG    1       -1.222   1.748   0.017  0.00  0.00    +0.010 A 
ATOM     13  C   LIG    1       -1.248   3.127   0.030  0.00  0.00    +0.040 A 
ENDBRANCH   6   8
BRANCH   2  14
ATOM     14  C   LIG    1        3.067   8.107   0.017  0.00  0.00    +0.370 C 
BRANCH  14  15
ATOM     15  N   LIG    1        3.843   9.349   0.016  0.00  0.00    -0.570 N 
ATOM     16  C   LIG    1        4.237   9.990  -1.092  0.00  0.00    +0.710 C 
ATOM     17  N   LIG    1        4.934  11.111  -0.817  0.00  0.00    -0.710 N 
ATOM     18  H   LIG    1        5.314  11.732  -1.457  0.00  0.00    +0.440 HD
ATOM     19  C   LIG    1        5.007  11.199   0.643  0.00  0.00    +0.120 C 
ATOM     20  C   LIG    1        6.463  11.178   1.127  0.00  0.00    +0.060 C 
ATOM     21  C   LIG    1        6.797  12.671   1.377  0.00  0.00    +0.030 C 
ATOM     22  C   LIG    1        5.471  13.229   1.954  0.00  0.00    +0.040 C 
ATOM     23  C   LIG    1        4.371  12.493   1.157  0.00  0.00    +0.050 C 
ATOM     24  O   LIG    1        3.990   9.607  -2.219  0.00  0.00    -0.540 OA
ATOM     25  C   LIG    1        4.256   9.987   1.133  0.00  0.00    +0.540 C 
ATOM     26  O   LIG    1        4.063   9.656   2.283  0.00  0.00    -0.460 OA
ENDBRANCH  14  15
ENDBRANCH   2  14
TORSDOF 3
