REMARK  Name = ZINCvU0000000ApM.0
REMARK                            x       y       z     vdW  Elec       q    Type
REMARK                         _______ _______ _______ _____ _____    ______ ____
ROOT
ATOM      1  S   LIG    1        4.195   5.272   1.302  0.00  0.00    +2.720 S 
ATOM      2  O   LIG    1        4.839   4.146   1.881  0.00  0.00    -0.940 OA
ATOM      3  O   LIG    1        4.064   6.520   1.968  0.00  0.00    -0.950 OA
ENDROOT
BRANCH   1  10
ATOM      4  C   LIG    1        6.219   3.314  -0.466  0.00  0.00    +0.180 C 
ATOM      5  C   LIG    1        5.876   4.717  -0.896  0.00  0.00    +0.170 A 
ATOM      6  N   LIG    1        6.310   5.317  -1.975  0.00  0.00    -0.280 NA
ATOM      7  N   LIG    1        5.767   6.608  -2.008  0.00  0.00    -0.310 N 
ATOM      8  C   LIG    1        4.988   6.758  -0.913  0.00  0.00    +0.230 A 
ATOM      9  C   LIG    1        4.206   7.992  -0.541  0.00  0.00    +0.180 C 
ATOM     10  C   LIG    1        5.036   5.602  -0.211  0.00  0.00    -0.820 A 
BRANCH   7  11
ATOM     11  C   LIG    1        5.992   7.573  -3.000  0.00  0.00    +0.140 A 
ATOM     12  C   LIG    1        6.004   7.204  -4.338  0.00  0.00    +0.050 A 
ATOM     13  C   LIG    1        6.220   8.157  -5.314  0.00  0.00    +0.060 A 
ATOM     14  C   LIG    1        6.435   9.477  -4.958  0.00  0.00    -0.030 A 
ATOM     15  C   LIG    1        6.428   9.846  -3.624  0.00  0.00    +0.060 A 
ATOM     16 CL   LIG    1        6.712  10.672  -6.187  0.00  0.00    -0.050 Cl
ATOM     17  C   LIG    1        6.207   8.898  -2.645  0.00  0.00    +0.030 A 
ENDBRANCH   7  11
ENDBRANCH   1  10
BRANCH   1  18
ATOM     18  N   LIG    1        2.661   4.785   0.913  0.00  0.00    -1.120 NA
ATOM     19  H   LIG    1        1.901   5.338   1.153  0.00  0.00    +0.420 HD
BRANCH  18  20
ATOM     20  C   LIG    1        2.451   3.519   0.207  0.00  0.00    +0.310 C 
BRANCH  20  21
ATOM     21  C   LIG    1        2.147   2.432   1.206  0.00  0.00    -0.120 A 
ATOM     22  C   LIG    1        2.685   1.169   1.037  0.00  0.00    +0.070 A 
ATOM     23  C   LIG    1        2.407   0.171   1.952  0.00  0.00    -0.010 A 
ATOM     24  C   LIG    1        1.585   0.435   3.035  0.00  0.00    +0.110 A 
ATOM     25  C   LIG    1        1.051   1.701   3.205  0.00  0.00    -0.010 A 
ATOM     26  F   LIG    1        1.308  -0.541   3.927  0.00  0.00    -0.140 F 
ATOM     27  C   LIG    1        1.331   2.697   2.289  0.00  0.00    +0.060 A 
ENDBRANCH  20  21
BRANCH  20  28
ATOM     28  C   LIG    1        1.276   3.664  -0.762  0.00  0.00    +0.080 C 
BRANCH  28  29
ATOM     29  C   LIG    1        1.633   4.681  -1.848  0.00  0.00    +0.450 C 
ATOM     30  F   LIG    1        1.776   5.948  -1.271  0.00  0.00    -0.180 F 
ATOM     31  F   LIG    1        0.615   4.717  -2.807  0.00  0.00    -0.180 F 
ATOM     32  F   LIG    1        2.836   4.309  -2.458  0.00  0.00    -0.180 F 
ENDBRANCH  28  29
ENDBRANCH  20  28
ENDBRANCH  18  20
ENDBRANCH   1  18
TORSDOF 7
