REMARK  Name = ZINCrD000003OVif.0
REMARK                            x       y       z     vdW  Elec       q    Type
REMARK                         _______ _______ _______ _____ _____    ______ ____
ROOT
ATOM      1  C   LIG    1       -2.503   1.007   0.019  0.00  0.00    +0.560 C 
ATOM      2  N   LIG    1       -3.674   1.665   0.130  0.00  0.00    -0.610 N 
ATOM      3  C   LIG    1       -3.715   3.135   0.147  0.00  0.00    +0.290 C 
ATOM      4  C   LIG    1       -4.740   3.601  -0.900  0.00  0.00    +0.180 C 
ATOM      5  N   LIG    1       -6.027   2.941  -0.644  0.00  0.00    -0.540 NA
ATOM      6  C   LIG    1       -5.920   1.484  -0.801  0.00  0.00    +0.190 C 
ATOM      7  C   LIG    1       -4.944   0.932   0.244  0.00  0.00    +0.300 C 
ATOM      8  O   LIG    1       -2.494  -0.203  -0.094  0.00  0.00    -0.530 OA
ENDROOT
BRANCH   1  13
ATOM      9  C   LIG    1        2.451   3.935   0.072  0.00  0.00    +0.100 C 
ATOM     10  C   LIG    1        1.155   3.166   0.060  0.00  0.00    -0.060 A 
ATOM     11  C   LIG    1        0.126   3.539   0.906  0.00  0.00    +0.010 A 
ATOM     12  C   LIG    1       -1.064   2.840   0.900  0.00  0.00    +0.040 A 
ATOM     13  C   LIG    1       -1.229   1.757   0.035  0.00  0.00    -0.140 A 
ATOM     14  C   LIG    1       -0.185   1.383  -0.812  0.00  0.00    +0.070 A 
ATOM     15  C   LIG    1        0.999   2.091  -0.796  0.00  0.00    -0.090 A 
ATOM     16  C   LIG    1        2.126   1.692  -1.715  0.00  0.00    +0.090 C 
ENDBRANCH   1  13
BRANCH   5  17
ATOM     17  C   LIG    1       -7.080   3.487  -1.511  0.00  0.00    +0.360 C 
BRANCH  17  18
ATOM     18  C   LIG    1       -7.330   4.929  -1.150  0.00  0.00    +0.190 A 
ATOM     19  N   LIG    1       -6.729   5.974  -1.661  0.00  0.00    -0.470 NA
ATOM     20  C   LIG    1       -7.272   7.046  -1.041  0.00  0.00    +0.230 A 
ATOM     21  N   LIG    1       -8.164   6.592  -0.197  0.00  0.00    -0.370 NA
ATOM     22  O   LIG    1       -8.211   5.381  -0.252  0.00  0.00    +0.090 OA
BRANCH  20  23
ATOM     23  C   LIG    1       -6.924   8.468  -1.273  0.00  0.00    -0.050 A 
ATOM     24  C   LIG    1       -5.992   8.854  -2.162  0.00  0.00    -0.030 A 
ATOM     25  S   LIG    1       -5.845  10.555  -2.173  0.00  0.00    +0.200 S 
ATOM     26  C   LIG    1       -7.083  10.722  -0.938  0.00  0.00    -0.060 A 
ATOM     27  C   LIG    1       -7.539   9.519  -0.591  0.00  0.00    +0.040 A 
ENDBRANCH  20  23
ENDBRANCH  17  18
ENDBRANCH   5  17
TORSDOF 4
