REMARK  Name = ZINCqH0000008qcu.0
REMARK                            x       y       z     vdW  Elec       q    Type
REMARK                         _______ _______ _______ _____ _____    ______ ____
ROOT
ATOM      1  C   LIG    1        0.731  -0.503   1.223  0.00  0.00    +0.510 C 
ATOM      2  N   LIG    1        0.278  -0.191   2.453  0.00  0.00    -0.720 N 
ATOM      3  H   LIG    1       -0.517   0.356   2.553  0.00  0.00    +0.410 HD
ATOM      4  O   LIG    1        1.725  -1.187   1.099  0.00  0.00    -0.530 OA
ENDROOT
BRANCH   1   6
ATOM      5  C   LIG    1       -0.019   1.526   0.010  0.00  0.00    +0.060 C 
ATOM      6  C   LIG    1        0.002  -0.004   0.002  0.00  0.00    +0.250 C 
BRANCH   6   7
ATOM      7  N   LIG    1        0.688  -0.476  -1.203  0.00  0.00    -0.710 N 
ATOM      8  H   LIG    1        1.632  -0.695  -1.170  0.00  0.00    +0.410 HD
ATOM      9  C   LIG    1        0.006  -0.608  -2.358  0.00  0.00    +0.570 C 
ATOM     10  O   LIG    1       -1.177  -0.335  -2.400  0.00  0.00    -0.530 OA
BRANCH   9  11
ATOM     11  C   LIG    1        0.698  -1.085  -3.574  0.00  0.00    -0.130 A 
ATOM     12  C   LIG    1        2.059  -1.394  -3.531  0.00  0.00    +0.070 A 
ATOM     13  C   LIG    1        2.698  -1.842  -4.668  0.00  0.00    +0.020 A 
ATOM     14  C   LIG    1        1.994  -1.977  -5.853  0.00  0.00    -0.010 A 
ATOM     15  C   LIG    1        0.645  -1.667  -5.904  0.00  0.00    +0.020 A 
ATOM     16 CL   LIG    1        2.807  -2.536  -7.282  0.00  0.00    -0.060 Cl
ATOM     17  C   LIG    1       -0.005  -1.222  -4.773  0.00  0.00    +0.110 A 
ENDBRANCH   9  11
ENDBRANCH   6   7
ENDBRANCH   1   6
BRANCH   2  18
ATOM     18  C   LIG    1        0.986  -0.676   3.640  0.00  0.00    +0.330 C 
BRANCH  18  19
ATOM     19  C   LIG    1        0.281  -0.190   4.880  0.00  0.00    -0.110 A 
ATOM     20  C   LIG    1        0.639   1.017   5.450  0.00  0.00    +0.070 A 
ATOM     21  C   LIG    1       -0.011   1.465   6.586  0.00  0.00    +0.020 A 
ATOM     22  C   LIG    1       -1.012   0.701   7.155  0.00  0.00    +0.080 A 
ATOM     23  C   LIG    1       -1.367  -0.508   6.587  0.00  0.00    -0.180 A 
ATOM     24  C   LIG    1       -0.721  -0.954   5.450  0.00  0.00    +0.090 A 
BRANCH  23  25
ATOM     25  C   LIG    1       -2.459  -1.341   7.208  0.00  0.00    +0.510 C 
ATOM     26  F   LIG    1       -3.105  -2.081   6.212  0.00  0.00    -0.180 F 
ATOM     27  F   LIG    1       -3.384  -0.501   7.838  0.00  0.00    -0.180 F 
ATOM     28  F   LIG    1       -1.903  -2.212   8.150  0.00  0.00    -0.170 F 
ENDBRANCH  23  25
ENDBRANCH  18  19
ENDBRANCH   2  18
TORSDOF 6
