REMARK  Name = ZINCtV00000ps13e.0
REMARK                            x       y       z     vdW  Elec       q    Type
REMARK                         _______ _______ _______ _____ _____    ______ ____
ROOT
ATOM      1  C   LIG    1        2.033   3.886   1.252  0.00  0.00    +0.040 C 
ATOM      2  C   LIG    1        2.183   5.409   1.259  0.00  0.00    +0.040 C 
ATOM      3  C   LIG    1        2.939   5.852   0.004  0.00  0.00    +0.020 C 
ATOM      4  C   LIG    1        2.159   5.421  -1.240  0.00  0.00    +0.020 C 
ATOM      5  C   LIG    1        2.010   3.898  -1.246  0.00  0.00    +0.040 C 
ATOM      6  C   LIG    1        1.254   3.455   0.008  0.00  0.00    +0.110 C 
ENDROOT
BRANCH   6   7
ATOM      7  C   LIG    1        1.107   1.955   0.002  0.00  0.00    +0.110 A 
ATOM      8  N   LIG    1       -0.016   1.342   0.009  0.00  0.00    -0.440 NA
ATOM      9  C   LIG    1        0.002  -0.004   0.002  0.00  0.00    +0.080 A 
ATOM     10  C   LIG    1       -1.070  -0.919   0.008  0.00  0.00    +0.070 A 
ATOM     11  C   LIG    1       -0.832  -2.260  -0.002  0.00  0.00    +0.030 A 
ATOM     12  C   LIG    1        0.465  -2.751  -0.016  0.00  0.00    +0.040 A 
ATOM     13  C   LIG    1        1.532  -1.881  -0.022  0.00  0.00    +0.060 A 
ATOM     14  C   LIG    1        1.308  -0.506  -0.013  0.00  0.00    -0.180 A 
ATOM     15  S   LIG    1        2.417   0.862  -0.016  0.00  0.00    +0.080 S 
ENDBRANCH   6   7
BRANCH   1  17
ATOM     16  O   LIG    1        0.242   2.854   2.384  0.00  0.00    -0.480 OA
ATOM     17  C   LIG    1        1.289   3.449   2.488  0.00  0.00    +0.460 C 
BRANCH  17  18
ATOM     18  O   LIG    1        1.788   3.721   3.704  0.00  0.00    -0.350 OA
BRANCH  18  19
ATOM     19  C   LIG    1        1.018   3.270   4.849  0.00  0.00    +0.280 C 
BRANCH  19  20
ATOM     20  C   LIG    1        1.729   3.662   6.118  0.00  0.00    -0.090 A 
ATOM     21  C   LIG    1        2.910   4.335   6.061  0.00  0.00    +0.040 A 
ATOM     22  C   LIG    1        3.582   4.706   7.224  0.00  0.00    +0.010 A 
ATOM     23  C   LIG    1        3.076   4.405   8.452  0.00  0.00    +0.030 A 
ATOM     24  C   LIG    1        1.859   3.711   8.551  0.00  0.00    -0.050 A 
ATOM     25  C   LIG    1        1.305   3.384   9.800  0.00  0.00    +0.030 A 
ATOM     26  C   LIG    1        0.115   2.724   9.858  0.00  0.00    +0.010 A 
ATOM     27  C   LIG    1       -0.557   2.354   8.695  0.00  0.00    +0.020 A 
ATOM     28  C   LIG    1       -0.048   2.650   7.467  0.00  0.00    +0.010 A 
ATOM     29  C   LIG    1        1.172   3.339   7.368  0.00  0.00    -0.040 A 
ENDBRANCH  19  20
ENDBRANCH  18  19
ENDBRANCH  17  18
ENDBRANCH   1  17
TORSDOF 5
