REMARK  Name = ZINCpk00000l2r3h.0
REMARK                            x       y       z     vdW  Elec       q    Type
REMARK                         _______ _______ _______ _____ _____    ______ ____
ROOT
ATOM      1  C   LIG    1        2.465   0.906  -0.032  0.00  0.00    +0.510 C 
ATOM      2  N   LIG    1        3.620   1.592  -0.137  0.00  0.00    -0.580 N 
ATOM      3  C   LIG    1        3.618   3.062  -0.162  0.00  0.00    +0.290 C 
ATOM      4  C   LIG    1        4.543   3.568   0.957  0.00  0.00    +0.270 C 
ATOM      5  N   LIG    1        5.827   2.860   0.859  0.00  0.00    -0.610 N 
ATOM      6  C   LIG    1        5.829   1.391   0.879  0.00  0.00    +0.290 C 
ATOM      7  C   LIG    1        6.983   3.546   0.753  0.00  0.00    +0.550 C 
ATOM      8  O   LIG    1        8.027   2.953   0.560  0.00  0.00    -0.540 OA
ATOM      9  C   LIG    1        4.904   0.884  -0.235  0.00  0.00    +0.280 C 
ATOM     10  O   LIG    1        2.486  -0.294   0.147  0.00  0.00    -0.520 OA
ENDROOT
BRANCH   1  12
ATOM     11  O   LIG    1        1.133   2.800  -0.431  0.00  0.00    -0.510 OA
ATOM     12  C   LIG    1        1.158   1.624  -0.135  0.00  0.00    +0.520 C 
ATOM     13  N   LIG    1        0.007   0.964   0.101  0.00  0.00    -0.670 N 
ATOM     14  H   LIG    1        0.027   0.023   0.338  0.00  0.00    +0.420 HD
BRANCH  13  15
ATOM     15  C   LIG    1       -1.275   1.665  -0.006  0.00  0.00    +0.210 C 
ATOM     16  C   LIG    1       -2.315   1.407   1.086  0.00  0.00    +0.020 C 
ATOM     17  C   LIG    1       -2.516   0.826  -0.316  0.00  0.00    +0.030 C 
ENDBRANCH  13  15
ENDBRANCH   1  12
BRANCH   7  18
ATOM     18  C   LIG    1        6.981   5.006   0.870  0.00  0.00    -0.090 C 
ATOM     19  C   LIG    1        8.146   5.684   0.861  0.00  0.00    +0.130 C 
BRANCH  19  20
ATOM     20  C   LIG    1        8.144   7.152   0.979  0.00  0.00    -0.070 A 
ATOM     21  C   LIG    1        9.350   7.859   0.970  0.00  0.00    +0.060 A 
ATOM     22  C   LIG    1        9.340   9.233   1.080  0.00  0.00    +0.030 A 
ATOM     23  C   LIG    1        8.141   9.913   1.200  0.00  0.00    +0.060 A 
ATOM     24  C   LIG    1        6.942   9.220   1.209  0.00  0.00    -0.090 A 
ATOM     25 BR   LIG    1        5.310  10.162   1.373  0.00  0.00    -0.040 Br
ATOM     26  C   LIG    1        6.935   7.846   1.094  0.00  0.00    +0.070 A 
ENDBRANCH  19  20
ENDBRANCH   7  18
TORSDOF 4
