REMARK  Name = ZINCpk000000mWhg.0
REMARK                            x       y       z     vdW  Elec       q    Type
REMARK                         _______ _______ _______ _____ _____    ______ ____
ROOT
ATOM      1  C   LIG    1       -0.421   1.424  -0.074  0.00  0.00    +0.090 C 
ENDROOT
BRANCH   1   2
ATOM      2  C   LIG    1        0.774   2.323   0.110  0.00  0.00    +0.510 C 
ATOM      3  N   LIG    1        0.625   3.661   0.067  0.00  0.00    -0.520 N 
ATOM      4  H   LIG    1       -0.253   4.047  -0.083  0.00  0.00    +0.430 HD
ATOM      5  O   LIG    1        1.872   1.841   0.298  0.00  0.00    -0.520 OA
BRANCH   3   6
ATOM      6  N   LIG    1        1.736   4.497   0.238  0.00  0.00    -0.520 N 
ATOM      7  H   LIG    1        2.614   4.111   0.388  0.00  0.00    +0.430 HD
ATOM      8  C   LIG    1        1.587   5.835   0.195  0.00  0.00    +0.570 C 
ATOM      9  O   LIG    1        0.487   6.318   0.007  0.00  0.00    -0.530 OA
BRANCH   8  10
ATOM     10  C   LIG    1        2.760   6.717   0.376  0.00  0.00    -0.190 A 
ATOM     11  C   LIG    1        2.618   8.108   0.327  0.00  0.00    +0.140 A 
ATOM     12  C   LIG    1        3.747   8.889   0.507  0.00  0.00    -0.030 A 
ATOM     13  C   LIG    1        4.968   8.275   0.717  0.00  0.00    +0.300 A 
ATOM     14  N   LIG    1        5.072   6.960   0.753  0.00  0.00    -0.480 NA
ATOM     15  C   LIG    1        4.027   6.175   0.592  0.00  0.00    +0.300 A 
ENDBRANCH   8  10
ENDBRANCH   3   6
ENDBRANCH   1   2
BRANCH   1  16
ATOM     16  C   LIG    1        0.020  -0.038   0.019  0.00  0.00    +0.320 C 
BRANCH  16  17
ATOM     17  C   LIG    1       -1.191  -0.933  -0.043  0.00  0.00    -0.110 A 
ATOM     18  C   LIG    1       -1.790  -1.203  -1.259  0.00  0.00    +0.020 A 
ATOM     19  C   LIG    1       -2.898  -2.028  -1.316  0.00  0.00    +0.000 A 
ATOM     20  C   LIG    1       -3.413  -2.574  -0.155  0.00  0.00    -0.080 A 
ATOM     21  C   LIG    1       -2.817  -2.300   1.062  0.00  0.00    +0.000 A 
ATOM     22  C   LIG    1       -4.624  -3.469  -0.217  0.00  0.00    +0.090 C 
ATOM     23  C   LIG    1       -1.706  -1.479   1.118  0.00  0.00    +0.020 A 
ENDBRANCH  16  17
BRANCH  16  26
ATOM     24  C   LIG    1        2.810  -1.595  -2.087  0.00  0.00    +0.090 C 
ATOM     25  C   LIG    1        1.815  -1.346  -0.982  0.00  0.00    +0.520 C 
ATOM     26  N   LIG    1        0.915  -0.350  -1.098  0.00  0.00    -0.720 N 
ATOM     27  H   LIG    1        0.860   0.161  -1.921  0.00  0.00    +0.400 HD
ATOM     28  O   LIG    1        1.824  -2.043   0.010  0.00  0.00    -0.540 OA
ENDBRANCH  16  26
ENDBRANCH   1  16
TORSDOF 6
