REMARK  Name = ZINCpe000000Wu3M.0
REMARK                            x       y       z     vdW  Elec       q    Type
REMARK                         _______ _______ _______ _____ _____    ______ ____
ROOT
ATOM      1  N   LIG    1       -1.443  -0.900   0.021  0.00  0.00    -0.730 N 
ATOM      2  H   LIG    1       -2.188  -0.325   0.255  0.00  0.00    +0.400 HD
ATOM      3  C   LIG    1       -1.246  -2.054   0.689  0.00  0.00    +0.520 C 
ATOM      4  O   LIG    1       -0.314  -2.773   0.396  0.00  0.00    -0.510 OA
ENDROOT
BRANCH   1   5
ATOM      5  C   LIG    1       -0.531  -0.515  -1.060  0.00  0.00    +0.330 C 
BRANCH   5   9
ATOM      6  C   LIG    1       -0.589   3.733  -1.524  0.00  0.00    +0.130 A 
ATOM      7  C   LIG    1        0.609   3.039  -1.623  0.00  0.00    -0.020 A 
ATOM      8  C   LIG    1        0.625   1.666  -1.473  0.00  0.00    +0.060 A 
ATOM      9  C   LIG    1       -0.551   0.983  -1.223  0.00  0.00    -0.130 A 
ATOM     10  C   LIG    1       -1.747   1.672  -1.129  0.00  0.00    +0.050 A 
ATOM     11  C   LIG    1       -1.767   3.046  -1.273  0.00  0.00    -0.080 A 
BRANCH   6  13
ATOM     12  C   LIG    1       -1.875   5.732  -1.557  0.00  0.00    +0.250 C 
ATOM     13  O   LIG    1       -0.607   5.084  -1.672  0.00  0.00    -0.320 OA
ENDBRANCH   6  13
ENDBRANCH   5   9
BRANCH   5  14
ATOM     14  C   LIG    1       -0.978  -1.176  -2.365  0.00  0.00    -0.050 C 
ATOM     15  C   LIG    1       -2.326  -1.900  -2.364  0.00  0.00    +0.000 C 
ATOM     16  C   LIG    1       -1.025  -2.705  -2.402  0.00  0.00    +0.030 C 
ENDBRANCH   5  14
ENDBRANCH   1   5
BRANCH   3  17
ATOM     17  C   LIG    1       -2.183  -2.451   1.800  0.00  0.00    +0.200 C 
BRANCH  17  18
ATOM     18  N   LIG    1       -1.756  -3.738   2.365  0.00  0.00    -0.520 NA
ATOM     19  C   LIG    1       -1.907  -4.820   1.381  0.00  0.00    +0.190 C 
ATOM     20  C   LIG    1       -1.379  -6.126   1.979  0.00  0.00    +0.180 C 
ATOM     21  N   LIG    1       -2.119  -6.432   3.212  0.00  0.00    -0.530 NA
ATOM     22  C   LIG    1       -1.968  -5.350   4.195  0.00  0.00    +0.180 C 
ATOM     23  C   LIG    1       -2.496  -4.044   3.597  0.00  0.00    +0.180 C 
BRANCH  21  24
ATOM     24  C   LIG    1       -1.692  -7.719   3.776  0.00  0.00    +0.180 C 
BRANCH  24  25
ATOM     25  C   LIG    1       -2.767  -8.237   4.735  0.00  0.00    +0.170 C 
BRANCH  25  26
ATOM     26  O   LIG    1       -3.963  -8.514   4.004  0.00  0.00    -0.560 OA
ATOM     27  H   LIG    1       -4.689  -8.847   4.549  0.00  0.00    +0.370 HD
ENDBRANCH  25  26
ENDBRANCH  24  25
ENDBRANCH  21  24
ENDBRANCH  17  18
ENDBRANCH   3  17
TORSDOF 9
