REMARK  Name = ZINCqH0000008aWw.2
REMARK                            x       y       z     vdW  Elec       q    Type
REMARK                         _______ _______ _______ _____ _____    ______ ____
ROOT
ATOM      1  N   LIG    1        5.513   4.189  -0.059  0.00  0.00    -0.500 NA
ENDROOT
BRANCH   1   3
ATOM      2  C   LIG    1        4.629   4.107  -2.341  0.00  0.00    -0.010 C 
ATOM      3  C   LIG    1        4.606   4.853  -1.005  0.00  0.00    +0.210 C 
BRANCH   3   4
ATOM      4  C   LIG    1        3.184   4.844  -0.441  0.00  0.00    +0.020 C 
ATOM      5  C   LIG    1        2.179   3.879  -1.072  0.00  0.00    -0.030 C 
ATOM      6  C   LIG    1        2.066   5.382  -1.335  0.00  0.00    +0.000 C 
ENDBRANCH   3   4
ENDBRANCH   1   3
BRANCH   1   7
ATOM      7  C   LIG    1        5.333   2.732  -0.090  0.00  0.00    +0.270 C 
BRANCH   7   8
ATOM      8  C   LIG    1        4.113   2.359   0.713  0.00  0.00    +0.390 A 
ATOM      9  N   LIG    1        3.520   3.288   1.398  0.00  0.00    -0.470 NA
ATOM     10  C   LIG    1        2.417   3.027   2.144  0.00  0.00    +0.150 A 
ATOM     11  C   LIG    1        1.777   4.025   2.881  0.00  0.00    +0.030 A 
ATOM     12  C   LIG    1        0.660   3.715   3.624  0.00  0.00    +0.060 A 
ATOM     13  C   LIG    1        0.160   2.420   3.650  0.00  0.00    -0.010 A 
ATOM     14  C   LIG    1        0.774   1.417   2.931  0.00  0.00    +0.100 A 
ATOM     15  C   LIG    1        1.905   1.710   2.173  0.00  0.00    -0.200 A 
ATOM     16  C   LIG    1        2.602   0.682   1.385  0.00  0.00    +0.550 A 
ATOM     17  O   LIG    1        2.213  -0.472   1.367  0.00  0.00    -0.510 OA
ATOM     18  N   LIG    1        3.692   1.068   0.682  0.00  0.00    -0.540 N 
ATOM     19  C   LIG    1        4.424   0.084  -0.120  0.00  0.00    +0.320 C 
ENDBRANCH   7   8
ENDBRANCH   1   7
BRANCH   1  20
ATOM     20  C   LIG    1        6.911   4.553  -0.326  0.00  0.00    +0.230 C 
BRANCH  20  21
ATOM     21  C   LIG    1        7.150   5.978   0.101  0.00  0.00    -0.070 A 
ATOM     22  C   LIG    1        6.973   7.009  -0.803  0.00  0.00    +0.010 A 
ATOM     23  C   LIG    1        7.187   8.317  -0.410  0.00  0.00    +0.000 A 
ATOM     24  C   LIG    1        7.588   8.594   0.883  0.00  0.00    +0.000 A 
ATOM     25  C   LIG    1        7.770   7.562   1.786  0.00  0.00    +0.000 A 
ATOM     26  C   LIG    1        7.551   6.255   1.395  0.00  0.00    +0.030 A 
ENDBRANCH  20  21
ENDBRANCH   1  20
TORSDOF 6
