REMARK  Name = ZINCrH000004lHa5.0
REMARK                            x       y       z     vdW  Elec       q    Type
REMARK                         _______ _______ _______ _____ _____    ______ ____
ROOT
ATOM      1  N   LIG    1       -0.473   7.749  -1.214  0.00  0.00    -0.730 N 
ATOM      2  H   LIG    1       -0.263   8.141  -0.352  0.00  0.00    +0.400 HD
ATOM      3  C   LIG    1       -0.082   8.364  -2.348  0.00  0.00    +0.710 C 
ATOM      4  N   LIG    1        0.601   9.524  -2.284  0.00  0.00    -0.690 N 
ATOM      5  H   LIG    1        0.866   9.884  -1.424  0.00  0.00    +0.410 HD
ATOM      6  O   LIG    1       -0.346   7.872  -3.428  0.00  0.00    -0.570 OA
ENDROOT
BRANCH   4   7
ATOM      7  C   LIG    1        0.928  10.210  -3.462  0.00  0.00    +0.160 A 
ATOM      8  C   LIG    1        1.264   9.501  -4.607  0.00  0.00    +0.030 A 
ATOM      9  C   LIG    1        1.581  10.177  -5.769  0.00  0.00    +0.050 A 
ATOM     10  C   LIG    1        1.576  11.565  -5.788  0.00  0.00    +0.120 A 
ATOM     11  C   LIG    1        1.245  12.274  -4.640  0.00  0.00    +0.030 A 
ATOM     12  C   LIG    1        0.922  11.598  -3.481  0.00  0.00    -0.010 A 
BRANCH  10  13
ATOM     13  N   LIG    1        1.904  12.251  -6.965  0.00  0.00    -0.580 N 
ATOM     14  C   LIG    1        3.162  12.202  -7.444  0.00  0.00    +0.510 C 
ATOM     15  O   LIG    1        3.988  11.491  -6.910  0.00  0.00    -0.530 OA
ATOM     16  C   LIG    1        3.544  13.029  -8.645  0.00  0.00    +0.100 C 
ATOM     17  C   LIG    1        0.879  13.022  -7.673  0.00  0.00    +0.300 C 
ENDBRANCH  10  13
ENDBRANCH   4   7
BRANCH   1  18
ATOM     18  C   LIG    1       -1.216   6.488  -1.283  0.00  0.00    +0.270 C 
ATOM     19  C   LIG    1       -2.705   6.783  -1.469  0.00  0.00    +0.030 C 
BRANCH  18  20
ATOM     20  C   LIG    1       -1.009   5.703   0.014  0.00  0.00    +0.210 C 
BRANCH  20  21
ATOM     21  C   LIG    1       -1.683   4.359  -0.100  0.00  0.00    -0.130 A 
ATOM     22  C   LIG    1       -0.936   3.235  -0.397  0.00  0.00    +0.050 A 
ATOM     23  C   LIG    1       -1.552   2.002  -0.501  0.00  0.00    -0.020 A 
ATOM     24  C   LIG    1       -2.919   1.895  -0.308  0.00  0.00    +0.110 A 
ATOM     25  C   LIG    1       -3.667   3.022  -0.015  0.00  0.00    -0.020 A 
ATOM     26  F   LIG    1       -3.523   0.690  -0.410  0.00  0.00    -0.140 F 
ATOM     27  C   LIG    1       -3.047   4.253   0.094  0.00  0.00    +0.080 A 
ENDBRANCH  20  21
BRANCH  20  29
ATOM     28  C   LIG    1       -0.955   6.164   2.365  0.00  0.00    +0.210 C 
ATOM     29  O   LIG    1       -1.576   6.429   1.106  0.00  0.00    -0.370 OA
ENDBRANCH  20  29
ENDBRANCH  18  20
ENDBRANCH   1  18
TORSDOF 6
