REMARK  Name = ZINCpk00000y5c9n.0
REMARK                            x       y       z     vdW  Elec       q    Type
REMARK                         _______ _______ _______ _____ _____    ______ ____
ROOT
ATOM      1  C   LIG    1       -0.640   9.530   3.008  0.00  0.00    +0.150 C 
ATOM      2  C   LIG    1       -0.598   8.001   2.944  0.00  0.00    +0.160 C 
ATOM      3  N   LIG    1       -0.299   7.581   1.567  0.00  0.00    -0.520 NA
ATOM      4  C   LIG    1       -1.311   8.097   0.634  0.00  0.00    +0.150 C 
ATOM      5  C   LIG    1       -1.346   9.625   0.721  0.00  0.00    +0.230 C 
ATOM      6  O   LIG    1       -1.607  10.015   2.072  0.00  0.00    -0.370 OA
ENDROOT
BRANCH   1   7
ATOM      7  C   LIG    1       -1.028   9.972   4.421  0.00  0.00    +0.310 C 
BRANCH   7   9
ATOM      8  C   LIG    1       -2.313  12.147   4.180  0.00  0.00    +0.310 C 
ATOM      9  N   LIG    1       -1.069  11.435   4.481  0.00  0.00    -0.590 N 
BRANCH   9  10
ATOM     10  C   LIG    1        0.075  12.148   4.823  0.00  0.00    +0.340 A 
ATOM     11  C   LIG    1        1.285  11.482   5.013  0.00  0.00    -0.040 A 
ATOM     12  C   LIG    1        2.397  12.240   5.349  0.00  0.00    +0.070 A 
ATOM     13  C   LIG    1        2.235  13.611   5.484  0.00  0.00    +0.150 A 
ATOM     14  N   LIG    1        1.051  14.158   5.291  0.00  0.00    -0.200 NA
ATOM     15  N   LIG    1        0.019  13.463   4.975  0.00  0.00    -0.310 NA
ENDBRANCH   9  10
ENDBRANCH   7   9
ENDBRANCH   1   7
BRANCH   3  16
ATOM     16  C   LIG    1       -0.193   6.119   1.474  0.00  0.00    +0.160 C 
BRANCH  16  17
ATOM     17  C   LIG    1        1.022   5.643   2.272  0.00  0.00    +0.270 C 
BRANCH  17  18
ATOM     18  C   LIG    1        1.133   4.144   2.174  0.00  0.00    -0.130 A 
ATOM     19  C   LIG    1        0.586   3.345   3.161  0.00  0.00    +0.050 A 
ATOM     20  C   LIG    1        0.686   1.969   3.071  0.00  0.00    -0.010 A 
ATOM     21  C   LIG    1        1.333   1.391   1.993  0.00  0.00    +0.100 A 
ATOM     22  C   LIG    1        1.885   2.193   1.007  0.00  0.00    -0.010 A 
ATOM     23  F   LIG    1        1.432   0.047   1.904  0.00  0.00    -0.140 F 
ATOM     24  C   LIG    1        1.780   3.568   1.096  0.00  0.00    +0.050 A 
ENDBRANCH  17  18
BRANCH  17  25
ATOM     25  O   LIG    1        2.205   6.244   1.740  0.00  0.00    -0.540 OA
ATOM     26  H   LIG    1        2.372   6.030   0.812  0.00  0.00    +0.370 HD
ENDBRANCH  17  25
ENDBRANCH  16  17
ENDBRANCH   3  16
TORSDOF 7
