REMARK  Name = ZINCpk000000nBWz.0
REMARK                            x       y       z     vdW  Elec       q    Type
REMARK                         _______ _______ _______ _____ _____    ______ ____
ROOT
ATOM      1  C   LIG    1       -0.334   1.067   0.874  0.00  0.00    +0.510 C 
ATOM      2  N   LIG    1       -1.508   1.683   0.630  0.00  0.00    -0.580 N 
ATOM      3  C   LIG    1       -1.652   3.130   0.843  0.00  0.00    +0.290 C 
ATOM      4  C   LIG    1       -2.152   3.766  -0.465  0.00  0.00    +0.270 C 
ATOM      5  N   LIG    1       -3.313   3.001  -0.943  0.00  0.00    -0.620 N 
ATOM      6  C   LIG    1       -3.171   1.553  -1.150  0.00  0.00    +0.290 C 
ATOM      7  C   LIG    1       -4.487   3.617  -1.187  0.00  0.00    +0.600 C 
ATOM      8  O   LIG    1       -5.516   2.969  -1.238  0.00  0.00    -0.520 OA
ATOM      9  C   LIG    1       -2.669   0.918   0.152  0.00  0.00    +0.280 C 
ATOM     10  O   LIG    1        0.590   1.690   1.352  0.00  0.00    -0.520 OA
ENDROOT
BRANCH   7  11
ATOM     11  C   LIG    1       -4.525   5.068  -1.391  0.00  0.00    -0.280 A 
ATOM     12  C   LIG    1       -5.653   5.819  -1.520  0.00  0.00    +0.110 A 
ATOM     13  C   LIG    1       -5.416   7.168  -1.703  0.00  0.00    -0.120 A 
ATOM     14  C   LIG    1       -4.104   7.497  -1.721  0.00  0.00    -0.200 A 
ATOM     15  C   LIG    1       -3.578   8.908  -1.907  0.00  0.00    +0.110 C 
ATOM     16  C   LIG    1       -4.701   9.781  -2.472  0.00  0.00    +0.020 C 
ATOM     17  C   LIG    1       -5.959   9.589  -1.619  0.00  0.00    +0.020 C 
ATOM     18  C   LIG    1       -6.530   8.193  -1.871  0.00  0.00    +0.100 C 
ATOM     19  S   LIG    1       -3.121   6.118  -1.501  0.00  0.00    +0.210 S 
ENDBRANCH   7  11
BRANCH   1  22
ATOM     20  N   LIG    1        1.032  -0.974   0.692  0.00  0.00    -0.690 N 
ATOM     21  H   LIG    1        1.795  -0.455   0.990  0.00  0.00    +0.410 HD
ATOM     22  C   LIG    1       -0.173  -0.386   0.560  0.00  0.00    +0.510 C 
ATOM     23  O   LIG    1       -1.128  -1.035   0.188  0.00  0.00    -0.510 OA
BRANCH  20  25
ATOM     24  C   LIG    1        1.432  -2.572  -1.116  0.00  0.00    +0.020 C 
ATOM     25  C   LIG    1        1.190  -2.398   0.385  0.00  0.00    +0.230 C 
ATOM     26  C   LIG    1        2.382  -2.958   1.163  0.00  0.00    +0.040 C 
ENDBRANCH  20  25
ENDBRANCH   1  22
TORSDOF 3
