REMARK  Name = ZINCpe000000UcgT.0
REMARK                            x       y       z     vdW  Elec       q    Type
REMARK                         _______ _______ _______ _____ _____    ______ ____
ROOT
ATOM      1  N   LIG    1        1.891   3.767   1.825  0.00  0.00    -0.470 N 
ATOM      2  C   LIG    1        0.593   4.438   1.972  0.00  0.00    +0.220 C 
ENDROOT
BRANCH   1  11
ATOM      3  C   LIG    1        2.343   0.671   1.450  0.00  0.00    -0.120 A 
ATOM      4  C   LIG    1        2.571  -0.582   1.877  0.00  0.00    +0.230 A 
ATOM      5  N   LIG    1        2.697  -0.591   3.242  0.00  0.00    -0.570 N 
ATOM      6  H   LIG    1        2.869  -1.380   3.780  0.00  0.00    +0.430 HD
ATOM      7  C   LIG    1        2.542   0.675   3.736  0.00  0.00    +0.320 A 
ATOM      8  N   LIG    1        2.564   1.207   4.957  0.00  0.00    -0.530 NA
ATOM      9  C   LIG    1        2.376   2.497   5.131  0.00  0.00    +0.530 A 
ATOM     10  N   LIG    1        2.159   3.329   4.128  0.00  0.00    -0.570 NA
ATOM     11  C   LIG    1        2.119   2.893   2.872  0.00  0.00    +0.390 A 
ATOM     12  C   LIG    1        2.313   1.523   2.636  0.00  0.00    -0.170 A 
BRANCH   3  14
ATOM     13  C   LIG    1        3.491   1.565  -0.558  0.00  0.00    +0.020 C 
ATOM     14  C   LIG    1        2.150   1.111   0.021  0.00  0.00    +0.100 C 
ENDBRANCH   3  14
ENDBRANCH   1  11
BRANCH   1  15
ATOM     15  C   LIG    1        2.980   4.747   1.710  0.00  0.00    +0.350 C 
BRANCH  15  16
ATOM     16  C   LIG    1        2.828   5.519   0.425  0.00  0.00    +0.220 A 
ATOM     17  N   LIG    1        3.349   5.202  -0.741  0.00  0.00    -0.270 NA
ATOM     18  N   LIG    1        3.022   6.084  -1.627  0.00  0.00    -0.200 NA
ATOM     19  C   LIG    1        2.295   7.002  -1.065  0.00  0.00    +0.120 A 
ATOM     20  C   LIG    1        1.682   8.237  -1.591  0.00  0.00    +0.620 C 
ATOM     21  N   LIG    1        1.150   9.081  -0.676  0.00  0.00    -0.620 N 
ATOM     22  C   LIG    1        1.389   8.918   0.754  0.00  0.00    +0.300 C 
ATOM     23  C   LIG    1        1.354   7.454   1.192  0.00  0.00    +0.300 C 
ATOM     24  C   LIG    1        0.311  10.191  -1.134  0.00  0.00    +0.310 C 
ATOM     25  O   LIG    1        1.656   8.483  -2.782  0.00  0.00    -0.480 OA
ATOM     26  N   LIG    1        2.146   6.652   0.262  0.00  0.00    -0.460 N 
ENDBRANCH  15  16
ENDBRANCH   1  15
TORSDOF 4
