REMARK  Name = ZINCpk00000y6yqM.0
REMARK                            x       y       z     vdW  Elec       q    Type
REMARK                         _______ _______ _______ _____ _____    ______ ____
ROOT
ATOM      1  C   LIG    1       -1.196  -0.918   0.009  0.00  0.00    +0.280 C 
ATOM      2  C   LIG    1       -0.745  -2.393  -0.003  0.00  0.00    +0.080 C 
ATOM      3  C   LIG    1       -1.303  -2.994   1.304  0.00  0.00    +0.210 C 
ATOM      4  N   LIG    1       -2.454  -2.123   1.656  0.00  0.00    -0.440 N 
ATOM      5  C   LIG    1       -1.989  -0.752   1.323  0.00  0.00    +0.240 C 
ENDROOT
BRANCH   4   6
ATOM      6  C   LIG    1       -2.765  -2.230   3.000  0.00  0.00    +0.490 A 
ATOM      7  N   LIG    1       -3.971  -2.647   3.354  0.00  0.00    -0.460 NA
ATOM      8  C   LIG    1       -4.301  -2.760   4.630  0.00  0.00    +0.360 A 
ATOM      9  C   LIG    1       -3.366  -2.435   5.601  0.00  0.00    -0.010 A 
ATOM     10  C   LIG    1       -2.113  -2.002   5.196  0.00  0.00    +0.100 A 
ATOM     11  N   LIG    1       -1.847  -1.917   3.903  0.00  0.00    -0.510 NA
BRANCH  10  12
ATOM     12  C   LIG    1       -1.065  -1.637   6.216  0.00  0.00    +0.520 C 
ATOM     13  F   LIG    1       -1.688  -1.154   7.371  0.00  0.00    -0.160 F 
ATOM     14  F   LIG    1       -0.226  -0.649   5.690  0.00  0.00    -0.160 F 
ATOM     15  F   LIG    1       -0.309  -2.771   6.533  0.00  0.00    -0.160 F 
ENDBRANCH  10  12
ENDBRANCH   4   6
BRANCH   1  16
ATOM     16  C   LIG    1        0.002  -0.004   0.002  0.00  0.00    +0.160 A 
ATOM     17  N   LIG    1       -0.016   1.307   0.009  0.00  0.00    -0.420 NA
ATOM     18  C   LIG    1        1.274   1.687  -0.001  0.00  0.00    +0.160 A 
ATOM     19  N   LIG    1        1.998   0.607  -0.014  0.00  0.00    -0.380 NA
ATOM     20  C   LIG    1        1.787   3.104   0.002  0.00  0.00    +0.210 C 
ATOM     21  O   LIG    1        1.286  -0.375  -0.012  0.00  0.00    +0.080 OA
ENDBRANCH   1  16
BRANCH   1  24
ATOM     22  C   LIG    1       -3.467   0.877  -2.495  0.00  0.00    +0.100 C 
ATOM     23  C   LIG    1       -2.584   0.590  -1.309  0.00  0.00    +0.500 C 
ATOM     24  N   LIG    1       -2.055  -0.639  -1.144  0.00  0.00    -0.720 N 
ATOM     25  H   LIG    1       -2.243  -1.338  -1.790  0.00  0.00    +0.410 HD
ATOM     26  O   LIG    1       -2.349   1.464  -0.502  0.00  0.00    -0.490 OA
ENDBRANCH   1  24
TORSDOF 4
