REMARK  Name = ZINCrH000004lEPQ.0
REMARK                            x       y       z     vdW  Elec       q    Type
REMARK                         _______ _______ _______ _____ _____    ______ ____
ROOT
ATOM      1  C   LIG    1        0.022   1.502  -0.065  0.00  0.00    +0.530 C 
ATOM      2  N   LIG    1       -1.208   2.044  -0.166  0.00  0.00    -0.560 N 
ATOM      3  O   LIG    1        0.995   2.220   0.027  0.00  0.00    -0.490 OA
ENDROOT
BRANCH   2   4
ATOM      4  C   LIG    1       -1.355   3.433  -0.281  0.00  0.00    +0.160 A 
ATOM      5  C   LIG    1       -1.365   4.028  -1.535  0.00  0.00    +0.070 A 
ATOM      6  C   LIG    1       -1.514   5.400  -1.648  0.00  0.00    +0.050 A 
ATOM      7  C   LIG    1       -1.644   6.182  -0.503  0.00  0.00    +0.050 A 
ATOM      8  O   LIG    1       -1.770   7.489  -0.879  0.00  0.00    -0.300 OA
ATOM      9  C   LIG    1       -1.307   7.543  -2.241  0.00  0.00    +0.440 C 
ATOM     10  C   LIG    1       -1.629   5.585   0.747  0.00  0.00    +0.060 A 
ATOM     11  O   LIG    1       -1.559   6.217  -2.742  0.00  0.00    -0.300 OA
ATOM     12  C   LIG    1       -1.484   4.215   0.860  0.00  0.00    -0.020 A 
ATOM     13 CL   LIG    1       -1.465   3.471   2.429  0.00  0.00    -0.030 Cl
ENDBRANCH   2   4
BRANCH   2  14
ATOM     14  C   LIG    1       -2.392   1.181  -0.154  0.00  0.00    +0.230 C 
ATOM     15  C   LIG    1       -3.091   1.256  -1.513  0.00  0.00    +0.000 C 
ATOM     16  C   LIG    1       -4.327   0.355  -1.502  0.00  0.00    +0.020 C 
ATOM     17  C   LIG    1       -5.289   0.822  -0.407  0.00  0.00    +0.010 C 
ATOM     18  C   LIG    1       -4.590   0.746   0.952  0.00  0.00    +0.010 C 
ATOM     19  C   LIG    1       -3.353   1.648   0.940  0.00  0.00    +0.010 C 
ENDBRANCH   2  14
BRANCH   1  20
ATOM     20  C   LIG    1        0.188   0.004  -0.073  0.00  0.00    +0.170 C 
BRANCH  20  21
ATOM     21  C   LIG    1        0.849  -0.428  -1.384  0.00  0.00    -0.030 C 
ATOM     22  C   LIG    1        0.064   0.126  -2.594  0.00  0.00    -0.000 C 
ATOM     23  C   LIG    1        1.082   1.033  -3.319  0.00  0.00    +0.200 C 
ATOM     24  O   LIG    1        2.375   0.524  -2.925  0.00  0.00    -0.370 OA
ATOM     25  C   LIG    1        2.249   0.210  -1.521  0.00  0.00    +0.230 C 
ENDBRANCH  20  21
BRANCH  20  27
ATOM     26  C   LIG    1        0.649  -1.646   1.603  0.00  0.00    +0.220 C 
ATOM     27  O   LIG    1        1.011  -0.389   1.027  0.00  0.00    -0.360 OA
ENDBRANCH  20  27
ENDBRANCH   1  20
TORSDOF 5
