REMARK  Name = ZINCtj00001n1jXN.0
REMARK                            x       y       z     vdW  Elec       q    Type
REMARK                         _______ _______ _______ _____ _____    ______ ____
ROOT
ATOM      1  C   LIG    1        0.829  -1.979   1.325  0.00  0.00    +0.520 C 
ATOM      2  N   LIG    1        1.297  -2.437   0.147  0.00  0.00    -0.600 N 
ATOM      3  C   LIG    1        1.982  -1.586  -0.783  0.00  0.00    +0.300 C 
ATOM      4  C   LIG    1        1.005  -0.621  -1.484  0.00  0.00    +0.100 C 
ATOM      5  C   LIG    1       -0.343  -1.319  -1.820  0.00  0.00    -0.210 C 
ATOM      6  S   LIG    1       -0.180  -2.991  -2.440  0.00  0.00    +2.310 S 
ATOM      7  C   LIG    1       -0.123  -4.081  -0.958  0.00  0.00    -0.290 C 
ATOM      8  N   LIG    1       -1.425  -3.318  -3.198  0.00  0.00    -1.500 NA
ATOM      9  O   LIG    1        0.918  -3.169  -3.324  0.00  0.00    -0.890 OA
ATOM     10  C   LIG    1        1.132  -3.845  -0.270  0.00  0.00    +0.330 C 
ATOM     11  O   LIG    1        0.927  -0.802   1.600  0.00  0.00    -0.500 OA
ENDROOT
BRANCH   8  12
ATOM     12  S   LIG    1       -1.606  -4.814  -3.885  0.00  0.00    +2.680 S 
ATOM     13  O   LIG    1       -1.691  -5.741  -2.812  0.00  0.00    -0.980 OA
ATOM     14  O   LIG    1       -0.630  -4.903  -4.915  0.00  0.00    -0.940 OA
BRANCH  12  15
ATOM     15  C   LIG    1       -3.176  -4.833  -4.685  0.00  0.00    -0.660 A 
ATOM     16  C   LIG    1       -3.287  -4.440  -6.006  0.00  0.00    +0.170 A 
ATOM     17  C   LIG    1       -4.513  -4.456  -6.638  0.00  0.00    -0.020 A 
ATOM     18  C   LIG    1       -5.652  -4.867  -5.949  0.00  0.00    +0.170 A 
ATOM     19  O   LIG    1       -6.940  -4.969  -6.375  0.00  0.00    -0.290 OA
ATOM     20  C   LIG    1       -7.815  -5.014  -5.235  0.00  0.00    +0.250 C 
ATOM     21  C   LIG    1       -6.916  -5.632  -4.138  0.00  0.00    +0.090 C 
ATOM     22  C   LIG    1       -5.528  -5.255  -4.621  0.00  0.00    -0.200 A 
ATOM     23  C   LIG    1       -4.302  -5.247  -3.995  0.00  0.00    +0.170 A 
ENDBRANCH  12  15
ENDBRANCH   8  12
BRANCH   1  24
ATOM     24  C   LIG    1        0.184  -2.930   2.300  0.00  0.00    +0.150 C 
BRANCH  24  25
ATOM     25  N   LIG    1       -0.562  -2.166   3.309  0.00  0.00    -0.370 N 
ATOM     26  C   LIG    1       -1.144  -3.089   4.292  0.00  0.00    +0.340 C 
ATOM     27  C   LIG    1       -1.636  -1.408   2.654  0.00  0.00    +0.320 C 
ATOM     28  H   LIG    1        0.063  -1.527   3.776  0.00  0.00    +0.430 HD
ENDBRANCH  24  25
BRANCH  24  30
ATOM     29  C   LIG    1        2.243  -2.837   3.712  0.00  0.00    +0.040 C 
ATOM     30  C   LIG    1        1.264  -3.765   2.989  0.00  0.00    +0.080 C 
ENDBRANCH  24  30
ENDBRANCH   1  24
TORSDOF 5
