REMARK  Name = ZINCrg00000SjSGv.0
REMARK                            x       y       z     vdW  Elec       q    Type
REMARK                         _______ _______ _______ _____ _____    ______ ____
ROOT
ATOM      1  N   LIG    1        0.448  -0.340  -1.392  0.00  0.00    -0.440 N 
ATOM      2  C   LIG    1        1.214  -0.296  -0.139  0.00  0.00    +0.190 C 
ATOM      3  C   LIG    1        1.476   1.163   0.243  0.00  0.00    +0.240 C 
ATOM      4  O   LIG    1        0.229   1.855   0.347  0.00  0.00    -0.370 OA
ATOM      5  C   LIG    1       -0.544   1.832  -0.856  0.00  0.00    +0.250 C 
ATOM      6  C   LIG    1       -0.826   0.380  -1.248  0.00  0.00    +0.120 C 
ENDROOT
BRANCH   1  10
ATOM      7  C   LIG    1        0.358  -3.486  -3.068  0.00  0.00    +0.270 A 
ATOM      8  N   LIG    1       -0.385  -4.054  -2.164  0.00  0.00    -0.420 NA
ATOM      9  S   LIG    1       -0.670  -2.864  -0.986  0.00  0.00    +0.170 S 
ATOM     10  C   LIG    1        0.237  -1.645  -1.799  0.00  0.00    +0.270 A 
ATOM     11  N   LIG    1        0.690  -2.228  -2.888  0.00  0.00    -0.480 NA
BRANCH   7  12
ATOM     12  C   LIG    1        0.824  -4.246  -4.283  0.00  0.00    +0.280 C 
ATOM     13  C   LIG    1        1.946  -5.207  -3.884  0.00  0.00    +0.040 C 
BRANCH  12  15
ATOM     14  C   LIG    1       -0.194  -5.181  -6.242  0.00  0.00    +0.220 C 
ATOM     15  O   LIG    1       -0.268  -4.989  -4.827  0.00  0.00    -0.370 OA
ENDBRANCH  12  15
ENDBRANCH   7  12
ENDBRANCH   1  10
BRANCH   6  16
ATOM     16  C   LIG    1       -1.584   0.347  -2.577  0.00  0.00    +0.290 C 
BRANCH  16  17
ATOM     17  N   LIG    1       -2.901   0.964  -2.404  0.00  0.00    -0.720 N 
ATOM     18  H   LIG    1       -3.139   1.369  -1.555  0.00  0.00    +0.410 HD
ATOM     19  C   LIG    1       -3.783   0.968  -3.423  0.00  0.00    +0.610 C 
ATOM     20  O   LIG    1       -3.522   0.381  -4.455  0.00  0.00    -0.540 OA
BRANCH  19  21
ATOM     21  C   LIG    1       -5.064   1.683  -3.286  0.00  0.00    -0.060 A 
ATOM     22  C   LIG    1       -6.000   1.852  -4.262  0.00  0.00    +0.250 A 
ATOM     23  N   LIG    1       -7.019   2.563  -3.713  0.00  0.00    -0.480 N 
ATOM     24  C   LIG    1       -8.332   3.134  -4.050  0.00  0.00    +0.300 C 
ATOM     25  C   LIG    1       -8.630   4.168  -2.944  0.00  0.00    +0.070 C 
ATOM     26  C   LIG    1       -7.800   3.619  -1.762  0.00  0.00    +0.160 C 
ATOM     27  C   LIG    1       -6.693   2.820  -2.421  0.00  0.00    +0.190 A 
ATOM     28  N   LIG    1       -5.528   2.288  -2.165  0.00  0.00    -0.450 NA
ENDBRANCH  19  21
ENDBRANCH  16  17
ENDBRANCH   6  16
TORSDOF 6
