REMARK  Name = ZINCkj000005jmmI.1
REMARK                            x       y       z     vdW  Elec       q    Type
REMARK                         _______ _______ _______ _____ _____    ______ ____
ROOT
ATOM      1  S   LIG    1       -1.389  -0.800   2.164  0.00  0.00    +2.780 S 
ATOM      2  O   LIG    1       -2.474  -0.091   1.581  0.00  0.00    -0.960 OA
ATOM      3  O   LIG    1       -0.984  -0.626   3.515  0.00  0.00    -0.960 OA
ENDROOT
BRANCH   1  12
ATOM      4  C   LIG    1       -2.979  -1.717  -0.012  0.00  0.00    +0.080 C 
ATOM      5  C   LIG    1       -2.443  -2.902   0.793  0.00  0.00    +0.230 C 
ATOM      6  C   LIG    1       -3.607  -3.780   1.249  0.00  0.00    +0.270 C 
ATOM      7  N   LIG    1       -3.106  -4.837   2.136  0.00  0.00    -0.500 N 
ATOM      8  C   LIG    1       -2.555  -4.243   3.361  0.00  0.00    +0.270 C 
ATOM      9  C   LIG    1       -1.334  -3.388   3.007  0.00  0.00    +0.330 C 
ATOM     10  H   LIG    1       -3.865  -5.458   2.377  0.00  0.00    +0.440 HD
ATOM     11  H   LIG    1       -2.384  -5.359   1.663  0.00  0.00    +0.430 HD
ATOM     12  N   LIG    1       -1.730  -2.410   1.982  0.00  0.00    -1.020 NA
ENDBRANCH   1  12
BRANCH   1  13
ATOM     13  N   LIG    1       -0.060  -0.471   1.232  0.00  0.00    -1.000 NA
ATOM     14  C   LIG    1        1.278  -0.819   1.716  0.00  0.00    +0.310 C 
BRANCH  13  15
ATOM     15  C   LIG    1       -0.223   0.167  -0.076  0.00  0.00    +0.350 C 
BRANCH  15  16
ATOM     16  C   LIG    1        0.385   1.545  -0.042  0.00  0.00    -0.110 A 
ATOM     17  C   LIG    1       -0.388   2.632   0.320  0.00  0.00    +0.050 A 
ATOM     18  C   LIG    1        0.171   3.896   0.356  0.00  0.00    +0.030 A 
ATOM     19  C   LIG    1        1.500   4.074   0.019  0.00  0.00    -0.030 A 
ATOM     20  C   LIG    1        2.272   2.987  -0.349  0.00  0.00    +0.030 A 
ATOM     21 CL   LIG    1        2.201   5.663   0.056  0.00  0.00    -0.060 Cl
ATOM     22  C   LIG    1        1.714   1.722  -0.379  0.00  0.00    +0.040 A 
ENDBRANCH  15  16
ENDBRANCH  13  15
ENDBRANCH   1  13
TORSDOF 4
