REMARK  Name = ZINCrD00000lEL0L.0
REMARK                            x       y       z     vdW  Elec       q    Type
REMARK                         _______ _______ _______ _____ _____    ______ ____
ROOT
ATOM      1  C   LIG    1        7.350   1.426  -0.056  0.00  0.00    +0.290 C 
ENDROOT
BRANCH   1   2
ATOM      2  N   LIG    1        6.034   2.069  -0.041  0.00  0.00    -0.730 N 
ATOM      3  H   LIG    1        5.966   3.037  -0.036  0.00  0.00    +0.400 HD
ATOM      4  C   LIG    1        4.916   1.316  -0.035  0.00  0.00    +0.560 C 
ATOM      5  O   LIG    1        5.000   0.103  -0.042  0.00  0.00    -0.530 OA
BRANCH   4   6
ATOM      6  C   LIG    1        3.587   1.965  -0.020  0.00  0.00    -0.120 A 
ATOM      7  C   LIG    1        2.442   1.185  -0.014  0.00  0.00    +0.110 A 
ATOM      8  C   LIG    1        1.188   1.810   0.000  0.00  0.00    -0.030 A 
ATOM      9  C   LIG    1       -0.013   1.076   0.008  0.00  0.00    +0.000 A 
ATOM     10  C   LIG    1       -1.194   1.755   0.017  0.00  0.00    +0.240 A 
ATOM     11  N   LIG    1       -1.239   3.079   0.029  0.00  0.00    -0.480 NA
ATOM     12  C   LIG    1       -0.161   3.828   0.023  0.00  0.00    +0.310 A 
ATOM     13  C   LIG    1        1.109   3.227   0.008  0.00  0.00    -0.100 A 
ATOM     14  C   LIG    1        2.289   3.990   0.002  0.00  0.00    +0.060 A 
ATOM     15  C   LIG    1        3.496   3.368  -0.012  0.00  0.00    +0.030 A 
ENDBRANCH   4   6
ENDBRANCH   1   2
BRANCH   1  16
ATOM     16  C   LIG    1        8.441   2.499  -0.060  0.00  0.00    +0.170 C 
ATOM     17  C   LIG    1        8.288   3.377  -1.304  0.00  0.00    +0.050 C 
BRANCH  16  18
ATOM     18  N   LIG    1        8.316   3.328   1.141  0.00  0.00    -0.720 N 
ATOM     19  H   LIG    1        7.613   3.146   1.785  0.00  0.00    +0.400 HD
ATOM     20  C   LIG    1        9.176   4.343   1.352  0.00  0.00    +0.600 C 
ATOM     21  O   LIG    1       10.057   4.572   0.544  0.00  0.00    -0.510 OA
BRANCH  20  22
ATOM     22  C   LIG    1        9.051   5.176   2.558  0.00  0.00    -0.280 A 
ATOM     23  C   LIG    1        9.839   6.247   2.940  0.00  0.00    +0.080 A 
ATOM     24  C   LIG    1        9.412   6.780   4.134  0.00  0.00    +0.090 A 
ATOM     25  N   LIG    1        8.391   6.232   4.713  0.00  0.00    -0.510 NA
ATOM     26  C   LIG    1       10.114   7.962   4.752  0.00  0.00    +0.150 C 
ATOM     27  S   LIG    1        7.860   5.034   3.861  0.00  0.00    +0.410 S 
ENDBRANCH  20  22
ENDBRANCH  16  18
BRANCH  16  29
ATOM     28  C   LIG    1        9.969   0.949   1.168  0.00  0.00    +0.010 C 
ATOM     29  C   LIG    1        9.816   1.827  -0.075  0.00  0.00    +0.030 C 
ENDBRANCH  16  29
ENDBRANCH   1  16
TORSDOF 6
