REMARK  Name = ZINCrD00000F5LiP.0
REMARK                            x       y       z     vdW  Elec       q    Type
REMARK                         _______ _______ _______ _____ _____    ______ ____
ROOT
ATOM      1  N   LIG    1       -3.038   4.291  -0.983  0.00  0.00    -0.590 N 
ATOM      2  H   LIG    1       -2.870   3.355  -1.176  0.00  0.00    +0.430 HD
ENDROOT
BRANCH   1  10
ATOM      3  N   LIG    1        1.651   5.174  -1.376  0.00  0.00    -0.510 N 
ATOM      4  C   LIG    1        0.420   5.662  -1.121  0.00  0.00    +0.580 C 
ATOM      5  C   LIG    1       -0.715   4.721  -1.110  0.00  0.00    -0.420 C 
ATOM      6  C   LIG    1       -0.414   3.305  -1.386  0.00  0.00    +0.570 C 
ATOM      7  N   LIG    1        0.868   2.959  -1.620  0.00  0.00    -0.610 N 
ATOM      8  H   LIG    1        1.083   2.031  -1.800  0.00  0.00    +0.450 HD
ATOM      9  O   LIG    1       -1.299   2.470  -1.399  0.00  0.00    -0.510 OA
ATOM     10  C   LIG    1       -2.005   5.149  -0.855  0.00  0.00    +0.520 C 
ATOM     11  O   LIG    1        0.250   6.848  -0.906  0.00  0.00    -0.490 OA
ATOM     12  C   LIG    1        1.852   3.870  -1.615  0.00  0.00    +0.540 C 
ATOM     13  S   LIG    1        3.449   3.341  -1.929  0.00  0.00    -0.520 S 
BRANCH   3  14
ATOM     14  C   LIG    1        2.795   6.089  -1.392  0.00  0.00    +0.320 C 
BRANCH  14  16
ATOM     15  C   LIG    1        4.186   7.591  -2.824  0.00  0.00    +0.030 C 
ATOM     16  C   LIG    1        2.991   6.635  -2.808  0.00  0.00    +0.010 C 
ENDBRANCH  14  16
ENDBRANCH   3  14
ENDBRANCH   1  10
BRANCH   1  17
ATOM     17  C   LIG    1       -4.351   4.750  -0.838  0.00  0.00    +0.090 A 
ATOM     18  C   LIG    1       -4.592   6.089  -0.556  0.00  0.00    +0.020 A 
ATOM     19  C   LIG    1       -5.888   6.544  -0.419  0.00  0.00    +0.020 A 
ATOM     20  C   LIG    1       -6.951   5.660  -0.551  0.00  0.00    +0.170 A 
ATOM     21  C   LIG    1       -6.711   4.320  -0.827  0.00  0.00    +0.010 A 
ATOM     22  C   LIG    1       -5.415   3.866  -0.970  0.00  0.00    +0.040 A 
BRANCH  20  23
ATOM     23  N   LIG    1       -8.264   6.119  -0.406  0.00  0.00    -0.690 N 
ATOM     24  H   LIG    1       -8.965   5.774  -0.982  0.00  0.00    +0.410 HD
BRANCH  23  25
ATOM     25  C   LIG    1       -8.567   7.074   0.567  0.00  0.00    +0.180 A 
ATOM     26  C   LIG    1       -7.750   7.215   1.682  0.00  0.00    -0.050 A 
ATOM     27  C   LIG    1       -8.050   8.163   2.640  0.00  0.00    +0.040 A 
ATOM     28  C   LIG    1       -9.167   8.966   2.496  0.00  0.00    -0.040 A 
ATOM     29  C   LIG    1       -9.985   8.825   1.389  0.00  0.00    +0.050 A 
ATOM     30  C   LIG    1       -9.689   7.882   0.425  0.00  0.00    -0.050 A 
ENDBRANCH  23  25
ENDBRANCH  20  23
ENDBRANCH   1  17
TORSDOF 6
