REMARK  Name = ZINCqH0000032OMy.0
REMARK                            x       y       z     vdW  Elec       q    Type
REMARK                         _______ _______ _______ _____ _____    ______ ____
ROOT
ATOM      1  C   LIG    1       -0.019   1.526   0.010  0.00  0.00    -0.010 C 
ATOM      2  C   LIG    1        1.416   2.058  -0.000  0.00  0.00    +0.040 C 
ATOM      3  C   LIG    1        2.129   1.573  -1.265  0.00  0.00    +0.060 C 
ATOM      4  C   LIG    1        2.134   0.048  -1.295  0.00  0.00    +0.130 C 
ATOM      5  N   LIG    1        2.914  -0.485  -0.171  0.00  0.00    -0.720 N 
ATOM      6  H   LIG    1        2.732  -0.359   0.774  0.00  0.00    +0.440 HD
ATOM      7  C   LIG    1        3.931  -1.183  -0.710  0.00  0.00    +0.700 C 
ATOM      8  N   LIG    1        3.907  -1.168  -2.049  0.00  0.00    -0.570 N 
ATOM      9  O   LIG    1        4.776  -1.762  -0.056  0.00  0.00    -0.530 OA
ATOM     10  C   LIG    1        0.710  -0.497  -1.263  0.00  0.00    +0.050 C 
ATOM     11  C   LIG    1        2.864  -0.454  -2.519  0.00  0.00    +0.530 C 
ATOM     12  O   LIG    1        2.573  -0.256  -3.679  0.00  0.00    -0.460 OA
ATOM     13  C   LIG    1        0.002  -0.004   0.002  0.00  0.00    +0.040 C 
ENDROOT
BRANCH   1  15
ATOM     14  C   LIG    1       -0.867   3.542   1.218  0.00  0.00    +0.000 C 
ATOM     15  C   LIG    1       -0.736   2.019   1.269  0.00  0.00    +0.000 C 
ENDBRANCH   1  15
BRANCH   8  16
ATOM     16  C   LIG    1        4.891  -1.845  -2.897  0.00  0.00    +0.440 C 
BRANCH  16  17
ATOM     17  C   LIG    1        4.425  -3.248  -3.187  0.00  0.00    -0.010 A 
ATOM     18  N   LIG    1        4.612  -4.300  -2.441  0.00  0.00    -0.330 NA
ATOM     19  O   LIG    1        4.121  -5.292  -2.927  0.00  0.00    +0.120 OA
ATOM     20  C   LIG    1        3.531  -5.021  -4.106  0.00  0.00    +0.010 A 
ATOM     21  C   LIG    1        3.707  -3.681  -4.320  0.00  0.00    -0.020 A 
BRANCH  20  22
ATOM     22  C   LIG    1        2.835  -5.979  -4.991  0.00  0.00    -0.030 A 
ATOM     23  C   LIG    1        2.267  -5.540  -6.188  0.00  0.00    +0.040 A 
ATOM     24  C   LIG    1        1.623  -6.440  -7.013  0.00  0.00    +0.010 A 
ATOM     25  C   LIG    1        1.531  -7.772  -6.650  0.00  0.00    +0.030 A 
ATOM     26  C   LIG    1        2.088  -8.212  -5.462  0.00  0.00    +0.010 A 
ATOM     27  C   LIG    1        2.739  -7.324  -4.631  0.00  0.00    +0.040 A 
ENDBRANCH  20  22
ENDBRANCH  16  17
ENDBRANCH   8  16
TORSDOF 4
