REMARK  Name = ZINCvU0000000Gcq.1
REMARK                            x       y       z     vdW  Elec       q    Type
REMARK                         _______ _______ _______ _____ _____    ______ ____
ROOT
ATOM      1  C   LIG    1       -1.422   2.581  -3.426  0.00  0.00    -0.150 A 
ATOM      2  C   LIG    1       -0.693   2.542  -2.236  0.00  0.00    +0.200 A 
ATOM      3  C   LIG    1       -0.959   1.566  -1.299  0.00  0.00    -0.680 A 
ATOM      4  C   LIG    1       -1.943   0.621  -1.539  0.00  0.00    +0.090 A 
ATOM      5  C   LIG    1       -2.674   0.656  -2.714  0.00  0.00    +0.040 A 
ATOM      6 CL   LIG    1       -2.266  -0.610  -0.357  0.00  0.00    -0.010 Cl
ATOM      7  C   LIG    1       -2.418   1.628  -3.660  0.00  0.00    +0.080 A 
ATOM      8 CL   LIG    1       -3.329   1.667  -5.137  0.00  0.00    +0.010 Cl
ENDROOT
BRANCH   1  10
ATOM      9  O   LIG    1       -1.779   3.655  -5.469  0.00  0.00    -0.480 OA
ATOM     10  C   LIG    1       -1.142   3.624  -4.433  0.00  0.00    +0.560 C 
ATOM     11  N   LIG    1       -0.182   4.541  -4.204  0.00  0.00    -0.670 N 
ATOM     12  H   LIG    1        0.376   4.472  -3.414  0.00  0.00    +0.410 HD
BRANCH  11  13
ATOM     13  C   LIG    1        0.010   5.593  -5.106  0.00  0.00    +0.140 A 
ATOM     14  C   LIG    1       -1.073   6.131  -5.790  0.00  0.00    +0.020 A 
ATOM     15  C   LIG    1       -0.878   7.169  -6.678  0.00  0.00    +0.040 A 
ATOM     16  C   LIG    1        0.393   7.677  -6.891  0.00  0.00    -0.110 A 
ATOM     17  C   LIG    1        0.861   8.794  -7.799  0.00  0.00    +0.080 C 
ATOM     18  C   LIG    1        2.263   9.177  -7.279  0.00  0.00    +0.030 C 
ATOM     19  C   LIG    1        2.740   7.866  -6.618  0.00  0.00    +0.080 C 
ATOM     20  C   LIG    1        1.474   7.143  -6.212  0.00  0.00    -0.080 A 
ATOM     21  C   LIG    1        1.282   6.107  -5.316  0.00  0.00    +0.000 A 
ENDBRANCH  11  13
ENDBRANCH   1  10
BRANCH   3  22
ATOM     22  S   LIG    1       -0.040   1.516   0.203  0.00  0.00    +2.690 S 
ATOM     23  O   LIG    1        0.850   2.623   0.166  0.00  0.00    -0.940 OA
ATOM     24  O   LIG    1        0.396   0.173   0.362  0.00  0.00    -0.920 OA
BRANCH  22  25
ATOM     25  N   LIG    1       -1.103   1.812   1.438  0.00  0.00    -1.050 N 
ATOM     26  H   LIG    1       -1.250   1.140   2.123  0.00  0.00    +0.430 HD
BRANCH  25  27
ATOM     27  C   LIG    1       -1.787   3.029   1.495  0.00  0.00    +0.130 A 
ATOM     28  C   LIG    1       -1.104   4.221   1.295  0.00  0.00    +0.050 A 
ATOM     29  C   LIG    1       -1.783   5.423   1.346  0.00  0.00    +0.020 A 
ATOM     30  C   LIG    1       -3.143   5.440   1.608  0.00  0.00    +0.100 A 
ATOM     31  C   LIG    1       -3.825   4.253   1.813  0.00  0.00    +0.000 A 
ATOM     32  F   LIG    1       -3.804   6.617   1.663  0.00  0.00    -0.130 F 
ATOM     33  C   LIG    1       -3.151   3.049   1.758  0.00  0.00    +0.040 A 
ENDBRANCH  25  27
ENDBRANCH  22  25
ENDBRANCH   3  22
TORSDOF 5
