REMARK  Name = ZINCrH000004nZ6S.0
REMARK                            x       y       z     vdW  Elec       q    Type
REMARK                         _______ _______ _______ _____ _____    ______ ____
ROOT
ATOM      1  N   LIG    1       -0.084  -6.140  -0.029  0.00  0.00    -0.670 N 
ATOM      2  H   LIG    1       -1.012  -6.411   0.046  0.00  0.00    +0.420 HD
ATOM      3  C   LIG    1        0.883  -7.072  -0.144  0.00  0.00    +0.500 C 
ATOM      4  O   LIG    1        2.049  -6.739  -0.153  0.00  0.00    -0.500 OA
ENDROOT
BRANCH   1  10
ATOM      5  C   LIG    1        2.516  -0.630   0.707  0.00  0.00    +0.080 A 
ATOM      6  N   LIG    1        1.390  -0.805   0.104  0.00  0.00    -0.470 NA
ATOM      7  C   LIG    1        0.918  -2.065   0.003  0.00  0.00    +0.080 A 
ATOM      8  C   LIG    1       -0.275  -2.513  -0.602  0.00  0.00    +0.090 A 
ATOM      9  C   LIG    1       -0.595  -3.847  -0.608  0.00  0.00    +0.020 A 
ATOM     10  C   LIG    1        0.252  -4.780  -0.017  0.00  0.00    +0.160 A 
ATOM     11  C   LIG    1        1.427  -4.361   0.582  0.00  0.00    +0.080 A 
ATOM     12  C   LIG    1        1.762  -3.010   0.594  0.00  0.00    -0.160 A 
ATOM     13  S   LIG    1        3.162  -2.170   1.256  0.00  0.00    +0.120 S 
BRANCH   5  15
ATOM     14  C   LIG    1        2.094   2.012   0.132  0.00  0.00    +0.150 C 
ATOM     15  S   LIG    1        3.300   0.930   0.941  0.00  0.00    +0.000 S 
ENDBRANCH   5  15
ENDBRANCH   1  10
BRANCH   3  16
ATOM     16  C   LIG    1        0.515  -8.529  -0.261  0.00  0.00    +0.340 C 
BRANCH  16  17
ATOM     17  N   LIG    1        1.734  -9.333  -0.373  0.00  0.00    -0.530 N 
ATOM     18  C   LIG    1        2.264  -9.611  -1.584  0.00  0.00    +0.500 C 
ATOM     19  C   LIG    1        3.500 -10.468  -1.682  0.00  0.00    +0.230 C 
ATOM     20  O   LIG    1        4.312 -10.279  -0.520  0.00  0.00    -0.300 OA
ATOM     21  C   LIG    1        3.675 -10.305   0.682  0.00  0.00    +0.090 A 
ATOM     22  C   LIG    1        4.311 -10.798   1.807  0.00  0.00    +0.030 A 
ATOM     23  C   LIG    1        3.647 -10.819   3.021  0.00  0.00    +0.030 A 
ATOM     24  C   LIG    1        2.350 -10.349   3.113  0.00  0.00    +0.020 A 
ATOM     25  C   LIG    1        1.708  -9.854   1.992  0.00  0.00    +0.000 A 
ATOM     26  C   LIG    1        3.088 -11.938  -1.781  0.00  0.00    +0.060 C 
ATOM     27  O   LIG    1        1.748  -9.170  -2.590  0.00  0.00    -0.500 OA
ATOM     28  C   LIG    1        2.367  -9.831   0.775  0.00  0.00    +0.100 A 
ENDBRANCH  16  17
ENDBRANCH   3  16
TORSDOF 4
