REMARK  Name = ZINCtj00001UqOCx.0
REMARK                            x       y       z     vdW  Elec       q    Type
REMARK                         _______ _______ _______ _____ _____    ______ ____
ROOT
ATOM      1  C   LIG    1       -1.096   4.134  -1.024  0.00  0.00    +0.580 C 
ATOM      2  N   LIG    1       -1.411   2.832  -1.173  0.00  0.00    -0.600 N 
ATOM      3  C   LIG    1       -2.245   2.268  -2.249  0.00  0.00    +0.260 C 
ATOM      4  C   LIG    1       -1.809   0.785  -2.354  0.00  0.00    +0.050 C 
ATOM      5  C   LIG    1       -1.556   0.427  -0.862  0.00  0.00    +0.060 C 
ATOM      6  C   LIG    1       -0.979   1.739  -0.289  0.00  0.00    +0.160 C 
ATOM      7  O   LIG    1       -0.489   4.503  -0.037  0.00  0.00    -0.460 OA
ENDROOT
BRANCH   6   8
ATOM      8  C   LIG    1        0.526   1.667  -0.261  0.00  0.00    +0.550 C 
ATOM      9  N   LIG    1        1.141   0.672   0.409  0.00  0.00    -0.620 N 
ATOM     10  C   LIG    1        0.475  -0.336   1.246  0.00  0.00    +0.270 C 
ATOM     11  C   LIG    1        1.575  -1.249   1.827  0.00  0.00    +0.070 C 
ATOM     12  C   LIG    1        2.842  -0.356   1.748  0.00  0.00    +0.160 C 
ATOM     13  C   LIG    1        2.593   0.419   0.430  0.00  0.00    +0.280 C 
ATOM     14  O   LIG    1        1.184   2.507  -0.838  0.00  0.00    -0.490 OA
BRANCH  12  15
ATOM     15  N   LIG    1        4.058  -1.175   1.655  0.00  0.00    -0.380 N 
ATOM     16  C   LIG    1        4.261  -1.895   2.919  0.00  0.00    +0.320 C 
ATOM     17  C   LIG    1        5.214  -0.307   1.394  0.00  0.00    +0.330 C 
ATOM     18  H   LIG    1        3.959  -1.840   0.902  0.00  0.00    +0.430 HD
ENDBRANCH  12  15
ENDBRANCH   6   8
BRANCH   1  22
ATOM     19  C   LIG    1       -2.226   6.947  -4.000  0.00  0.00    -0.010 A 
ATOM     20  C   LIG    1       -2.917   5.753  -3.878  0.00  0.00    -0.040 A 
ATOM     21  C   LIG    1       -2.555   4.836  -2.915  0.00  0.00    +0.080 A 
ATOM     22  C   LIG    1       -1.488   5.111  -2.057  0.00  0.00    -0.170 A 
ATOM     23  C   LIG    1       -0.795   6.323  -2.180  0.00  0.00    +0.190 A 
ATOM     24  C   LIG    1       -1.169   7.232  -3.159  0.00  0.00    -0.090 A 
BRANCH  19  26
ATOM     25  C   LIG    1       -3.677   8.899  -4.484  0.00  0.00    +0.030 C 
ATOM     26  C   LIG    1       -2.630   7.942  -5.058  0.00  0.00    +0.070 C 
ENDBRANCH  19  26
BRANCH  23  27
ATOM     27  O   LIG    1        0.240   6.604  -1.349  0.00  0.00    -0.290 OA
ATOM     28  C   LIG    1        0.898   7.859  -1.534  0.00  0.00    +0.240 C 
ENDBRANCH  23  27
ENDBRANCH   1  22
BRANCH   6  29
ATOM     29  C   LIG    1       -1.515   1.971   1.125  0.00  0.00    +0.180 C 
BRANCH  29  30
ATOM     30  O   LIG    1       -0.901   3.134   1.683  0.00  0.00    -0.530 OA
ATOM     31  H   LIG    1       -1.194   3.342   2.580  0.00  0.00    +0.370 HD
ENDBRANCH  29  30
ENDBRANCH   6  29
TORSDOF 7
