REMARK  Name = ZINCqH0000002pwU.0
REMARK                            x       y       z     vdW  Elec       q    Type
REMARK                         _______ _______ _______ _____ _____    ______ ____
ROOT
ATOM      1  C   LIG    1       -2.400   1.437   0.136  0.00  0.00    +0.230 C 
ENDROOT
BRANCH   1   3
ATOM      2  N   LIG    1       -1.238  -0.721  -0.195  0.00  0.00    -0.570 N 
ATOM      3  C   LIG    1       -2.373  -0.070   0.127  0.00  0.00    +0.520 C 
ATOM      4  O   LIG    1       -3.372  -0.696   0.410  0.00  0.00    -0.500 OA
BRANCH   2   5
ATOM      5  C   LIG    1       -0.061  -0.002  -0.431  0.00  0.00    +0.120 A 
ATOM      6  C   LIG    1        0.553   0.687   0.606  0.00  0.00    +0.000 A 
ATOM      7  C   LIG    1        1.715   1.395   0.370  0.00  0.00    +0.030 A 
ATOM      8  C   LIG    1        2.267   1.419  -0.898  0.00  0.00    +0.010 A 
ATOM      9  C   LIG    1        1.657   0.735  -1.933  0.00  0.00    +0.030 A 
ATOM     10  C   LIG    1        0.495   0.024  -1.704  0.00  0.00    +0.010 A 
ENDBRANCH   2   5
BRANCH   2  11
ATOM     11  C   LIG    1       -1.236  -2.183  -0.298  0.00  0.00    +0.290 C 
BRANCH  11  12
ATOM     12  C   LIG    1       -0.895  -2.789   1.064  0.00  0.00    -0.010 C 
BRANCH  12  14
ATOM     13  C   LIG    1       -0.553  -4.923   2.319  0.00  0.00    +0.010 C 
ATOM     14  C   LIG    1       -0.894  -4.316   0.956  0.00  0.00    +0.010 C 
ENDBRANCH  12  14
ENDBRANCH  11  12
ENDBRANCH   2  11
ENDBRANCH   1   3
BRANCH   1  15
ATOM     15  O   LIG    1       -3.733   1.888   0.385  0.00  0.00    -0.290 OA
BRANCH  15  16
ATOM     16  C   LIG    1       -3.932   3.232   0.425  0.00  0.00    +0.110 A 
ATOM     17  C   LIG    1       -2.866   4.098   0.229  0.00  0.00    -0.050 A 
ATOM     18  C   LIG    1       -3.068   5.463   0.269  0.00  0.00    +0.020 A 
ATOM     19  C   LIG    1       -4.338   5.970   0.507  0.00  0.00    +0.120 A 
ATOM     20  N   LIG    1       -4.547   7.354   0.548  0.00  0.00    -0.660 N 
ATOM     21  H   LIG    1       -3.892   7.952   0.155  0.00  0.00    +0.410 HD
ATOM     22  C   LIG    1       -5.650   7.860   1.129  0.00  0.00    +0.520 C 
ATOM     23  C   LIG    1       -6.671   6.954   1.762  0.00  0.00    +0.080 C 
ATOM     24  C   LIG    1       -6.782   5.656   0.962  0.00  0.00    +0.110 C 
ATOM     25  O   LIG    1       -5.823   9.061   1.143  0.00  0.00    -0.530 OA
ATOM     26  C   LIG    1       -5.405   5.103   0.704  0.00  0.00    -0.080 A 
ATOM     27  C   LIG    1       -5.203   3.738   0.658  0.00  0.00    +0.030 A 
ENDBRANCH  15  16
ENDBRANCH   1  15
TORSDOF 7
