REMARK  Name = ZINCrg00001Jdv0O.0
REMARK                            x       y       z     vdW  Elec       q    Type
REMARK                         _______ _______ _______ _____ _____    ______ ____
ROOT
ATOM      1  C   LIG    1        5.979   3.352  -0.035  0.00  0.00    +0.520 C 
ATOM      2  N   LIG    1        4.800   4.005  -0.021  0.00  0.00    -0.520 N 
ATOM      3  H   LIG    1        4.783   4.975  -0.016  0.00  0.00    +0.440 HD
ATOM      4  O   LIG    1        6.000   2.139  -0.041  0.00  0.00    -0.510 OA
ENDROOT
BRANCH   2   5
ATOM      5  N   LIG    1        3.599   3.284  -0.014  0.00  0.00    -0.510 N 
ATOM      6  H   LIG    1        3.616   2.314  -0.019  0.00  0.00    +0.430 HD
ATOM      7  C   LIG    1        2.420   3.937   0.000  0.00  0.00    +0.570 C 
ATOM      8  O   LIG    1        2.399   5.152   0.006  0.00  0.00    -0.520 OA
BRANCH   7   9
ATOM      9  C   LIG    1        1.153   3.176   0.008  0.00  0.00    -0.130 A 
ATOM     10  C   LIG    1        1.174   1.780   0.000  0.00  0.00    +0.110 A 
ATOM     11  C   LIG    1       -0.013   1.076   0.008  0.00  0.00    +0.040 A 
ATOM     12  C   LIG    1       -1.221   1.750   0.017  0.00  0.00    +0.130 A 
ATOM     13  C   LIG    1       -1.248   3.133   0.030  0.00  0.00    -0.050 A 
ATOM     14  C   LIG    1       -0.070   3.849   0.022  0.00  0.00    +0.180 A 
BRANCH  13  15
ATOM     15  N   LIG    1       -2.546   3.846   0.046  0.00  0.00    +0.020 N 
ATOM     16  O   LIG    1       -3.587   3.215   0.052  0.00  0.00    -0.150 OA
ATOM     17  O   LIG    1       -2.571   5.064   0.052  0.00  0.00    -0.150 OA
ENDBRANCH  13  15
ENDBRANCH   7   9
ENDBRANCH   2   5
BRANCH   1  18
ATOM     18  C   LIG    1        7.270   4.128  -0.042  0.00  0.00    +0.300 C 
BRANCH  18  19
ATOM     19  O   LIG    1        8.390   3.204  -0.057  0.00  0.00    -0.330 OA
BRANCH  19  20
ATOM     20  C   LIG    1        9.626   3.740  -0.066  0.00  0.00    +0.510 C 
ATOM     21  O   LIG    1        9.764   4.947  -0.061  0.00  0.00    -0.490 OA
BRANCH  20  25
ATOM     22  C   LIG    1       13.044   1.208  -0.108  0.00  0.00    -0.150 A 
ATOM     23  C   LIG    1       13.202   2.597  -0.103  0.00  0.00    +0.070 A 
ATOM     24  C   LIG    1       12.095   3.416  -0.089  0.00  0.00    +0.080 A 
ATOM     25  C   LIG    1       10.814   2.860  -0.081  0.00  0.00    -0.100 A 
ATOM     26  C   LIG    1       10.655   1.473  -0.080  0.00  0.00    +0.080 A 
ATOM     27  C   LIG    1       11.761   0.652  -0.100  0.00  0.00    +0.060 A 
BRANCH  22  29
ATOM     28  O   LIG    1       14.090  -0.874  -0.127  0.00  0.00    -0.450 OA
ATOM     29  C   LIG    1       14.228   0.331  -0.123  0.00  0.00    +0.490 C 
ENDBRANCH  22  29
ENDBRANCH  20  25
ENDBRANCH  19  20
ENDBRANCH  18  19
ENDBRANCH   1  18
TORSDOF 8
