REMARK  Name = ZINCah0000002B7w.1
REMARK                            x       y       z     vdW  Elec       q    Type
REMARK                         _______ _______ _______ _____ _____    ______ ____
ROOT
ATOM      1  C   LIG    1        2.380   1.424  -0.013  0.00  0.00    +0.240 A 
ATOM      2  C   LIG    1        2.394   0.030  -0.020  0.00  0.00    -0.060 A 
ATOM      3  C   LIG    1        1.226  -0.677  -0.013  0.00  0.00    +0.110 A 
ATOM      4  C   LIG    1        0.002  -0.004   0.002  0.00  0.00    -0.010 A 
ATOM      5  N   LIG    1       -1.292  -0.417   0.012  0.00  0.00    -0.490 NA
ATOM      6  C   LIG    1       -2.082   0.617   0.025  0.00  0.00    +0.450 A 
ATOM      7  N   LIG    1       -1.349   1.764   0.030  0.00  0.00    -0.610 N 
ATOM      8  H   LIG    1       -1.698   2.669   0.040  0.00  0.00    +0.420 HD
ATOM      9  C   LIG    1       -0.017   1.401   0.010  0.00  0.00    +0.100 A 
ATOM     10  C   LIG    1        1.176   2.109   0.002  0.00  0.00    -0.090 A 
ENDROOT
BRANCH   1  11
ATOM     11  N   LIG    1        3.585   2.133  -0.020  0.00  0.00    -0.870 N 
ATOM     12  H   LIG    1        3.577   3.103  -0.015  0.00  0.00    +0.400 HD
ATOM     13  H   LIG    1        4.428   1.654  -0.031  0.00  0.00    +0.400 HD
ENDBRANCH   1  11
TORSDOF 1
