REMARK  Name = ZINCah0000002B7w.0
REMARK                            x       y       z     vdW  Elec       q    Type
REMARK                         _______ _______ _______ _____ _____    ______ ____
ROOT
ATOM      1  C   LIG    1        0.002  -0.004   0.002  0.00  0.00    +0.210 A 
ATOM      2  C   LIG    1        1.214  -0.692  -0.014  0.00  0.00    -0.030 A 
ATOM      3  C   LIG    1        2.407  -0.003  -0.022  0.00  0.00    +0.050 A 
ATOM      4  C   LIG    1        2.404   1.385  -0.014  0.00  0.00    -0.010 A 
ATOM      5  N   LIG    1        3.398   2.347  -0.018  0.00  0.00    -0.600 N 
ATOM      6  H   LIG    1        4.354   2.186  -0.029  0.00  0.00    +0.420 HD
ATOM      7  C   LIG    1        2.785   3.561  -0.005  0.00  0.00    +0.490 A 
ATOM      8  N   LIG    1        1.493   3.410   0.007  0.00  0.00    -0.510 NA
ATOM      9  C   LIG    1        1.187   2.087   0.002  0.00  0.00    +0.090 A 
ATOM     10  C   LIG    1       -0.017   1.378   0.010  0.00  0.00    -0.030 A 
ENDROOT
BRANCH   1  11
ATOM     11  N   LIG    1       -1.202  -0.716   0.010  0.00  0.00    -0.880 N 
ATOM     12  H   LIG    1       -1.192  -1.686   0.004  0.00  0.00    +0.400 HD
ATOM     13  H   LIG    1       -2.047  -0.240   0.020  0.00  0.00    +0.400 HD
ENDBRANCH   1  11
TORSDOF 1
