REMARK  Name = ZINCpk000000p0Qx.0
REMARK                            x       y       z     vdW  Elec       q    Type
REMARK                         _______ _______ _______ _____ _____    ______ ____
ROOT
ATOM      1  C   LIG    1       -1.707   2.508  -1.413  0.00  0.00    +0.270 C 
ENDROOT
BRANCH   1   2
ATOM      2  N   LIG    1       -0.609   3.250  -2.038  0.00  0.00    -0.710 N 
ATOM      3  H   LIG    1        0.020   3.740  -1.486  0.00  0.00    +0.400 HD
ATOM      4  C   LIG    1       -0.473   3.251  -3.378  0.00  0.00    +0.570 C 
ATOM      5  O   LIG    1       -1.261   2.636  -4.070  0.00  0.00    -0.520 OA
BRANCH   4   6
ATOM      6  C   LIG    1        0.635   3.999  -4.009  0.00  0.00    -0.100 A 
ATOM      7  C   LIG    1        1.539   4.711  -3.217  0.00  0.00    +0.000 A 
ATOM      8  C   LIG    1        2.576   5.403  -3.809  0.00  0.00    +0.060 A 
ATOM      9  C   LIG    1        2.716   5.405  -5.184  0.00  0.00    -0.040 A 
ATOM     10  C   LIG    1        1.819   4.705  -5.979  0.00  0.00    +0.120 A 
ATOM     11  C   LIG    1        0.779   4.002  -5.396  0.00  0.00    +0.060 A 
BRANCH  10  12
ATOM     12  O   LIG    1        1.962   4.711  -7.331  0.00  0.00    -0.310 OA
ATOM     13  C   LIG    1        3.057   5.457  -7.864  0.00  0.00    +0.250 C 
ENDBRANCH  10  12
ENDBRANCH   4   6
ENDBRANCH   1   2
BRANCH   1  14
ATOM     14  C   LIG    1       -2.946   3.366  -1.394  0.00  0.00    +0.460 C 
ATOM     15  O   LIG    1       -2.915   4.483  -1.854  0.00  0.00    -0.490 OA
BRANCH  14  16
ATOM     16  O   LIG    1       -4.084   2.890  -0.865  0.00  0.00    -0.350 OA
BRANCH  16  18
ATOM     17  C   LIG    1       -6.431   3.060  -0.240  0.00  0.00    +0.070 C 
ATOM     18  C   LIG    1       -5.237   3.771  -0.880  0.00  0.00    +0.200 C 
ENDBRANCH  16  18
ENDBRANCH  14  16
ENDBRANCH   1  14
BRANCH   1  19
ATOM     19  C   LIG    1       -1.322   2.136   0.020  0.00  0.00    +0.300 C 
BRANCH  19  20
ATOM     20  C   LIG    1       -0.017   1.382   0.010  0.00  0.00    -0.080 A 
ATOM     21  C   LIG    1        1.194   2.059   0.002  0.00  0.00    -0.040 A 
ATOM     22  C   LIG    1        2.370   1.334  -0.013  0.00  0.00    +0.270 A 
ATOM     23  N   LIG    1        2.350   0.015  -0.020  0.00  0.00    -0.480 NA
ATOM     24  C   LIG    1        1.218  -0.661  -0.013  0.00  0.00    +0.270 A 
ATOM     25  C   LIG    1        0.002  -0.004   0.002  0.00  0.00    -0.020 A 
ENDBRANCH  19  20
BRANCH  19  26
ATOM     26  O   LIG    1       -1.178   3.326   0.798  0.00  0.00    -0.540 OA
ATOM     27  H   LIG    1       -0.501   3.932   0.469  0.00  0.00    +0.370 HD
ENDBRANCH  19  26
ENDBRANCH   1  19
TORSDOF 9
