REMARK  Name = ZINCpe000000YtHB.0
REMARK                            x       y       z     vdW  Elec       q    Type
REMARK                         _______ _______ _______ _____ _____    ______ ____
ROOT
ATOM      1  N   LIG    1        0.605  11.674   3.136  0.00  0.00    -0.380 N 
ATOM      2  N   LIG    1        1.100  10.564   3.832  0.00  0.00    -0.240 NA
ATOM      3  C   LIG    1        0.715   9.468   3.242  0.00  0.00    +0.310 A 
ATOM      4  C   LIG    1       -0.061   9.816   2.115  0.00  0.00    -0.290 A 
ATOM      5  C   LIG    1       -0.734   9.090   1.113  0.00  0.00    +0.450 A 
ATOM      6  N   LIG    1       -1.382   9.767   0.171  0.00  0.00    -0.580 NA
ATOM      7  C   LIG    1       -1.410  11.088   0.174  0.00  0.00    +0.590 A 
ATOM      8  N   LIG    1       -0.798  11.808   1.087  0.00  0.00    -0.550 NA
ATOM      9  C   LIG    1       -0.116  11.223   2.070  0.00  0.00    +0.360 A 
ENDROOT
BRANCH   5  10
ATOM     10  N   LIG    1       -0.715   7.710   1.107  0.00  0.00    -0.470 N 
ATOM     11  C   LIG    1       -1.481   7.178  -0.029  0.00  0.00    +0.230 C 
ATOM     12  C   LIG    1       -1.502   5.649   0.045  0.00  0.00    +0.220 C 
ATOM     13  N   LIG    1       -0.123   5.141   0.029  0.00  0.00    -0.470 N 
ATOM     14  C   LIG    1        0.644   5.673   1.164  0.00  0.00    +0.220 C 
ATOM     15  C   LIG    1        0.665   7.202   1.091  0.00  0.00    +0.230 C 
BRANCH  13  16
ATOM     16  C   LIG    1       -0.104   3.752   0.022  0.00  0.00    +0.260 A 
ATOM     17  C   LIG    1        1.111   3.070   0.007  0.00  0.00    +0.210 A 
ATOM     18  N   LIG    1        1.125   1.751   0.001  0.00  0.00    -0.420 NA
ATOM     19  C   LIG    1       -0.013   1.076   0.008  0.00  0.00    +0.190 A 
ATOM     20  C   LIG    1       -1.220   1.748   0.017  0.00  0.00    +0.250 A 
ATOM     21  N   LIG    1       -1.242   3.071   0.029  0.00  0.00    -0.480 NA
ENDBRANCH  13  16
ENDBRANCH   5  10
BRANCH   1  22
ATOM     22  C   LIG    1        0.825  13.078   3.491  0.00  0.00    +0.370 C 
BRANCH  22  23
ATOM     23  C   LIG    1       -0.289  13.547   4.429  0.00  0.00    +0.200 C 
BRANCH  23  25
ATOM     24  N   LIG    1        0.102  16.047   5.062  0.00  0.00    -0.420 NA
ATOM     25  C   LIG    1       -0.069  14.958   4.786  0.00  0.00    +0.210 C 
ENDBRANCH  23  25
ENDBRANCH  22  23
ENDBRANCH   1  22
TORSDOF 5
