REMARK  Name = ZINCvU0000000BXX.0
REMARK                            x       y       z     vdW  Elec       q    Type
REMARK                         _______ _______ _______ _____ _____    ______ ____
ROOT
ATOM      1  C   LIG    1        1.210  -2.176  -0.044  0.00  0.00    +0.270 C 
ENDROOT
BRANCH   1   2
ATOM      2  C   LIG    1        1.195  -0.669  -0.040  0.00  0.00    -0.090 A 
ATOM      3  C   LIG    1       -0.010   0.009  -0.036  0.00  0.00    +0.050 A 
ATOM      4  C   LIG    1       -0.026   1.391  -0.032  0.00  0.00    +0.000 A 
ATOM      5  C   LIG    1        1.168   2.097  -0.033  0.00  0.00    +0.100 A 
ATOM      6  C   LIG    1        2.376   1.414  -0.037  0.00  0.00    -0.060 A 
ATOM      7  C   LIG    1        2.386   0.033  -0.041  0.00  0.00    +0.080 A 
BRANCH   5   8
ATOM      8  O   LIG    1        1.155   3.456  -0.030  0.00  0.00    -0.320 OA
BRANCH   8   9
ATOM      9  C   LIG    1        2.421   4.117  -0.030  0.00  0.00    +0.590 C 
ATOM     10  F   LIG    1        3.138   3.751  -1.175  0.00  0.00    -0.200 F 
ATOM     11  F   LIG    1        3.142   3.746   1.109  0.00  0.00    -0.200 F 
ENDBRANCH   8   9
ENDBRANCH   5   8
ENDBRANCH   1   2
BRANCH   1  12
ATOM     12  C   LIG    1        1.465  -2.679   1.354  0.00  0.00    -0.110 A 
ATOM     13  C   LIG    1        2.753  -2.707   1.854  0.00  0.00    +0.000 A 
ATOM     14  C   LIG    1        2.986  -3.165   3.137  0.00  0.00    +0.010 A 
ATOM     15  C   LIG    1        1.933  -3.603   3.917  0.00  0.00    +0.000 A 
ATOM     16  C   LIG    1        0.645  -3.579   3.415  0.00  0.00    +0.000 A 
ATOM     17  C   LIG    1        0.411  -3.118   2.133  0.00  0.00    +0.010 A 
ENDBRANCH   1  12
BRANCH   1  18
ATOM     18  N   LIG    1        2.274  -2.653  -0.938  0.00  0.00    -0.660 NA
ATOM     19  H   LIG    1        3.171  -2.628  -0.477  0.00  0.00    +0.350 HD
BRANCH  18  20
ATOM     20  C   LIG    1        1.976  -4.002  -1.437  0.00  0.00    +0.220 C 
BRANCH  20  23
ATOM     21  N   LIG    1        3.029  -5.673  -2.927  0.00  0.00    -0.660 N 
ATOM     22  H   LIG    1        2.314  -6.287  -2.695  0.00  0.00    +0.420 HD
ATOM     23  C   LIG    1        3.087  -4.457  -2.348  0.00  0.00    +0.510 C 
ATOM     24  O   LIG    1        4.034  -3.729  -2.561  0.00  0.00    -0.500 OA
BRANCH  21  31
ATOM     25  C   LIG    1        4.273  -7.399  -4.082  0.00  0.00    +0.100 A 
ATOM     26  C   LIG    1        5.234  -7.767  -5.009  0.00  0.00    -0.040 A 
ATOM     27  C   LIG    1        5.921  -6.797  -5.715  0.00  0.00    +0.050 A 
ATOM     28  C   LIG    1        5.652  -5.458  -5.499  0.00  0.00    -0.050 A 
ATOM     29  C   LIG    1        4.690  -5.082  -4.578  0.00  0.00    +0.080 A 
ATOM     30 CL   LIG    1        6.519  -4.245  -6.388  0.00  0.00    -0.060 Cl
ATOM     31  C   LIG    1        4.000  -6.050  -3.863  0.00  0.00    +0.140 A 
BRANCH  25  33
ATOM     32  C   LIG    1        3.927  -9.715  -3.664  0.00  0.00    +0.250 C 
ATOM     33  O   LIG    1        3.596  -8.352  -3.388  0.00  0.00    -0.320 OA
ENDBRANCH  25  33
ENDBRANCH  21  31
ENDBRANCH  20  23
ENDBRANCH  18  20
ENDBRANCH   1  18
TORSDOF 9
