REMARK  Name = ZINCrH000004tT57.0
REMARK                            x       y       z     vdW  Elec       q    Type
REMARK                         _______ _______ _______ _____ _____    ______ ____
ROOT
ATOM      1  O   LIG    1       -1.436   5.728   0.645  0.00  0.00    -0.490 OA
ATOM      2  C   LIG    1       -2.462   5.160   0.338  0.00  0.00    +0.520 C 
ATOM      3  N   LIG    1       -2.448   3.838   0.076  0.00  0.00    -0.560 N 
ATOM      4  C   LIG    1       -3.702   3.111  -0.167  0.00  0.00    +0.280 C 
ATOM      5  C   LIG    1       -3.645   1.799   0.626  0.00  0.00    +0.260 C 
ATOM      6  C   LIG    1       -2.496   0.946   0.087  0.00  0.00    +0.100 C 
ATOM      7  C   LIG    1       -1.222   1.747   0.035  0.00  0.00    -0.120 A 
ATOM      8  C   LIG    1       -0.010   1.078   0.002  0.00  0.00    +0.040 A 
ATOM      9  C   LIG    1        1.176   1.784  -0.049  0.00  0.00    -0.020 A 
ATOM     10  C   LIG    1        1.161   3.167  -0.062  0.00  0.00    +0.030 A 
ATOM     11  C   LIG    1       -0.043   3.842  -0.021  0.00  0.00    +0.020 A 
ATOM     12  C   LIG    1       -1.237   3.133   0.031  0.00  0.00    +0.150 A 
ENDROOT
BRANCH   5  13
ATOM     13  N   LIG    1       -4.909   1.075   0.469  0.00  0.00    -0.370 N 
ATOM     14  C   LIG    1       -5.228   0.247  -0.547  0.00  0.00    +0.220 A 
ATOM     15  C   LIG    1       -6.478  -0.221  -0.321  0.00  0.00    -0.120 A 
ATOM     16  C   LIG    1       -6.941   0.348   0.870  0.00  0.00    +0.240 A 
ATOM     17  N   LIG    1       -6.001   1.125   1.345  0.00  0.00    -0.290 NA
ENDBRANCH   5  13
BRANCH   2  18
ATOM     18  C   LIG    1       -3.753   5.932   0.249  0.00  0.00    +0.090 C 
BRANCH  18  19
ATOM     19  C   LIG    1       -3.478   7.417   0.494  0.00  0.00    +0.280 C 
ATOM     20  O   LIG    1       -3.030   7.610   1.841  0.00  0.00    -0.350 OA
ATOM     21  C   LIG    1       -2.963   8.983   2.236  0.00  0.00    +0.220 C 
ATOM     22  C   LIG    1       -4.381   9.541   2.393  0.00  0.00    +0.090 C 
ATOM     23  C   LIG    1       -5.173   9.173   1.145  0.00  0.00    -0.090 A 
ATOM     24  C   LIG    1       -6.369   9.767   0.765  0.00  0.00    +0.010 A 
ATOM     25  C   LIG    1       -6.908   9.306  -0.361  0.00  0.00    -0.040 A 
ATOM     26  S   LIG    1       -5.887   8.039  -1.028  0.00  0.00    +0.120 S 
ATOM     27  C   LIG    1       -4.751   8.212   0.299  0.00  0.00    -0.240 A 
ENDBRANCH  18  19
ENDBRANCH   2  18
TORSDOF 3
