REMARK  Name = ZINCqH000000747h.0
REMARK                            x       y       z     vdW  Elec       q    Type
REMARK                         _______ _______ _______ _____ _____    ______ ____
ROOT
ATOM      1  C   LIG    1       -2.361   2.474   3.357  0.00  0.00    +0.570 C 
ATOM      2  N   LIG    1       -2.900   2.983   4.483  0.00  0.00    -0.650 N 
ATOM      3  H   LIG    1       -3.026   3.941   4.570  0.00  0.00    +0.410 HD
ATOM      4  O   LIG    1       -2.202   1.273   3.248  0.00  0.00    -0.480 OA
ENDROOT
BRANCH   1   8
ATOM      5  C   LIG    1       -1.220   5.064   0.189  0.00  0.00    +0.200 A 
ATOM      6  C   LIG    1       -1.772   5.588   1.354  0.00  0.00    -0.110 A 
ATOM      7  C   LIG    1       -2.140   4.753   2.384  0.00  0.00    +0.120 A 
ATOM      8  C   LIG    1       -1.964   3.372   2.259  0.00  0.00    -0.210 A 
ATOM      9  C   LIG    1       -1.402   2.845   1.086  0.00  0.00    +0.230 A 
ATOM     10  C   LIG    1       -1.037   3.695   0.057  0.00  0.00    -0.110 A 
BRANCH   5  12
ATOM     11  C   LIG    1       -1.077   7.293  -0.621  0.00  0.00    +0.250 C 
ATOM     12  O   LIG    1       -0.861   5.894  -0.822  0.00  0.00    -0.310 OA
ENDBRANCH   5  12
BRANCH   9  13
ATOM     13  O   LIG    1       -1.224   1.506   0.959  0.00  0.00    -0.280 OA
ATOM     14  C   LIG    1       -0.652   1.041  -0.266  0.00  0.00    +0.250 C 
ENDBRANCH   9  13
ENDBRANCH   1   8
BRANCH   2  15
ATOM     15  C   LIG    1       -3.275   2.134   5.521  0.00  0.00    +0.310 A 
ATOM     16  C   LIG    1       -3.268   0.773   5.492  0.00  0.00    -0.090 A 
ATOM     17  C   LIG    1       -3.716   0.314   6.734  0.00  0.00    +0.090 A 
ATOM     18  N   LIG    1       -3.984   1.350   7.487  0.00  0.00    -0.280 NA
ATOM     19  C   LIG    1       -3.864  -1.130   7.138  0.00  0.00    +0.160 C 
ATOM     20  N   LIG    1       -3.711   2.513   6.754  0.00  0.00    -0.340 N 
BRANCH  20  21
ATOM     21  C   LIG    1       -3.864   3.830   7.207  0.00  0.00    +0.140 A 
ATOM     22  C   LIG    1       -2.842   4.751   7.024  0.00  0.00    +0.000 A 
ATOM     23  C   LIG    1       -2.995   6.049   7.471  0.00  0.00    +0.020 A 
ATOM     24  C   LIG    1       -4.165   6.431   8.102  0.00  0.00    +0.020 A 
ATOM     25  C   LIG    1       -5.185   5.515   8.287  0.00  0.00    +0.030 A 
ATOM     26  C   LIG    1       -5.040   4.218   7.836  0.00  0.00    -0.070 A 
ATOM     27  C   LIG    1       -6.154   3.222   8.032  0.00  0.00    +0.110 C 
ENDBRANCH  20  21
ENDBRANCH   2  15
TORSDOF 5
