REMARK  Name = ZINCrm00001RJwKP.1
REMARK                            x       y       z     vdW  Elec       q    Type
REMARK                         _______ _______ _______ _____ _____    ______ ____
ROOT
ATOM      1  N   LIG    1       -0.755   3.048   1.274  0.00  0.00    -0.380 N 
ATOM      2  C   LIG    1       -0.731   1.580   1.266  0.00  0.00    +0.260 C 
ATOM      3  C   LIG    1       -0.013   1.086   0.008  0.00  0.00    +0.060 C 
ATOM      4  C   LIG    1       -0.755   1.594  -1.231  0.00  0.00    +0.050 C 
ATOM      5  C   LIG    1       -0.839   3.122  -1.173  0.00  0.00    +0.270 C 
ATOM      6  C   LIG    1       -1.527   3.541   0.127  0.00  0.00    +0.270 C 
ATOM      7  H   LIG    1        0.189   3.399   1.219  0.00  0.00    +0.410 HD
ENDROOT
BRANCH   5   8
ATOM      8  N   LIG    1        0.512   3.688  -1.217  0.00  0.00    -0.740 N 
ATOM      9  H   LIG    1        0.971   3.913  -0.393  0.00  0.00    +0.390 HD
ATOM     10  C   LIG    1        1.118   3.895  -2.403  0.00  0.00    +0.530 C 
ATOM     11  O   LIG    1        0.544   3.613  -3.434  0.00  0.00    -0.480 OA
BRANCH  10  12
ATOM     12  C   LIG    1        2.507   4.477  -2.449  0.00  0.00    +0.000 C 
ATOM     13  C   LIG    1        2.959   4.609  -3.906  0.00  0.00    +0.080 C 
ATOM     14  C   LIG    1        4.400   5.127  -3.938  0.00  0.00    +0.060 C 
ATOM     15  C   LIG    1        5.295   4.179  -3.137  0.00  0.00    +0.270 C 
ATOM     16  N   LIG    1        4.827   4.117  -1.747  0.00  0.00    -0.500 N 
ATOM     17  H   LIG    1        4.816   5.046  -1.355  0.00  0.00    +0.430 HD
ATOM     18  H   LIG    1        5.451   3.533  -1.209  0.00  0.00    +0.440 HD
ATOM     19  C   LIG    1        3.472   3.553  -1.702  0.00  0.00    +0.270 C 
ENDBRANCH  10  12
ENDBRANCH   5   8
BRANCH   1  20
ATOM     20  C   LIG    1       -1.378   3.517   2.520  0.00  0.00    +0.240 C 
BRANCH  20  21
ATOM     21  C   LIG    1       -0.507   3.110   3.710  0.00  0.00    +0.220 C 
BRANCH  21  22
ATOM     22  O   LIG    1        0.748   3.788   3.636  0.00  0.00    -0.550 OA
ATOM     23  H   LIG    1        0.676   4.752   3.652  0.00  0.00    +0.390 HD
ENDBRANCH  21  22
BRANCH  21  24
ATOM     24  C   LIG    1       -1.215   3.487   5.013  0.00  0.00    +0.090 C 
BRANCH  24  28
ATOM     25  C   LIG    1       -0.196  -0.133   8.314  0.00  0.00    +0.110 C 
ATOM     26  C   LIG    1        0.070   1.245   7.764  0.00  0.00    -0.110 A 
ATOM     27  C   LIG    1       -0.664   1.715   6.693  0.00  0.00    +0.040 A 
ATOM     28  C   LIG    1       -0.416   2.977   6.184  0.00  0.00    -0.110 A 
ATOM     29  C   LIG    1        0.559   3.773   6.754  0.00  0.00    +0.050 A 
ATOM     30  C   LIG    1        1.292   3.307   7.830  0.00  0.00    -0.010 A 
ATOM     31  C   LIG    1        1.048   2.042   8.336  0.00  0.00    +0.110 A 
ATOM     32  F   LIG    1        1.764   1.584   9.386  0.00  0.00    -0.130 F 
ENDBRANCH  24  28
ENDBRANCH  21  24
ENDBRANCH  20  21
ENDBRANCH   1  20
TORSDOF 7
