REMARK  Name = ZINCrm00001RJwKP.0
REMARK                            x       y       z     vdW  Elec       q    Type
REMARK                         _______ _______ _______ _____ _____    ______ ____
ROOT
ATOM      1  N   LIG    1       -2.026   0.891   1.261  0.00  0.00    -0.370 N 
ATOM      2  C   LIG    1       -2.783   1.285   0.067  0.00  0.00    +0.260 C 
ATOM      3  C   LIG    1       -4.101   0.510   0.014  0.00  0.00    +0.070 C 
ATOM      4  C   LIG    1       -4.923   0.824   1.267  0.00  0.00    +0.040 C 
ATOM      5  C   LIG    1       -4.095   0.478   2.508  0.00  0.00    +0.240 C 
ATOM      6  C   LIG    1       -2.778   1.256   2.468  0.00  0.00    +0.260 C 
ATOM      7  H   LIG    1       -1.877  -0.107   1.249  0.00  0.00    +0.430 HD
ENDROOT
BRANCH   5   8
ATOM      8  N   LIG    1       -4.843   0.845   3.713  0.00  0.00    -0.720 N 
ATOM      9  H   LIG    1       -4.690   1.704   4.136  0.00  0.00    +0.410 HD
ATOM     10  C   LIG    1       -5.744  -0.012   4.234  0.00  0.00    +0.530 C 
ATOM     11  O   LIG    1       -5.935  -1.087   3.705  0.00  0.00    -0.510 OA
BRANCH  10  12
ATOM     12  C   LIG    1       -6.513   0.365   5.473  0.00  0.00    +0.000 C 
ATOM     13  C   LIG    1       -5.537   0.614   6.626  0.00  0.00    +0.060 C 
ATOM     14  C   LIG    1       -6.331   0.920   7.899  0.00  0.00    +0.060 C 
ATOM     15  C   LIG    1       -7.287  -0.240   8.188  0.00  0.00    +0.260 C 
ATOM     16  N   LIG    1       -8.211  -0.410   7.061  0.00  0.00    -0.500 N 
ATOM     17  H   LIG    1       -8.873  -1.140   7.278  0.00  0.00    +0.440 HD
ATOM     18  H   LIG    1       -8.707   0.455   6.901  0.00  0.00    +0.430 HD
ATOM     19  C   LIG    1       -7.462  -0.774   5.853  0.00  0.00    +0.290 C 
ENDBRANCH  10  12
ENDBRANCH   5   8
BRANCH   1  20
ATOM     20  C   LIG    1       -0.729   1.579   1.267  0.00  0.00    +0.230 C 
BRANCH  20  21
ATOM     21  C   LIG    1        0.121   1.056   2.427  0.00  0.00    +0.210 C 
BRANCH  21  22
ATOM     22  O   LIG    1        0.339  -0.346   2.263  0.00  0.00    -0.550 OA
ATOM     23  H   LIG    1        0.798  -0.580   1.445  0.00  0.00    +0.390 HD
ENDBRANCH  21  22
BRANCH  21  24
ATOM     24  C   LIG    1        1.467   1.784   2.441  0.00  0.00    +0.090 C 
BRANCH  24  28
ATOM     25  C   LIG    1        4.754  -1.306   4.607  0.00  0.00    +0.110 C 
ATOM     26  C   LIG    1        3.828  -0.120   4.689  0.00  0.00    -0.110 A 
ATOM     27  C   LIG    1        3.105   0.271   3.579  0.00  0.00    +0.060 A 
ATOM     28  C   LIG    1        2.255   1.358   3.654  0.00  0.00    -0.110 A 
ATOM     29  C   LIG    1        2.131   2.060   4.838  0.00  0.00    +0.030 A 
ATOM     30  C   LIG    1        2.849   1.668   5.952  0.00  0.00    -0.010 A 
ATOM     31  C   LIG    1        3.701   0.579   5.878  0.00  0.00    +0.110 A 
ATOM     32  F   LIG    1        4.407   0.198   6.965  0.00  0.00    -0.130 F 
ENDBRANCH  24  28
ENDBRANCH  21  24
ENDBRANCH  20  21
ENDBRANCH   1  20
TORSDOF 7
