REMARK  Name = ZINCpk000000oyOF.0
REMARK                            x       y       z     vdW  Elec       q    Type
REMARK                         _______ _______ _______ _____ _____    ______ ____
ROOT
ATOM      1  N   LIG    1       -0.743   0.445   6.037  0.00  0.00    -0.500 NA
ENDROOT
BRANCH   1   2
ATOM      2  C   LIG    1        0.062  -0.110   7.133  0.00  0.00    +0.140 C 
ATOM      3  C   LIG    1       -0.834  -0.442   8.349  0.00  0.00    +0.070 C 
ATOM      4  C   LIG    1       -0.714   0.849   9.190  0.00  0.00    +0.280 C 
ATOM      5  N   LIG    1        0.574   1.444   8.812  0.00  0.00    -0.550 N 
ATOM      6  C   LIG    1        1.030   0.928   7.658  0.00  0.00    +0.530 C 
ATOM      7  O   LIG    1        2.067   1.247   7.116  0.00  0.00    -0.510 OA
BRANCH   5   8
ATOM      8  C   LIG    1        1.240   2.422   9.558  0.00  0.00    +0.160 A 
ATOM      9  C   LIG    1        2.511   2.838   9.182  0.00  0.00    -0.010 A 
ATOM     10  C   LIG    1        3.164   3.808   9.917  0.00  0.00    +0.040 A 
ATOM     11  C   LIG    1        2.558   4.357  11.033  0.00  0.00    -0.020 A 
ATOM     12  C   LIG    1        1.296   3.941  11.413  0.00  0.00    +0.040 A 
ATOM     13  C   LIG    1        0.635   2.976  10.678  0.00  0.00    -0.030 A 
ENDBRANCH   5   8
ENDBRANCH   1   2
BRANCH   1  15
ATOM     14  C   LIG    1       -1.045  -1.803   5.113  0.00  0.00    -0.020 C 
ATOM     15  C   LIG    1       -1.746  -0.524   5.577  0.00  0.00    +0.220 C 
ENDBRANCH   1  15
BRANCH   1  16
ATOM     16  C   LIG    1        0.113   0.884   4.926  0.00  0.00    +0.210 C 
BRANCH  16  17
ATOM     17  C   LIG    1       -0.712   1.664   3.935  0.00  0.00    +0.520 C 
ATOM     18  N   LIG    1       -0.135   2.170   2.827  0.00  0.00    -0.730 N 
ATOM     19  H   LIG    1        0.812   2.031   2.668  0.00  0.00    +0.400 HD
ATOM     20  O   LIG    1       -1.896   1.838   4.135  0.00  0.00    -0.520 OA
BRANCH  18  21
ATOM     21  C   LIG    1       -0.936   2.928   1.864  0.00  0.00    +0.240 C 
ATOM     22  C   LIG    1       -0.282   2.853   0.481  0.00  0.00    +0.000 C 
ATOM     23  C   LIG    1       -1.082   3.713  -0.502  0.00  0.00    +0.210 C 
ATOM     24  O   LIG    1       -1.140   5.057  -0.019  0.00  0.00    -0.380 OA
ATOM     25  C   LIG    1       -1.785   5.194   1.248  0.00  0.00    +0.210 C 
ATOM     26  C   LIG    1       -1.014   4.394   2.302  0.00  0.00    -0.020 C 
ENDBRANCH  18  21
ENDBRANCH  16  17
ENDBRANCH   1  16
TORSDOF 6
