REMARK  Name = ZINCrg000000plUc.0
REMARK                            x       y       z     vdW  Elec       q    Type
REMARK                         _______ _______ _______ _____ _____    ______ ____
ROOT
ATOM      1  C   LIG    1       -5.933   3.110  -0.231  0.00  0.00    +0.390 A 
ATOM      2  N   LIG    1       -4.798   3.778  -0.139  0.00  0.00    -0.620 NA
ATOM      3  C   LIG    1       -3.642   3.123  -0.052  0.00  0.00    +0.630 A 
ATOM      4  N   LIG    1       -3.631   1.794  -0.065  0.00  0.00    -0.640 NA
ATOM      5  C   LIG    1       -4.776   1.125  -0.152  0.00  0.00    +0.630 A 
ATOM      6  N   LIG    1       -5.927   1.788  -0.238  0.00  0.00    -0.620 NA
ENDROOT
BRANCH   5   7
ATOM      7  N   LIG    1       -4.771  -0.255  -0.160  0.00  0.00    -0.800 N 
ATOM      8  H   LIG    1       -3.932  -0.737  -0.097  0.00  0.00    +0.420 HD
ATOM      9  H   LIG    1       -5.607  -0.742  -0.227  0.00  0.00    +0.420 HD
ENDBRANCH   5   7
BRANCH   3  10
ATOM     10  N   LIG    1       -2.455   3.823   0.044  0.00  0.00    -0.620 N 
ATOM     11  H   LIG    1       -2.468   4.789   0.130  0.00  0.00    +0.430 HD
BRANCH  10  12
ATOM     12  C   LIG    1       -1.236   3.139   0.019  0.00  0.00    +0.150 A 
ATOM     13  C   LIG    1       -1.100   1.987  -0.746  0.00  0.00    +0.020 A 
ATOM     14  C   LIG    1        0.104   1.311  -0.764  0.00  0.00    +0.020 A 
ATOM     15  C   LIG    1        1.177   1.785  -0.032  0.00  0.00    -0.100 A 
ATOM     16  C   LIG    1        1.046   2.934   0.727  0.00  0.00    +0.030 A 
ATOM     17  C   LIG    1        2.491   1.048  -0.059  0.00  0.00    +0.100 C 
ATOM     18  C   LIG    1       -0.157   3.612   0.754  0.00  0.00    -0.010 A 
ENDBRANCH  10  12
ENDBRANCH   3  10
BRANCH   1  19
ATOM     19  C   LIG    1       -7.239   3.856  -0.328  0.00  0.00    +0.340 C 
BRANCH  19  24
ATOM     20  C   LIG    1       -6.912   5.239  -3.815  0.00  0.00    -0.440 C 
ATOM     21  C   LIG    1       -7.201   3.958  -4.603  0.00  0.00    +0.050 C 
ATOM     22  C   LIG    1       -8.285   3.155  -3.877  0.00  0.00    +0.050 C 
ATOM     23  C   LIG    1       -7.818   2.849  -2.453  0.00  0.00    +0.180 C 
ATOM     24  N   LIG    1       -7.556   4.106  -1.741  0.00  0.00    -0.500 NA
ATOM     25  C   LIG    1       -6.485   4.872  -2.392  0.00  0.00    +0.220 C 
BRANCH  20  26
ATOM     26  S   LIG    1       -5.579   6.162  -4.628  0.00  0.00    +2.610 S 
ATOM     27  O   LIG    1       -4.458   5.320  -4.860  0.00  0.00    -0.950 OA
ATOM     28  O   LIG    1       -5.423   7.442  -4.032  0.00  0.00    -0.950 OA
BRANCH  26  30
ATOM     29  C   LIG    1       -7.329   7.362  -6.306  0.00  0.00    +0.290 C 
ATOM     30  N   LIG    1       -6.165   6.486  -6.143  0.00  0.00    -1.120 NA
ATOM     31  H   LIG    1       -5.738   6.097  -6.922  0.00  0.00    +0.420 HD
ENDBRANCH  26  30
ENDBRANCH  20  26
ENDBRANCH  19  24
ENDBRANCH   1  19
TORSDOF 7
