REMARK  Name = ZINCrD00000F5LCs.0
REMARK                            x       y       z     vdW  Elec       q    Type
REMARK                         _______ _______ _______ _____ _____    ______ ____
ROOT
ATOM      1  N   LIG    1       -2.893   4.369   1.428  0.00  0.00    -0.610 N 
ATOM      2  C   LIG    1       -3.638   3.522   2.165  0.00  0.00    +0.720 C 
ATOM      3  N   LIG    1       -3.959   3.838   3.436  0.00  0.00    -0.640 N 
ATOM      4  H   LIG    1       -3.653   4.674   3.819  0.00  0.00    +0.410 HD
ATOM      5  O   LIG    1       -4.022   2.473   1.684  0.00  0.00    -0.560 OA
ENDROOT
BRANCH   3   6
ATOM      6  C   LIG    1       -4.730   2.961   4.199  0.00  0.00    +0.260 A 
ATOM      7  N   LIG    1       -5.117   3.130   5.436  0.00  0.00    -0.390 NA
ATOM      8  O   LIG    1       -5.776   2.194   5.825  0.00  0.00    +0.100 OA
ATOM      9  C   LIG    1       -5.917   1.257   4.876  0.00  0.00    -0.010 A 
ATOM     10  C   LIG    1       -5.257   1.709   3.786  0.00  0.00    -0.030 A 
BRANCH   9  11
ATOM     11  C   LIG    1       -6.670  -0.043   4.999  0.00  0.00    +0.090 C 
ATOM     12  C   LIG    1       -8.138   0.247   5.319  0.00  0.00    +0.040 C 
ATOM     13  C   LIG    1       -6.059  -0.882   6.123  0.00  0.00    +0.040 C 
ENDBRANCH   9  11
ENDBRANCH   3   6
BRANCH   1  14
ATOM     14  C   LIG    1       -2.431   5.633   2.007  0.00  0.00    +0.310 C 
BRANCH  14  17
ATOM     15  C   LIG    1       -3.227   8.097   2.374  0.00  0.00    -0.010 C 
ATOM     16  C   LIG    1       -3.049   7.904   0.867  0.00  0.00    +0.040 C 
ATOM     17  C   LIG    1       -3.470   6.724   1.744  0.00  0.00    -0.060 C 
BRANCH  15  19
ATOM     18  C   LIG    1       -4.548   9.213   4.098  0.00  0.00    +0.020 C 
ATOM     19  C   LIG    1       -4.433   8.873   2.838  0.00  0.00    -0.020 C 
ENDBRANCH  15  19
ENDBRANCH  14  17
ENDBRANCH   1  14
BRANCH   1  20
ATOM     20  C   LIG    1       -2.545   4.026   0.047  0.00  0.00    +0.370 C 
BRANCH  20  21
ATOM     21  C   LIG    1       -1.243   3.266   0.031  0.00  0.00    -0.020 A 
ATOM     22  C   LIG    1       -1.241   1.902   0.018  0.00  0.00    -0.060 A 
ATOM     23  C   LIG    1       -0.015   1.216   0.009  0.00  0.00    +0.510 A 
ATOM     24  N   LIG    1        1.143   1.905   0.001  0.00  0.00    -0.500 N 
ATOM     25  C   LIG    1        1.142   3.263   0.008  0.00  0.00    +0.290 A 
ATOM     26  C   LIG    1        2.416   1.181  -0.015  0.00  0.00    +0.320 C 
ATOM     27  O   LIG    1        0.002  -0.004   0.002  0.00  0.00    -0.550 OA
ATOM     28  C   LIG    1       -0.022   3.954   0.023  0.00  0.00    -0.080 A 
ENDBRANCH  20  21
ENDBRANCH   1  20
TORSDOF 7
