REMARK  Name = ZINCqH0000031IUi.0
REMARK                            x       y       z     vdW  Elec       q    Type
REMARK                         _______ _______ _______ _____ _____    ______ ____
ROOT
ATOM      1  N   LIG    1        0.002  -0.004   0.002  0.00  0.00    -0.690 N 
ATOM      2  H   LIG    1        0.852  -0.470   0.037  0.00  0.00    +0.400 HD
ATOM      3  C   LIG    1       -0.026   1.334  -0.156  0.00  0.00    +0.700 C 
ATOM      4  N   LIG    1        1.124   2.037  -0.159  0.00  0.00    -0.610 N 
ATOM      5  O   LIG    1       -1.089   1.907  -0.301  0.00  0.00    -0.550 OA
ENDROOT
BRANCH   4   6
ATOM      6  C   LIG    1        1.093   3.491  -0.331  0.00  0.00    +0.320 C 
ATOM      7  C   LIG    1        0.461   3.826  -1.681  0.00  0.00    +0.030 C 
ATOM      8  C   LIG    1        0.241   5.341  -1.750  0.00  0.00    +0.020 C 
ATOM      9  C   LIG    1       -0.874   5.710  -0.773  0.00  0.00    +0.070 C 
ATOM     10  C   LIG    1       -0.598   5.132   0.590  0.00  0.00    -0.050 A 
ATOM     11  C   LIG    1       -1.291   5.661   1.670  0.00  0.00    +0.000 A 
ATOM     12  C   LIG    1       -1.091   5.166   2.942  0.00  0.00    +0.010 A 
ATOM     13  C   LIG    1       -0.194   4.135   3.144  0.00  0.00    -0.010 A 
ATOM     14  C   LIG    1        0.499   3.610   2.073  0.00  0.00    +0.000 A 
ATOM     15  C   LIG    1        0.301   4.108   0.792  0.00  0.00    -0.080 A 
ENDBRANCH   4   6
BRANCH   1  20
ATOM     16  C   LIG    1       -3.485  -0.864   0.844  0.00  0.00    -0.150 A 
ATOM     17  C   LIG    1       -3.561  -2.162   0.329  0.00  0.00    +0.050 A 
ATOM     18  C   LIG    1       -2.462  -2.725  -0.285  0.00  0.00    +0.020 A 
ATOM     19  C   LIG    1       -1.282  -2.012  -0.393  0.00  0.00    +0.010 A 
ATOM     20  C   LIG    1       -1.195  -0.721   0.115  0.00  0.00    +0.160 A 
ATOM     21  C   LIG    1       -2.290  -0.146   0.739  0.00  0.00    +0.090 A 
BRANCH  16  23
ATOM     22  C   LIG    1       -5.939  -1.039   1.619  0.00  0.00    +0.080 C 
ATOM     23  C   LIG    1       -4.655  -0.259   1.501  0.00  0.00    +0.390 C 
ATOM     24  O   LIG    1       -4.586   0.866   1.947  0.00  0.00    -0.450 OA
ENDBRANCH  16  23
ENDBRANCH   1  20
BRANCH   4  25
ATOM     25  C   LIG    1        2.405   1.346   0.010  0.00  0.00    +0.290 C 
BRANCH  25  26
ATOM     26  C   LIG    1        2.949   0.939  -1.361  0.00  0.00    +0.170 C 
BRANCH  26  27
ATOM     27  O   LIG    1        3.249   2.110  -2.122  0.00  0.00    -0.560 OA
ATOM     28  H   LIG    1        3.599   1.927  -3.005  0.00  0.00    +0.380 HD
ENDBRANCH  26  27
ENDBRANCH  25  26
ENDBRANCH   4  25
TORSDOF 6
