REMARK  Name = ZINCkj000005jhno.0
REMARK                            x       y       z     vdW  Elec       q    Type
REMARK                         _______ _______ _______ _____ _____    ______ ____
ROOT
ATOM      1  N   LIG    1       -0.723   1.572  -1.182  0.00  0.00    -0.490 N 
ATOM      2  H   LIG    1       -0.691   2.574  -1.061  0.00  0.00    +0.430 HD
ATOM      3  H   LIG    1       -1.683   1.277  -1.280  0.00  0.00    +0.440 HD
ENDROOT
BRANCH   1  12
ATOM      4  C   LIG    1        1.466   3.249  -2.418  0.00  0.00    +0.060 C 
ATOM      5  C   LIG    1        1.463   1.725  -2.275  0.00  0.00    -0.020 C 
ATOM      6  C   LIG    1        2.298   1.099  -3.397  0.00  0.00    +0.070 C 
ATOM      7  C   LIG    1        2.430  -0.401  -3.131  0.00  0.00    +0.280 C 
ATOM      8  N   LIG    1        1.122  -0.992  -2.881  0.00  0.00    -0.690 N 
ATOM      9  H   LIG    1        1.031  -1.953  -2.978  0.00  0.00    +0.420 HD
ATOM     10  C   LIG    1        0.044  -0.295  -2.525  0.00  0.00    +0.510 C 
ATOM     11  O   LIG    1       -0.983  -0.902  -2.303  0.00  0.00    -0.530 OA
ATOM     12  C   LIG    1        0.029   1.201  -2.388  0.00  0.00    +0.180 C 
ENDBRANCH   1  12
BRANCH   1  13
ATOM     13  C   LIG    1       -0.126   0.917  -0.011  0.00  0.00    +0.310 C 
BRANCH  13  14
ATOM     14  C   LIG    1       -0.934   1.250   1.217  0.00  0.00    -0.160 A 
ATOM     15  C   LIG    1       -0.499   2.236   2.080  0.00  0.00    +0.050 A 
ATOM     16  C   LIG    1       -1.240   2.541   3.207  0.00  0.00    +0.030 A 
ATOM     17  C   LIG    1       -2.410   1.856   3.466  0.00  0.00    +0.070 A 
ATOM     18  C   LIG    1       -2.848   0.865   2.602  0.00  0.00    -0.110 A 
ATOM     19  C   LIG    1       -4.127   0.137   2.923  0.00  0.00    +0.290 C 
ATOM     20  O   LIG    1       -4.602  -0.559   1.771  0.00  0.00    -0.370 OA
ATOM     21  C   LIG    1       -3.608  -1.394   1.167  0.00  0.00    +0.230 C 
ATOM     22  C   LIG    1       -2.559  -0.498   0.505  0.00  0.00    +0.040 C 
ATOM     23  C   LIG    1       -2.114   0.568   1.472  0.00  0.00    -0.050 A 
ENDBRANCH  13  14
ENDBRANCH   1  13
TORSDOF 3
