REMARK  Name = ZINCpk00000iSpe5.0
REMARK                            x       y       z     vdW  Elec       q    Type
REMARK                         _______ _______ _______ _____ _____    ______ ____
ROOT
ATOM      1  C   LIG    1       -2.742   0.517  -2.152  0.00  0.00    +0.520 C 
ATOM      2  N   LIG    1       -2.155   1.194  -1.146  0.00  0.00    -0.610 N 
ATOM      3  C   LIG    1       -0.743   1.591  -1.235  0.00  0.00    +0.280 C 
ATOM      4  C   LIG    1       -0.008   1.080   0.008  0.00  0.00    +0.040 C 
ATOM      5  C   LIG    1       -0.724   1.583   1.264  0.00  0.00    -0.010 C 
ATOM      6  C   LIG    1       -2.154   1.038   1.289  0.00  0.00    +0.040 C 
ATOM      7  C   LIG    1       -2.914   1.549   0.061  0.00  0.00    +0.280 C 
ATOM      8  O   LIG    1       -2.105   0.231  -3.144  0.00  0.00    -0.530 OA
ENDROOT
BRANCH   5   9
ATOM      9  C   LIG    1        0.017   1.111   2.488  0.00  0.00    +0.520 C 
ATOM     10  N   LIG    1        0.076   1.893   3.584  0.00  0.00    -0.620 N 
ATOM     11  C   LIG    1       -0.666   3.162   3.649  0.00  0.00    +0.250 C 
ATOM     12  C   LIG    1       -1.468   3.180   4.960  0.00  0.00    +0.220 C 
ATOM     13  O   LIG    1       -0.588   2.903   6.053  0.00  0.00    -0.380 OA
ATOM     14  C   LIG    1        0.015   1.608   6.003  0.00  0.00    +0.220 C 
ATOM     15  C   LIG    1        0.889   1.506   4.747  0.00  0.00    +0.250 C 
ATOM     16  O   LIG    1        0.560   0.026   2.486  0.00  0.00    -0.530 OA
ENDBRANCH   5   9
BRANCH   1  17
ATOM     17  C   LIG    1       -4.191   0.116  -2.046  0.00  0.00    +0.050 C 
BRANCH  17  18
ATOM     18  C   LIG    1       -4.607  -0.634  -3.313  0.00  0.00    +0.130 C 
BRANCH  18  19
ATOM     19  C   LIG    1       -6.078  -1.041  -3.205  0.00  0.00    +0.040 C 
ATOM     20  N   LIG    1       -6.950  -0.285  -2.303  0.00  0.00    -0.120 NA
ATOM     21  N   LIG    1       -6.610  -1.404  -1.890  0.00  0.00    -0.120 NA
BRANCH  19  22
ATOM     22  C   LIG    1       -6.693  -1.688  -4.448  0.00  0.00    +0.120 C 
BRANCH  22  23
ATOM     23  C   LIG    1       -8.158  -2.031  -4.172  0.00  0.00    +0.160 C 
BRANCH  23  25
ATOM     24  C   LIG    1       -9.222  -3.150  -6.321  0.00  0.00    +0.030 C 
ATOM     25  C   LIG    1       -8.750  -2.654  -5.367  0.00  0.00    -0.190 C 
ENDBRANCH  23  25
ENDBRANCH  22  23
ENDBRANCH  19  22
ENDBRANCH  18  19
ENDBRANCH  17  18
ENDBRANCH   1  17
TORSDOF 7
