REMARK  Name = ZINCb70000002qxi.0
REMARK                            x       y       z     vdW  Elec       q    Type
REMARK                         _______ _______ _______ _____ _____    ______ ____
ROOT
ATOM      1  C   LIG    1        2.815   1.803   4.108  0.00  0.00    +0.110 C 
ATOM      2  C   LIG    1        2.825   1.939   2.584  0.00  0.00    +0.150 C 
ATOM      3  C   LIG    1        4.271   1.981   2.084  0.00  0.00    +0.250 C 
ATOM      4  N   LIG    1        4.281   2.071   0.617  0.00  0.00    -0.510 N 
ATOM      5  C   LIG    1        3.616   0.886   0.052  0.00  0.00    +0.280 C 
ATOM      6  C   LIG    1        2.192   0.803   0.580  0.00  0.00    +0.060 C 
ATOM      7  C   LIG    1        1.481  -0.452   0.027  0.00  0.00    +0.080 C 
ATOM      8  C   LIG    1        0.002  -0.004   0.002  0.00  0.00    +0.230 C 
ATOM      9  O   LIG    1       -0.017   1.429   0.010  0.00  0.00    -0.360 OA
ATOM     10  C   LIG    1        1.327   1.939  -0.000  0.00  0.00    +0.190 C 
ATOM     11  H   LIG    1        3.790   2.903   0.327  0.00  0.00    +0.430 HD
ATOM     12  H   LIG    1        5.234   2.111   0.288  0.00  0.00    +0.440 HD
ATOM     13  O   LIG    1        2.158   0.815   1.999  0.00  0.00    -0.330 OA
ENDROOT
TORSDOF 0
