REMARK  Name = ZINCvU0000000Dnu.0
REMARK                            x       y       z     vdW  Elec       q    Type
REMARK                         _______ _______ _______ _____ _____    ______ ____
ROOT
ATOM      1  N   LIG    1        0.598   3.112  -0.457  0.00  0.00    -0.380 N 
ATOM      2  N   LIG    1        0.394   4.483  -0.662  0.00  0.00    -0.270 NA
ATOM      3  C   LIG    1       -0.875   4.670  -0.911  0.00  0.00    +0.350 A 
ATOM      4  N   LIG    1       -1.512   3.444  -0.880  0.00  0.00    -0.490 N 
ATOM      5  C   LIG    1       -0.596   2.498  -0.594  0.00  0.00    +0.480 A 
ATOM      6  S   LIG    1       -0.891   0.819  -0.441  0.00  0.00    -0.530 S 
ENDROOT
BRANCH   3   7
ATOM      7  C   LIG    1       -1.516   5.967  -1.185  0.00  0.00    -0.160 A 
ATOM      8  C   LIG    1       -0.883   7.159  -1.218  0.00  0.00    +0.090 A 
ATOM      9  C   LIG    1       -1.697   8.236  -1.495  0.00  0.00    +0.010 A 
ATOM     10  C   LIG    1       -2.986   7.938  -1.689  0.00  0.00    -0.010 A 
ATOM     11  S   LIG    1       -3.226   6.203  -1.527  0.00  0.00    +0.150 S 
ENDBRANCH   3   7
BRANCH   1  12
ATOM     12  C   LIG    1        1.875   2.463  -0.150  0.00  0.00    +0.540 C 
BRANCH  12  13
ATOM     13  N   LIG    1        2.699   2.404  -1.364  0.00  0.00    -0.540 NA
BRANCH  13  14
ATOM     14  C   LIG    1        3.377   3.684  -1.603  0.00  0.00    +0.220 C 
BRANCH  14  16
ATOM     15  F   LIG    1        2.770   3.491  -3.909  0.00  0.00    -0.170 F 
ATOM     16  C   LIG    1        3.849   3.749  -3.057  0.00  0.00    +0.460 C 
ATOM     17  F   LIG    1        4.847   2.791  -3.266  0.00  0.00    -0.180 F 
ATOM     18  F   LIG    1        4.361   5.023  -3.325  0.00  0.00    -0.180 F 
ENDBRANCH  14  16
ENDBRANCH  13  14
BRANCH  13  19
ATOM     19  C   LIG    1        3.666   1.301  -1.291  0.00  0.00    +0.250 C 
BRANCH  19  20
ATOM     20  C   LIG    1        2.956  -0.007  -1.527  0.00  0.00    -0.090 A 
ATOM     21  C   LIG    1        2.538  -0.771  -0.453  0.00  0.00    +0.010 A 
ATOM     22  C   LIG    1        1.883  -1.968  -0.670  0.00  0.00    +0.010 A 
ATOM     23  C   LIG    1        1.653  -2.407  -1.961  0.00  0.00    +0.010 A 
ATOM     24  C   LIG    1        2.075  -1.646  -3.034  0.00  0.00    +0.000 A 
ATOM     25  C   LIG    1        2.727  -0.446  -2.818  0.00  0.00    +0.030 A 
ENDBRANCH  19  20
ENDBRANCH  13  19
ENDBRANCH  12  13
ENDBRANCH   1  12
BRANCH   4  26
ATOM     26  C   LIG    1       -2.940   3.213  -1.114  0.00  0.00    +0.340 C 
BRANCH  26  27
ATOM     27  C   LIG    1       -3.696   3.307   0.213  0.00  0.00    +0.130 C 
ATOM     28  C   LIG    1       -5.199   2.995  -0.002  0.00  0.00    +0.030 C 
ATOM     29  C   LIG    1       -5.605   2.514   1.418  0.00  0.00    +0.020 C 
ATOM     30  C   LIG    1       -4.325   1.798   1.900  0.00  0.00    +0.190 C 
ATOM     31  O   LIG    1       -3.230   2.300   1.125  0.00  0.00    -0.350 OA
ENDBRANCH  26  27
ENDBRANCH   4  26
TORSDOF 9
