REMARK  Name = ZINCnE000001OMrE.0
REMARK                            x       y       z     vdW  Elec       q    Type
REMARK                         _______ _______ _______ _____ _____    ______ ____
ROOT
ATOM      1  C   LIG    1        2.331   0.926   0.654  0.00  0.00    +0.620 C 
ATOM      2  N   LIG    1        1.362   1.593  -0.002  0.00  0.00    -0.710 N 
ATOM      3  H   LIG    1        1.574   2.409  -0.482  0.00  0.00    +0.420 HD
ATOM      4  O   LIG    1        2.065  -0.097   1.255  0.00  0.00    -0.520 OA
ENDROOT
BRANCH   1   9
ATOM      5  C   LIG    1        7.308   1.428   1.480  0.00  0.00    +0.120 C 
ATOM      6  C   LIG    1        5.897   1.661   1.003  0.00  0.00    -0.180 A 
ATOM      7  C   LIG    1        5.456   2.707   0.223  0.00  0.00    +0.000 A 
ATOM      8  O   LIG    1        4.136   2.547   0.015  0.00  0.00    -0.140 OA
ATOM      9  C   LIG    1        3.715   1.436   0.644  0.00  0.00    -0.120 A 
ATOM     10  C   LIG    1        4.782   0.856   1.267  0.00  0.00    +0.040 A 
BRANCH   7  11
ATOM     11  C   LIG    1        6.284   3.803  -0.297  0.00  0.00    +0.560 C 
ATOM     12  O   LIG    1        5.777   4.680  -0.983  0.00  0.00    -0.660 OA
ATOM     13  O   LIG    1        7.481   3.839  -0.045  0.00  0.00    -0.650 OA
ENDBRANCH   7  11
ENDBRANCH   1   9
BRANCH   2  14
ATOM     14  C   LIG    1       -0.013   1.086   0.008  0.00  0.00    +0.290 C 
BRANCH  14  15
ATOM     15  C   LIG    1       -0.742   1.585  -1.213  0.00  0.00    -0.110 A 
ATOM     16  C   LIG    1       -0.551   2.883  -1.649  0.00  0.00    +0.030 A 
ATOM     17  C   LIG    1       -1.217   3.340  -2.771  0.00  0.00    +0.010 A 
ATOM     18  C   LIG    1       -2.079   2.501  -3.453  0.00  0.00    +0.010 A 
ATOM     19  C   LIG    1       -2.273   1.205  -3.014  0.00  0.00    +0.010 A 
ATOM     20  C   LIG    1       -1.605   0.747  -1.893  0.00  0.00    +0.040 A 
ENDBRANCH  14  15
BRANCH  14  21
ATOM     21  C   LIG    1       -0.729   1.579   1.267  0.00  0.00    +0.280 C 
ATOM     22  F   LIG    1       -2.041   1.095   1.277  0.00  0.00    -0.190 F 
ATOM     23  F   LIG    1       -0.748   2.978   1.274  0.00  0.00    -0.190 F 
ATOM     24  C   LIG    1        0.011   1.072   2.506  0.00  0.00    +0.080 C 
ENDBRANCH  14  21
ENDBRANCH   2  14
TORSDOF 5
