REMARK  Name = ZINCpe00000FU9kL.0
REMARK                            x       y       z     vdW  Elec       q    Type
REMARK                         _______ _______ _______ _____ _____    ______ ____
ROOT
ATOM      1  C   LIG    1        2.264   7.635  -1.248  0.00  0.00    +0.180 C 
ATOM      2  C   LIG    1        0.805   7.921  -0.867  0.00  0.00    +0.300 C 
ATOM      3  N   LIG    1        0.579   6.468  -0.849  0.00  0.00    -0.640 N 
ATOM      4  C   LIG    1       -0.260   5.624  -0.217  0.00  0.00    +0.560 C 
ATOM      5  O   LIG    1       -1.084   6.057   0.560  0.00  0.00    -0.500 OA
ATOM      6  C   LIG    1        1.677   6.341  -1.820  0.00  0.00    +0.260 C 
ENDROOT
BRANCH   4   7
ATOM      7  C   LIG    1       -0.175   4.142  -0.476  0.00  0.00    +0.200 C 
ATOM      8  C   LIG    1        1.170   3.613   0.023  0.00  0.00    +0.110 C 
ATOM      9  C   LIG    1        1.180   2.107   0.002  0.00  0.00    -0.040 A 
ATOM     10  C   LIG    1        2.381   1.427  -0.020  0.00  0.00    +0.020 A 
ATOM     11  C   LIG    1        2.396   0.043  -0.029  0.00  0.00    +0.050 A 
ATOM     12  C   LIG    1        1.211  -0.671  -0.017  0.00  0.00    +0.010 A 
ATOM     13  C   LIG    1        0.002  -0.004   0.002  0.00  0.00    +0.090 A 
ATOM     14  C   LIG    1       -0.017   1.389   0.010  0.00  0.00    -0.170 A 
ATOM     15  C   LIG    1       -1.304   2.122   0.020  0.00  0.00    +0.530 C 
ATOM     16  O   LIG    1       -2.361   1.548  -0.153  0.00  0.00    -0.440 OA
ATOM     17  O   LIG    1       -1.252   3.462   0.230  0.00  0.00    -0.330 OA
ENDBRANCH   4   7
BRANCH   1  18
ATOM     18  O   LIG    1        2.799   8.527  -2.228  0.00  0.00    -0.360 OA
BRANCH  18  19
ATOM     19  C   LIG    1        4.207   8.742  -2.111  0.00  0.00    +0.370 C 
BRANCH  19  24
ATOM     20  C   LIG    1        5.424  12.851  -4.700  0.00  0.00    +0.200 C 
ATOM     21  C   LIG    1        5.179  11.421  -4.294  0.00  0.00    +0.170 A 
ATOM     22  N   LIG    1        5.374  10.368  -5.030  0.00  0.00    -0.380 NA
ATOM     23  O   LIG    1        5.088   9.365  -4.412  0.00  0.00    +0.090 OA
ATOM     24  C   LIG    1        4.662   9.693  -3.188  0.00  0.00    +0.180 A 
ATOM     25  N   LIG    1        4.719  11.000  -3.102  0.00  0.00    -0.460 NA
ENDBRANCH  19  24
ENDBRANCH  18  19
ENDBRANCH   1  18
TORSDOF 4
