REMARK  Name = ZINCnE000001Rf2K.0
REMARK                            x       y       z     vdW  Elec       q    Type
REMARK                         _______ _______ _______ _____ _____    ______ ____
ROOT
ATOM      1  C   LIG    1       -0.645   3.595   1.973  0.00  0.00    +0.140 C 
ATOM      2  C   LIG    1       -1.591   3.108   0.905  0.00  0.00    -0.190 A 
ATOM      3  C   LIG    1       -1.311   2.116   0.020  0.00  0.00    -0.090 A 
ATOM      4  C   LIG    1       -2.336   1.835  -0.868  0.00  0.00    +0.110 A 
ATOM      5  C   LIG    1       -3.437   2.617  -0.688  0.00  0.00    -0.260 A 
ATOM      6  S   LIG    1       -3.157   3.731   0.642  0.00  0.00    +0.230 S 
ENDROOT
BRANCH   3   7
ATOM      7  C   LIG    1       -0.017   1.389   0.010  0.00  0.00    -0.030 A 
ATOM      8  C   LIG    1        1.183   2.098   0.002  0.00  0.00    +0.050 A 
ATOM      9  C   LIG    1        2.383   1.418  -0.013  0.00  0.00    -0.010 A 
ATOM     10  C   LIG    1        2.398   0.033  -0.021  0.00  0.00    +0.100 A 
ATOM     11  C   LIG    1        1.208  -0.676  -0.013  0.00  0.00    -0.010 A 
ATOM     12  F   LIG    1        3.575  -0.628  -0.036  0.00  0.00    -0.140 F 
ATOM     13  C   LIG    1        0.002  -0.004   0.002  0.00  0.00    +0.060 A 
ENDBRANCH   3   7
BRANCH   5  14
ATOM     14  C   LIG    1       -4.668   2.540  -1.482  0.00  0.00    +0.590 C 
ATOM     15  N   LIG    1       -5.696   3.368  -1.212  0.00  0.00    -0.710 N 
ATOM     16  H   LIG    1       -5.623   4.014  -0.492  0.00  0.00    +0.400 HD
ATOM     17  O   LIG    1       -4.759   1.730  -2.385  0.00  0.00    -0.530 OA
BRANCH  15  18
ATOM     18  C   LIG    1       -6.926   3.291  -2.005  0.00  0.00    +0.230 C 
ATOM     19  C   LIG    1       -8.111   2.670  -1.247  0.00  0.00    +0.030 C 
ATOM     20  C   LIG    1       -8.995   3.738  -1.912  0.00  0.00    -0.100 C 
ATOM     21  C   LIG    1       -7.728   4.603  -2.026  0.00  0.00    +0.030 C 
BRANCH  20  22
ATOM     22  C   LIG    1      -10.040   4.315  -0.992  0.00  0.00    +0.500 C 
ATOM     23  O   LIG    1       -9.705   4.846   0.053  0.00  0.00    -0.700 OA
ATOM     24  O   LIG    1      -11.219   4.251  -1.293  0.00  0.00    -0.700 OA
ENDBRANCH  20  22
ENDBRANCH  15  18
ENDBRANCH   5  14
TORSDOF 4
