REMARK  Name = ZINCqH0000006Igw.0
REMARK                            x       y       z     vdW  Elec       q    Type
REMARK                         _______ _______ _______ _____ _____    ______ ____
ROOT
ATOM      1  C   LIG    1       -2.437   1.331  -2.945  0.00  0.00    +0.230 C 
ENDROOT
BRANCH   1   2
ATOM      2  C   LIG    1       -1.708   0.832  -1.724  0.00  0.00    +0.510 C 
ATOM      3  N   LIG    1       -0.721   1.571  -1.179  0.00  0.00    -0.610 N 
ATOM      4  C   LIG    1       -0.357   2.860  -1.774  0.00  0.00    +0.280 C 
ATOM      5  O   LIG    1       -2.010  -0.234  -1.231  0.00  0.00    -0.490 OA
BRANCH   3   6
ATOM      6  C   LIG    1       -0.013   1.086   0.008  0.00  0.00    +0.360 C 
BRANCH   6   7
ATOM      7  C   LIG    1       -0.718   1.572   1.248  0.00  0.00    -0.150 A 
ATOM      8  C   LIG    1       -1.721   0.807   1.819  0.00  0.00    +0.140 A 
ATOM      9  C   LIG    1       -2.368   1.255   2.958  0.00  0.00    -0.010 A 
ATOM     10  C   LIG    1       -2.013   2.464   3.525  0.00  0.00    +0.080 A 
ATOM     11  C   LIG    1       -1.011   3.228   2.955  0.00  0.00    +0.010 A 
ATOM     12  F   LIG    1       -2.068  -0.375   1.265  0.00  0.00    -0.110 F 
ATOM     13  C   LIG    1       -0.360   2.780   1.819  0.00  0.00    +0.000 A 
ATOM     14 CL   LIG    1        0.902   3.736   1.108  0.00  0.00    -0.050 Cl
ENDBRANCH   6   7
ENDBRANCH   3   6
ENDBRANCH   1   2
BRANCH   1  15
ATOM     15  O   LIG    1       -3.430   0.379  -3.329  0.00  0.00    -0.270 OA
BRANCH  15  21
ATOM     16  C   LIG    1       -5.169  -0.210  -4.848  0.00  0.00    +0.090 A 
ATOM     17  C   LIG    1       -5.935   0.092  -5.956  0.00  0.00    +0.030 A 
ATOM     18  C   LIG    1       -5.718   1.291  -6.647  0.00  0.00    -0.170 A 
ATOM     19  C   LIG    1       -4.725   2.176  -6.210  0.00  0.00    +0.080 A 
ATOM     20  C   LIG    1       -3.969   1.869  -5.101  0.00  0.00    -0.050 A 
ATOM     21  C   LIG    1       -4.182   0.678  -4.419  0.00  0.00    +0.140 A 
BRANCH  18  22
ATOM     22  C   LIG    1       -6.529   1.618  -7.827  0.00  0.00    +0.400 C 
ATOM     23  O   LIG    1       -7.388   0.850  -8.204  0.00  0.00    -0.460 OA
ATOM     24  C   LIG    1       -6.294   2.909  -8.569  0.00  0.00    +0.080 C 
ENDBRANCH  18  22
BRANCH  16  26
ATOM     25  C   LIG    1       -6.404  -2.234  -4.670  0.00  0.00    +0.240 C 
ATOM     26  O   LIG    1       -5.377  -1.373  -4.175  0.00  0.00    -0.300 OA
ENDBRANCH  16  26
ENDBRANCH  15  21
ENDBRANCH   1  15
TORSDOF 7
