REMARK  Name = ZINCqH00000352rV.0
REMARK                            x       y       z     vdW  Elec       q    Type
REMARK                         _______ _______ _______ _____ _____    ______ ____
ROOT
ATOM      1  N   LIG    1       -0.524   1.433  -3.689  0.00  0.00    -0.640 N 
ATOM      2  H   LIG    1       -1.321   1.980  -3.768  0.00  0.00    +0.420 HD
ATOM      3  C   LIG    1       -0.047   1.107  -2.471  0.00  0.00    +0.510 C 
ATOM      4  O   LIG    1        0.949   0.422  -2.373  0.00  0.00    -0.500 OA
ENDROOT
BRANCH   1   6
ATOM      5  C   LIG    1       -0.279   1.254  -6.113  0.00  0.00    -0.200 A 
ATOM      6  C   LIG    1        0.125   0.986  -4.830  0.00  0.00    +0.050 A 
ATOM      7  S   LIG    1        1.530   0.020  -4.830  0.00  0.00    +0.310 S 
ATOM      8  C   LIG    1        1.592  -0.025  -6.583  0.00  0.00    -0.250 A 
ATOM      9  C   LIG    1        2.644  -0.749  -7.383  0.00  0.00    +0.150 C 
ATOM     10  C   LIG    1        0.589   0.663  -7.109  0.00  0.00    -0.050 A 
ATOM     11  C   LIG    1        0.371   0.811  -8.592  0.00  0.00    +0.120 C 
BRANCH   5  12
ATOM     12  C   LIG    1       -1.459   2.057  -6.440  0.00  0.00    +0.540 C 
ATOM     13  O   LIG    1       -1.357   3.261  -6.580  0.00  0.00    -0.490 OA
BRANCH  12  15
ATOM     14  C   LIG    1       -3.787   2.318  -6.910  0.00  0.00    +0.260 C 
ATOM     15  O   LIG    1       -2.660   1.461  -6.586  0.00  0.00    -0.350 OA
ENDBRANCH  12  15
ENDBRANCH   5  12
ENDBRANCH   1   6
BRANCH   3  16
ATOM     16  C   LIG    1       -0.753   1.593  -1.232  0.00  0.00    +0.080 C 
BRANCH  16  17
ATOM     17  C   LIG    1       -0.013   1.086   0.008  0.00  0.00    +0.120 C 
BRANCH  17  18
ATOM     18  C   LIG    1       -0.718   1.572   1.248  0.00  0.00    -0.080 A 
ATOM     19  C   LIG    1       -0.292   2.725   1.877  0.00  0.00    +0.030 A 
ATOM     20  C   LIG    1       -0.945   3.175   3.016  0.00  0.00    +0.100 A 
ATOM     21  C   LIG    1       -2.017   2.461   3.528  0.00  0.00    -0.040 A 
ATOM     22  C   LIG    1       -2.440   1.304   2.902  0.00  0.00    -0.040 A 
ATOM     23  C   LIG    1       -1.791   0.858   1.760  0.00  0.00    +0.100 A 
BRANCH  20  24
ATOM     24  O   LIG    1       -0.529   4.313   3.633  0.00  0.00    -0.320 OA
ATOM     25  C   LIG    1       -1.243   4.715   4.804  0.00  0.00    +0.240 C 
ENDBRANCH  20  24
BRANCH  23  26
ATOM     26  O   LIG    1       -2.207  -0.281   1.143  0.00  0.00    -0.310 OA
ATOM     27  C   LIG    1       -3.318  -0.965   1.726  0.00  0.00    +0.240 C 
ENDBRANCH  23  26
ENDBRANCH  17  18
ENDBRANCH  16  17
ENDBRANCH   3  16
TORSDOF 8
