REMARK  Name = ZINCrD000000AByi.0
REMARK                            x       y       z     vdW  Elec       q    Type
REMARK                         _______ _______ _______ _____ _____    ______ ____
ROOT
ATOM      1  O   LIG    1        5.543   4.867   2.322  0.00  0.00    -0.530 OA
ATOM      2  C   LIG    1        5.851   5.594   1.401  0.00  0.00    +0.510 C 
ATOM      3  N   LIG    1        6.385   6.806   1.650  0.00  0.00    -0.730 N 
ATOM      4  H   LIG    1        6.632   7.388   0.913  0.00  0.00    +0.400 HD
ENDROOT
BRANCH   3   5
ATOM      5  C   LIG    1        6.593   7.246   3.032  0.00  0.00    +0.260 C 
BRANCH   5   6
ATOM      6  C   LIG    1        7.207   8.648   3.034  0.00  0.00    +0.090 C 
BRANCH   6   7
ATOM      7  C   LIG    1        7.420   9.100   4.456  0.00  0.00    -0.060 A 
ATOM      8  C   LIG    1        6.481   9.864   5.077  0.00  0.00    +0.030 A 
ATOM      9  C   LIG    1        6.657  10.293   6.391  0.00  0.00    +0.020 A 
ATOM     10  C   LIG    1        7.776   9.958   7.091  0.00  0.00    +0.030 A 
ATOM     11  C   LIG    1        8.766   9.171   6.481  0.00  0.00    -0.100 A 
ATOM     12  C   LIG    1        9.937   8.802   7.170  0.00  0.00    +0.080 A 
ATOM     13  C   LIG    1       10.849   8.021   6.519  0.00  0.00    -0.030 A 
ATOM     14  C   LIG    1       10.613   7.626   5.204  0.00  0.00    +0.290 A 
ATOM     15  N   LIG    1        9.523   7.975   4.564  0.00  0.00    -0.470 NA
ATOM     16  C   LIG    1        8.586   8.729   5.147  0.00  0.00    +0.130 A 
ENDBRANCH   6   7
ENDBRANCH   5   6
ENDBRANCH   3   5
BRANCH   2  17
ATOM     17  C   LIG    1        5.638   5.141  -0.020  0.00  0.00    +0.150 C 
BRANCH  17  18
ATOM     18  C   LIG    1        5.034   3.761  -0.023  0.00  0.00    -0.210 A 
ATOM     19  C   LIG    1        3.712   3.471  -0.014  0.00  0.00    +0.250 A 
ATOM     20  N   LIG    1        3.586   2.125  -0.019  0.00  0.00    -0.320 N 
ATOM     21  N   LIG    1        4.873   1.572  -0.027  0.00  0.00    -0.290 NA
ATOM     22  C   LIG    1        5.739   2.553  -0.035  0.00  0.00    +0.260 A 
BRANCH  20  23
ATOM     23  C   LIG    1        2.381   1.409  -0.013  0.00  0.00    +0.160 A 
ATOM     24  C   LIG    1        1.169   2.087   0.002  0.00  0.00    -0.010 A 
ATOM     25  C   LIG    1       -0.017   1.379   0.010  0.00  0.00    +0.040 A 
ATOM     26  C   LIG    1        0.002  -0.004   0.002  0.00  0.00    +0.000 A 
ATOM     27  C   LIG    1        1.207  -0.682  -0.013  0.00  0.00    +0.040 A 
ATOM     28  C   LIG    1        2.396   0.021  -0.020  0.00  0.00    +0.020 A 
ENDBRANCH  20  23
ENDBRANCH  17  18
ENDBRANCH   2  17
TORSDOF 6
