REMARK  Name = ZINCb80000001CLX.0
REMARK                            x       y       z     vdW  Elec       q    Type
REMARK                         _______ _______ _______ _____ _____    ______ ____
ROOT
ATOM      1  C   LIG    1       -3.645   2.998   0.037  0.00  0.00    -0.130 A 
ATOM      2  C   LIG    1       -3.628   1.616   0.029  0.00  0.00    +0.060 A 
ATOM      3  C   LIG    1       -2.424   0.938   0.019  0.00  0.00    -0.080 A 
ATOM      4  C   LIG    1       -1.230   1.648   0.017  0.00  0.00    +0.220 A 
ATOM      5  C   LIG    1       -1.251   3.037   0.030  0.00  0.00    -0.080 A 
ATOM      6  C   LIG    1       -2.458   3.708   0.035  0.00  0.00    +0.060 A 
ENDROOT
BRANCH   4   7
ATOM      7  N   LIG    1       -0.011   0.966   0.007  0.00  0.00    -0.880 N 
ATOM      8  H   LIG    1        0.822   1.462   0.002  0.00  0.00    +0.400 HD
ATOM      9  H   LIG    1        0.002  -0.004   0.002  0.00  0.00    +0.400 HD
ENDBRANCH   4   7
BRANCH   1  10
ATOM     10  C   LIG    1       -4.960   3.734   0.048  0.00  0.00    +0.110 C 
BRANCH  10  14
ATOM     11  N   LIG    1       -6.546   4.617   1.728  0.00  0.00    -0.860 N 
ATOM     12  H   LIG    1       -6.823   4.769   2.646  0.00  0.00    +0.400 HD
ATOM     13  H   LIG    1       -7.100   4.929   0.996  0.00  0.00    +0.400 HD
ATOM     14  C   LIG    1       -5.391   3.971   1.472  0.00  0.00    +0.510 C 
ATOM     15  O   LIG    1       -4.698   3.581   2.388  0.00  0.00    -0.530 OA
ENDBRANCH  10  14
ENDBRANCH   1  10
TORSDOF 3
