REMARK  Name = ZINCpe000000TZGr.0
REMARK                            x       y       z     vdW  Elec       q    Type
REMARK                         _______ _______ _______ _____ _____    ______ ____
ROOT
ATOM      1  C   LIG    1        4.674  -2.293  -0.124  0.00  0.00    +0.520 C 
ATOM      2  N   LIG    1        4.217  -1.026  -0.080  0.00  0.00    -0.610 N 
ATOM      3  C   LIG    1        3.949  -0.364   1.207  0.00  0.00    +0.300 C 
ATOM      4  C   LIG    1        2.534   0.223   1.167  0.00  0.00    +0.180 C 
ATOM      5  N   LIG    1        2.399   1.085  -0.015  0.00  0.00    -0.490 N 
ATOM      6  C   LIG    1        2.556   0.315  -1.256  0.00  0.00    +0.180 C 
ATOM      7  C   LIG    1        3.971  -0.268  -1.316  0.00  0.00    +0.290 C 
ATOM      8  O   LIG    1        4.871  -2.903   0.906  0.00  0.00    -0.520 OA
ENDROOT
BRANCH   5   9
ATOM      9  C   LIG    1        1.182   1.765   0.000  0.00  0.00    +0.050 A 
ATOM     10  C   LIG    1       -0.013   1.076   0.008  0.00  0.00    +0.200 A 
ATOM     11  N   LIG    1       -1.178   1.707   0.017  0.00  0.00    -0.480 NA
ATOM     12  C   LIG    1       -1.280   3.015   0.030  0.00  0.00    +0.310 A 
ATOM     13  C   LIG    1       -0.124   3.813   0.023  0.00  0.00    -0.110 A 
ATOM     14  C   LIG    1       -0.190   5.216   0.030  0.00  0.00    +0.040 A 
ATOM     15  C   LIG    1        0.963   5.941   0.022  0.00  0.00    +0.020 A 
ATOM     16  C   LIG    1        2.207   5.315   0.008  0.00  0.00    +0.030 A 
ATOM     17  C   LIG    1        2.308   3.956   0.000  0.00  0.00    +0.050 A 
ATOM     18  C   LIG    1        1.144   3.178   0.008  0.00  0.00    -0.010 A 
ENDBRANCH   5   9
BRANCH   1  19
ATOM     19  C   LIG    1        4.942  -2.951  -1.453  0.00  0.00    +0.300 C 
BRANCH  19  20
ATOM     20  N   LIG    1        5.428  -4.316  -1.232  0.00  0.00    -1.110 NA
ATOM     21  H   LIG    1        5.737  -4.585  -0.353  0.00  0.00    +0.430 HD
BRANCH  20  22
ATOM     22  S   LIG    1        5.452  -5.398  -2.485  0.00  0.00    +2.610 S 
ATOM     23  O   LIG    1        4.140  -5.337  -3.026  0.00  0.00    -0.950 OA
ATOM     24  O   LIG    1        5.950  -6.596  -1.904  0.00  0.00    -0.950 OA
BRANCH  22  26
ATOM     25  C   LIG    1        6.769  -5.632  -4.871  0.00  0.00    +0.070 C 
ATOM     26  C   LIG    1        6.656  -4.710  -3.655  0.00  0.00    -0.360 C 
ENDBRANCH  22  26
ENDBRANCH  20  22
ENDBRANCH  19  20
ENDBRANCH   1  19
TORSDOF 5
