REMARK  Name = ZINCrD000000CHSW.0
REMARK                            x       y       z     vdW  Elec       q    Type
REMARK                         _______ _______ _______ _____ _____    ______ ____
ROOT
ATOM      1  C   LIG    1        1.117   1.984   0.059  0.00  0.00    -0.210 A 
ATOM      2  C   LIG    1        0.511   3.209   0.255  0.00  0.00    +0.040 A 
ATOM      3  N   LIG    1       -0.812   3.035   0.077  0.00  0.00    -0.280 N 
ATOM      4  N   LIG    1       -1.044   1.692  -0.238  0.00  0.00    -0.240 NA
ATOM      5  C   LIG    1        0.096   1.057  -0.247  0.00  0.00    +0.300 A 
ENDROOT
BRANCH   1   7
ATOM      6  O   LIG    1        3.198   2.090   1.111  0.00  0.00    -0.510 OA
ATOM      7  C   LIG    1        2.561   1.698   0.152  0.00  0.00    +0.590 C 
ATOM      8  N   LIG    1        3.174   1.004  -0.827  0.00  0.00    -0.610 N 
ATOM      9  C   LIG    1        2.452   0.622  -2.051  0.00  0.00    +0.250 C 
ATOM     10  C   LIG    1        3.299   1.050  -3.260  0.00  0.00    +0.220 C 
ATOM     11  O   LIG    1        4.622   0.528  -3.115  0.00  0.00    -0.380 OA
ATOM     12  C   LIG    1        5.324   1.024  -1.973  0.00  0.00    +0.220 C 
ATOM     13  C   LIG    1        4.583   0.599  -0.700  0.00  0.00    +0.270 C 
ENDBRANCH   1   7
BRANCH   3  14
ATOM     14  C   LIG    1       -1.791   4.032   0.185  0.00  0.00    +0.120 A 
ATOM     15  C   LIG    1       -1.577   5.281  -0.382  0.00  0.00    +0.050 A 
ATOM     16  C   LIG    1       -2.544   6.262  -0.275  0.00  0.00    +0.060 A 
ATOM     17  C   LIG    1       -3.724   6.000   0.396  0.00  0.00    +0.090 A 
ATOM     18  C   LIG    1       -3.940   4.757   0.962  0.00  0.00    -0.170 A 
ATOM     19  C   LIG    1       -2.979   3.771   0.854  0.00  0.00    +0.110 A 
BRANCH  18  20
ATOM     20  C   LIG    1       -5.228   4.476   1.692  0.00  0.00    +0.510 C 
ATOM     21  F   LIG    1       -4.947   4.137   3.019  0.00  0.00    -0.170 F 
ATOM     22  F   LIG    1       -5.895   3.414   1.070  0.00  0.00    -0.170 F 
ATOM     23  F   LIG    1       -6.039   5.616   1.663  0.00  0.00    -0.170 F 
ENDBRANCH  18  20
ENDBRANCH   3  14
BRANCH   2  24
ATOM     24  C   LIG    1        1.202   4.502   0.604  0.00  0.00    +0.530 C 
ATOM     25  F   LIG    1        1.487   5.209  -0.569  0.00  0.00    -0.160 F 
ATOM     26  F   LIG    1        2.393   4.225   1.283  0.00  0.00    -0.130 F 
ATOM     27  F   LIG    1        0.367   5.271   1.421  0.00  0.00    -0.160 F 
ENDBRANCH   2  24
TORSDOF 4
