REMARK  Name = ZINCpe000000XMhh.0
REMARK                            x       y       z     vdW  Elec       q    Type
REMARK                         _______ _______ _______ _____ _____    ______ ____
ROOT
ATOM      1  C   LIG    1        1.157   4.087   1.434  0.00  0.00    +0.520 C 
ATOM      2  N   LIG    1        1.142   5.410   1.688  0.00  0.00    -0.620 N 
ATOM      3  C   LIG    1        1.118   6.392   0.591  0.00  0.00    +0.250 C 
ATOM      4  C   LIG    1       -0.017   7.387   0.858  0.00  0.00    +0.220 C 
ATOM      5  O   LIG    1        0.121   7.915   2.179  0.00  0.00    -0.350 OA
ATOM      6  C   LIG    1        0.011   6.936   3.215  0.00  0.00    +0.140 C 
ATOM      7  C   LIG    1        1.142   5.917   3.069  0.00  0.00    +0.280 C 
ATOM      8  O   LIG    1        1.177   3.294   2.351  0.00  0.00    -0.520 OA
ENDROOT
BRANCH   1   9
ATOM      9  C   LIG    1        1.151   3.592   0.010  0.00  0.00    +0.100 C 
BRANCH   9  14
ATOM     10  C   LIG    1        1.229  -2.186  -0.021  0.00  0.00    +0.090 C 
ATOM     11  C   LIG    1        1.209  -0.679  -0.013  0.00  0.00    -0.080 A 
ATOM     12  C   LIG    1        2.396   0.028  -0.022  0.00  0.00    +0.010 A 
ATOM     13  C   LIG    1        2.377   1.411  -0.015  0.00  0.00    +0.010 A 
ATOM     14  C   LIG    1        1.171   2.085   0.002  0.00  0.00    -0.070 A 
ATOM     15  C   LIG    1       -0.017   1.378   0.010  0.00  0.00    +0.020 A 
ATOM     16  C   LIG    1        0.002  -0.004   0.002  0.00  0.00    -0.090 A 
ATOM     17  C   LIG    1       -1.293  -0.775   0.011  0.00  0.00    +0.080 C 
ENDBRANCH   9  14
ENDBRANCH   1   9
BRANCH   6  18
ATOM     18  C   LIG    1        0.112   7.622   4.579  0.00  0.00    +0.370 C 
BRANCH  18  19
ATOM     19  N   LIG    1       -1.037   8.512   4.764  0.00  0.00    -0.290 N 
ATOM     20  C   LIG    1       -1.905   8.479   5.801  0.00  0.00    +0.160 A 
ATOM     21  C   LIG    1       -2.801   9.469   5.574  0.00  0.00    -0.030 A 
ATOM     22  N   LIG    1       -2.445  10.045   4.420  0.00  0.00    -0.270 NA
ATOM     23  N   LIG    1       -1.397   9.455   3.966  0.00  0.00    -0.050 NA
BRANCH  21  24
ATOM     24  C   LIG    1       -3.971   9.844   6.446  0.00  0.00    +0.310 C 
BRANCH  24  25
ATOM     25  O   LIG    1       -4.006   8.988   7.590  0.00  0.00    -0.570 OA
ATOM     26  H   LIG    1       -4.736   9.173   8.197  0.00  0.00    +0.390 HD
ENDBRANCH  24  25
ENDBRANCH  21  24
ENDBRANCH  18  19
ENDBRANCH   6  18
TORSDOF 6
