REMARK  Name = ZINCrD000000CJDa.0
REMARK                            x       y       z     vdW  Elec       q    Type
REMARK                         _______ _______ _______ _____ _____    ______ ____
ROOT
ATOM      1  O   LIG    1        2.009   4.160   0.098  0.00  0.00    -0.510 OA
ATOM      2  C   LIG    1        0.997   3.493   0.012  0.00  0.00    +0.590 C 
ATOM      3  N   LIG    1       -0.204   4.099  -0.075  0.00  0.00    -0.600 N 
ATOM      4  C   LIG    1       -1.443   3.309  -0.069  0.00  0.00    +0.280 C 
ATOM      5  C   LIG    1       -2.276   3.689  -1.297  0.00  0.00    +0.030 C 
ATOM      6  C   LIG    1       -2.496   5.204  -1.310  0.00  0.00    +0.030 C 
ATOM      7  C   LIG    1       -1.145   5.917  -1.403  0.00  0.00    +0.260 C 
ATOM      8  C   LIG    1       -0.299   5.562  -0.171  0.00  0.00    +0.310 C 
ENDROOT
BRANCH   2   9
ATOM      9  C   LIG    1        1.083   2.016   0.002  0.00  0.00    +0.080 A 
ATOM     10  C   LIG    1        1.512   1.326  -1.157  0.00  0.00    -0.050 A 
ATOM     11  C   LIG    1        1.872   1.982  -2.338  0.00  0.00    +0.050 A 
ATOM     12  C   LIG    1        2.276   1.249  -3.414  0.00  0.00    +0.060 A 
ATOM     13  C   LIG    1        2.335  -0.142  -3.357  0.00  0.00    +0.050 A 
ATOM     14  C   LIG    1        1.990  -0.814  -2.223  0.00  0.00    +0.070 A 
ATOM     15  C   LIG    1        1.571  -0.092  -1.096  0.00  0.00    -0.080 A 
ATOM     16  C   LIG    1        1.200  -0.712   0.108  0.00  0.00    +0.290 A 
ATOM     17  N   LIG    1        0.817   0.036   1.123  0.00  0.00    -0.260 NA
ATOM     18  N   LIG    1        0.760   1.315   1.078  0.00  0.00    -0.230 NA
ENDBRANCH   2   9
BRANCH   7  19
ATOM     19  N   LIG    1       -1.358   7.365  -1.448  0.00  0.00    -0.350 N 
ATOM     20  C   LIG    1       -1.520   8.177  -0.383  0.00  0.00    +0.250 A 
ATOM     21  C   LIG    1       -1.685   9.438  -0.846  0.00  0.00    -0.070 A 
ATOM     22  C   LIG    1       -1.632   9.393  -2.243  0.00  0.00    -0.020 A 
ATOM     23  N   LIG    1       -1.436   8.151  -2.605  0.00  0.00    -0.230 NA
BRANCH  22  24
ATOM     24  C   LIG    1       -1.775  10.572  -3.171  0.00  0.00    +0.560 C 
ATOM     25  F   LIG    1       -0.702  11.449  -2.980  0.00  0.00    -0.170 F 
ATOM     26  F   LIG    1       -2.976  11.237  -2.898  0.00  0.00    -0.170 F 
ATOM     27  F   LIG    1       -1.781  10.124  -4.496  0.00  0.00    -0.170 F 
ENDBRANCH  22  24
ENDBRANCH   7  19
TORSDOF 3
