REMARK  Name = ZINCpk00000K7ibS.0
REMARK                            x       y       z     vdW  Elec       q    Type
REMARK                         _______ _______ _______ _____ _____    ______ ____
ROOT
ATOM      1  C   LIG    1        0.032   1.531  -0.020  0.00  0.00    +0.050 C 
ATOM      2  C   LIG    1        0.032   0.001  -0.018  0.00  0.00    +0.210 C 
ATOM      3  C   LIG    1        0.664  -0.514  -1.315  0.00  0.00    +0.020 C 
ATOM      4  C   LIG    1        0.788  -2.038  -1.247  0.00  0.00    +0.050 C 
ATOM      5  C   LIG    1        1.698  -2.426  -0.080  0.00  0.00    -0.030 C 
ATOM      6  C   LIG    1        1.078  -1.932   1.232  0.00  0.00    +0.290 C 
ATOM      7  N   LIG    1        0.821  -0.490   1.120  0.00  0.00    -0.610 N 
ATOM      8  C   LIG    1        1.300   0.366   2.044  0.00  0.00    +0.520 C 
ATOM      9  O   LIG    1        0.994   1.539   2.000  0.00  0.00    -0.510 OA
ENDROOT
BRANCH   5  10
ATOM     10  C   LIG    1        1.847  -3.925  -0.033  0.00  0.00    +0.520 C 
ATOM     11  O   LIG    1        1.282  -4.616  -0.855  0.00  0.00    -0.530 OA
ATOM     12  N   LIG    1        2.606  -4.497   0.922  0.00  0.00    -0.860 N 
ATOM     13  H   LIG    1        2.702  -5.462   0.952  0.00  0.00    +0.400 HD
ATOM     14  H   LIG    1        3.057  -3.945   1.579  0.00  0.00    +0.400 HD
ENDBRANCH   5  10
BRANCH   8  15
ATOM     15  C   LIG    1        2.216  -0.133   3.131  0.00  0.00    +0.100 C 
BRANCH  15  16
ATOM     16  C   LIG    1        2.606   1.015   4.026  0.00  0.00    -0.090 A 
ATOM     17  C   LIG    1        3.737   1.758   3.742  0.00  0.00    +0.050 A 
ATOM     18  C   LIG    1        4.094   2.814   4.558  0.00  0.00    +0.000 A 
ATOM     19  C   LIG    1        3.322   3.122   5.670  0.00  0.00    +0.170 A 
ATOM     20  C   LIG    1        2.190   2.369   5.956  0.00  0.00    -0.030 A 
ATOM     21  C   LIG    1        1.836   1.318   5.134  0.00  0.00    +0.040 A 
BRANCH  19  22
ATOM     22  N   LIG    1        3.683   4.188   6.502  0.00  0.00    -0.560 N 
ATOM     23  C   LIG    1        3.004   4.526   7.758  0.00  0.00    +0.260 C 
ATOM     24  C   LIG    1        3.437   5.972   8.085  0.00  0.00    +0.060 C 
ATOM     25  C   LIG    1        4.796   6.067   7.352  0.00  0.00    +0.070 C 
ATOM     26  C   LIG    1        4.701   5.031   6.255  0.00  0.00    +0.520 C 
ATOM     27  O   LIG    1        5.435   4.970   5.291  0.00  0.00    -0.510 OA
ENDBRANCH  19  22
ENDBRANCH  15  16
ENDBRANCH   8  15
TORSDOF 4
