REMARK  Name = ZINCvU0000000G9U.0
REMARK                            x       y       z     vdW  Elec       q    Type
REMARK                         _______ _______ _______ _____ _____    ______ ____
ROOT
ATOM      1  C   LIG    1        1.179   3.035  -0.343  0.00  0.00    -0.060 A 
ATOM      2  C   LIG    1       -0.011   3.753  -0.347  0.00  0.00    -0.020 A 
ATOM      3  C   LIG    1       -1.213   3.099  -0.172  0.00  0.00    +0.060 A 
ATOM      4  C   LIG    1       -1.245   1.724   0.002  0.00  0.00    -0.010 A 
ATOM      5  C   LIG    1       -0.076   0.995   0.014  0.00  0.00    +0.070 A 
ATOM      6  C   LIG    1        1.150   1.642  -0.161  0.00  0.00    -0.130 A 
ENDROOT
BRANCH   6   7
ATOM      7  C   LIG    1        2.404   0.869  -0.155  0.00  0.00    +0.550 C 
ATOM      8  N   LIG    1        2.371  -0.467   0.021  0.00  0.00    -0.670 N 
ATOM      9  H   LIG    1        1.520  -0.929   0.069  0.00  0.00    +0.410 HD
ATOM     10  O   LIG    1        3.469   1.436  -0.308  0.00  0.00    -0.490 OA
BRANCH   8  11
ATOM     11  C   LIG    1        3.565  -1.187   0.133  0.00  0.00    +0.150 A 
ATOM     12  C   LIG    1        4.672  -0.610   0.742  0.00  0.00    +0.020 A 
ATOM     13  C   LIG    1        5.847  -1.326   0.851  0.00  0.00    +0.030 A 
ATOM     14  C   LIG    1        5.928  -2.617   0.356  0.00  0.00    -0.110 A 
ATOM     15  C   LIG    1        7.084  -3.594   0.353  0.00  0.00    +0.080 C 
ATOM     16  C   LIG    1        6.711  -4.658  -0.701  0.00  0.00    +0.030 C 
ATOM     17  C   LIG    1        5.169  -4.599  -0.702  0.00  0.00    +0.080 C 
ATOM     18  C   LIG    1        4.827  -3.195  -0.251  0.00  0.00    -0.080 A 
ATOM     19  C   LIG    1        3.645  -2.483  -0.357  0.00  0.00    -0.010 A 
ENDBRANCH   8  11
ENDBRANCH   6   7
BRANCH   1  20
ATOM     20  S   LIG    1        2.716   3.867  -0.565  0.00  0.00    +0.090 S 
BRANCH  20  21
ATOM     21  C   LIG    1        2.218   5.601  -0.752  0.00  0.00    +0.030 C 
BRANCH  21  24
ATOM     22  N   LIG    1        3.314   7.789  -1.116  0.00  0.00    -0.670 N 
ATOM     23  H   LIG    1        2.432   8.188  -1.170  0.00  0.00    +0.420 HD
ATOM     24  C   LIG    1        3.442   6.457  -0.954  0.00  0.00    +0.540 C 
ATOM     25  O   LIG    1        4.542   5.947  -0.970  0.00  0.00    -0.490 OA
BRANCH  22  30
ATOM     26  C   LIG    1        6.723   8.929  -1.934  0.00  0.00    -0.010 A 
ATOM     27  C   LIG    1        6.707  10.210  -1.379  0.00  0.00    +0.060 A 
ATOM     28  C   LIG    1        5.571  10.673  -0.745  0.00  0.00    +0.040 A 
ATOM     29  C   LIG    1        4.446   9.874  -0.662  0.00  0.00    +0.030 A 
ATOM     30  C   LIG    1        4.454   8.595  -1.207  0.00  0.00    +0.140 A 
ATOM     31  C   LIG    1        5.589   8.121  -1.846  0.00  0.00    +0.080 A 
BRANCH  26  33
ATOM     32  N   LIG    1        8.833   8.065  -3.115  0.00  0.00    -0.410 NA
ATOM     33  C   LIG    1        7.900   8.447  -2.593  0.00  0.00    +0.250 C 
ENDBRANCH  26  33
ENDBRANCH  22  30
ENDBRANCH  21  24
ENDBRANCH  20  21
ENDBRANCH   1  20
TORSDOF 7
