REMARK  Name = ZINCqH0000051aZF.0
REMARK                            x       y       z     vdW  Elec       q    Type
REMARK                         _______ _______ _______ _____ _____    ______ ____
ROOT
ATOM      1  C   LIG    1       -1.526   7.453  -0.365  0.00  0.00    +0.520 C 
ATOM      2  O   LIG    1       -0.562   8.193  -0.385  0.00  0.00    -0.500 OA
ENDROOT
BRANCH   1   3
ATOM      3  C   LIG    1       -2.886   8.012  -0.452  0.00  0.00    -0.140 A 
ATOM      4  C   LIG    1       -4.007   7.186  -0.432  0.00  0.00    +0.120 A 
ATOM      5  C   LIG    1       -5.298   7.696  -0.513  0.00  0.00    -0.010 A 
ATOM      6  C   LIG    1       -5.526   9.037  -0.616  0.00  0.00    -0.030 A 
ATOM      7  C   LIG    1       -6.772   9.884  -0.719  0.00  0.00    +0.090 C 
ATOM      8  C   LIG    1       -6.269  11.341  -0.804  0.00  0.00    +0.100 C 
ATOM      9  C   LIG    1       -4.764  11.248  -0.745  0.00  0.00    -0.070 A 
ATOM     10  C   LIG    1       -3.748  12.154  -0.772  0.00  0.00    +0.020 A 
ATOM     11  C   LIG    1       -2.421  11.729  -0.697  0.00  0.00    +0.030 A 
ATOM     12  C   LIG    1       -2.084  10.407  -0.593  0.00  0.00    +0.030 A 
ATOM     13  C   LIG    1       -4.435   9.901  -0.639  0.00  0.00    -0.100 A 
ATOM     14  C   LIG    1       -3.106   9.453  -0.555  0.00  0.00    +0.010 A 
ENDBRANCH   1   3
BRANCH   1  15
ATOM     15  O   LIG    1       -1.350   6.121  -0.266  0.00  0.00    -0.330 OA
BRANCH  15  16
ATOM     16  C   LIG    1        0.018   5.640  -0.184  0.00  0.00    +0.270 C 
BRANCH  16  18
ATOM     17  O   LIG    1       -1.033   3.530  -0.072  0.00  0.00    -0.440 OA
ATOM     18  C   LIG    1        0.017   4.137  -0.079  0.00  0.00    +0.510 C 
ATOM     19  N   LIG    1        1.183   3.467   0.009  0.00  0.00    -0.660 N 
ATOM     20  H   LIG    1        2.019   3.955   0.078  0.00  0.00    +0.420 HD
BRANCH  19  21
ATOM     21  C   LIG    1        1.188   2.072   0.000  0.00  0.00    +0.360 A 
ATOM     22  C   LIG    1        2.398   1.389  -0.017  0.00  0.00    -0.040 A 
ATOM     23  C   LIG    1        2.390   0.005  -0.025  0.00  0.00    +0.110 A 
ATOM     24  C   LIG    1        1.165  -0.650  -0.016  0.00  0.00    -0.120 A 
ATOM     25  C   LIG    1        0.001   0.094   0.000  0.00  0.00    +0.320 A 
ATOM     26 CL   LIG    1        1.098  -2.385  -0.026  0.00  0.00    -0.050 Cl
ATOM     27  N   LIG    1        0.041   1.413   0.007  0.00  0.00    -0.460 NA
ENDBRANCH  19  21
ENDBRANCH  16  18
ENDBRANCH  15  16
ENDBRANCH   1  15
TORSDOF 5
