REMARK  Name = ZINCvU00000004vo.0
REMARK                            x       y       z     vdW  Elec       q    Type
REMARK                         _______ _______ _______ _____ _____    ______ ____
ROOT
ATOM      1  C   LIG    1       -1.725   5.250   0.047  0.00  0.00    +0.290 A 
ATOM      2  N   LIG    1       -2.232   4.052   0.045  0.00  0.00    -0.480 NA
ATOM      3  C   LIG    1       -1.233   3.133   0.031  0.00  0.00    +0.050 A 
ATOM      4  C   LIG    1       -1.209   1.736   0.017  0.00  0.00    +0.070 A 
ATOM      5  C   LIG    1       -0.013   1.076   0.008  0.00  0.00    +0.000 A 
ATOM      6  C   LIG    1        1.183   1.779   0.000  0.00  0.00    +0.030 A 
ATOM      7  C   LIG    1        1.184   3.158   0.008  0.00  0.00    +0.010 A 
ATOM      8  C   LIG    1       -0.022   3.845   0.023  0.00  0.00    +0.050 A 
ATOM      9  N   LIG    1       -0.366   5.182   0.033  0.00  0.00    -0.480 N 
ENDROOT
BRANCH   1  12
ATOM     10  N   LIG    1       -4.710   7.236  -0.628  0.00  0.00    -0.620 N 
ATOM     11  C   LIG    1       -3.498   6.583  -1.138  0.00  0.00    +0.290 C 
ATOM     12  C   LIG    1       -2.526   6.527   0.061  0.00  0.00    +0.090 C 
ATOM     13  C   LIG    1       -3.501   6.554   1.261  0.00  0.00    +0.090 C 
ATOM     14  C   LIG    1       -4.740   7.230   0.716  0.00  0.00    +0.520 C 
ATOM     15  O   LIG    1       -5.631   7.698   1.393  0.00  0.00    -0.520 OA
BRANCH  10  16
ATOM     16  C   LIG    1       -5.752   7.821  -1.475  0.00  0.00    +0.290 C 
BRANCH  16  17
ATOM     17  C   LIG    1       -5.423   9.290  -1.748  0.00  0.00    -0.010 C 
BRANCH  17  19
ATOM     18  C   LIG    1       -6.183  11.370  -2.906  0.00  0.00    +0.010 C 
ATOM     19  C   LIG    1       -6.512   9.900  -2.633  0.00  0.00    +0.010 C 
ENDBRANCH  17  19
ENDBRANCH  16  17
ENDBRANCH  10  16
ENDBRANCH   1  12
BRANCH   9  20
ATOM     20  C   LIG    1        0.559   6.317   0.030  0.00  0.00    +0.310 C 
BRANCH  20  21
ATOM     21  C   LIG    1        0.868   6.720  -1.413  0.00  0.00    +0.020 C 
BRANCH  21  22
ATOM     22  C   LIG    1        1.835   7.906  -1.417  0.00  0.00    +0.040 C 
BRANCH  22  23
ATOM     23  C   LIG    1        2.144   8.308  -2.860  0.00  0.00    +0.180 C 
BRANCH  23  24
ATOM     24  O   LIG    1        3.047   9.415  -2.863  0.00  0.00    -0.310 OA
BRANCH  24  25
ATOM     25  C   LIG    1        3.425   9.900  -4.075  0.00  0.00    +0.130 A 
ATOM     26  C   LIG    1        2.937   9.321  -5.238  0.00  0.00    -0.080 A 
ATOM     27  C   LIG    1        3.323   9.815  -6.469  0.00  0.00    +0.030 A 
ATOM     28  C   LIG    1        4.195  10.885  -6.543  0.00  0.00    -0.030 A 
ATOM     29  C   LIG    1        4.683  11.464  -5.386  0.00  0.00    +0.050 A 
ATOM     30  C   LIG    1        4.296  10.977  -4.152  0.00  0.00    -0.120 A 
ATOM     31  C   LIG    1        4.822  11.613  -2.891  0.00  0.00    +0.100 C 
ENDBRANCH  24  25
ENDBRANCH  23  24
ENDBRANCH  22  23
ENDBRANCH  21  22
ENDBRANCH  20  21
ENDBRANCH   9  20
TORSDOF 10
