REMARK  Name = ZINCtV00000tRPVB.0
REMARK                            x       y       z     vdW  Elec       q    Type
REMARK                         _______ _______ _______ _____ _____    ______ ____
ROOT
ATOM      1  C   LIG    1       -0.019   1.207   0.033  0.00  0.00    +0.320 A 
ATOM      2  C   LIG    1       -0.052  -0.073   0.494  0.00  0.00    -0.390 A 
ATOM      3  S   LIG    1        1.517  -0.563   1.101  0.00  0.00    +0.200 S 
ATOM      4  C   LIG    1        2.236   0.998   0.723  0.00  0.00    +0.090 A 
ATOM      5  N   LIG    1        3.485   1.432   0.904  0.00  0.00    -0.450 NA
ATOM      6  C   LIG    1        3.856   2.650   0.559  0.00  0.00    +0.230 A 
ATOM      7  C   LIG    1        2.947   3.553  -0.017  0.00  0.00    -0.130 A 
ATOM      8  C   LIG    1        3.442   4.930  -0.372  0.00  0.00    +0.090 C 
ATOM      9  C   LIG    1        2.487   5.605  -1.354  0.00  0.00    +0.030 C 
ATOM     10  C   LIG    1        1.064   5.508  -0.791  0.00  0.00    +0.030 C 
ATOM     11  C   LIG    1        0.623   4.045  -0.846  0.00  0.00    +0.080 C 
ATOM     12  C   LIG    1        1.666   3.157  -0.226  0.00  0.00    +0.030 A 
ATOM     13  C   LIG    1        1.280   1.845   0.152  0.00  0.00    -0.180 A 
ENDROOT
BRANCH   6  14
ATOM     14  C   LIG    1        5.258   3.075   0.785  0.00  0.00    -0.050 A 
ATOM     15  C   LIG    1        6.309   2.217   0.464  0.00  0.00    +0.050 A 
ATOM     16  C   LIG    1        7.612   2.620   0.672  0.00  0.00    +0.010 A 
ATOM     17  C   LIG    1        7.877   3.868   1.209  0.00  0.00    +0.030 A 
ATOM     18  C   LIG    1        6.837   4.721   1.534  0.00  0.00    +0.010 A 
ATOM     19  C   LIG    1        5.530   4.331   1.326  0.00  0.00    +0.030 A 
ENDBRANCH   6  14
BRANCH   1  20
ATOM     20  N   LIG    1       -1.125   1.843  -0.507  0.00  0.00    -0.830 N 
ATOM     21  H   LIG    1       -1.007   2.608  -1.093  0.00  0.00    +0.400 HD
ATOM     22  H   LIG    1       -2.018   1.525  -0.300  0.00  0.00    +0.420 HD
ENDBRANCH   1  20
BRANCH   2  23
ATOM     23  C   LIG    1       -1.200  -0.898   0.485  0.00  0.00    +0.480 C 
ATOM     24  O   LIG    1       -2.278  -0.438   0.152  0.00  0.00    -0.470 OA
BRANCH  23  25
ATOM     25  C   LIG    1       -1.092  -2.320   0.879  0.00  0.00    -0.140 A 
ATOM     26  C   LIG    1       -2.158  -2.953   1.520  0.00  0.00    +0.080 A 
ATOM     27  C   LIG    1       -2.052  -4.279   1.885  0.00  0.00    +0.030 A 
ATOM     28  C   LIG    1       -0.892  -4.983   1.615  0.00  0.00    +0.050 A 
ATOM     29  C   LIG    1        0.170  -4.362   0.979  0.00  0.00    -0.040 A 
ATOM     30 CL   LIG    1        1.622  -5.254   0.646  0.00  0.00    -0.060 Cl
ATOM     31  C   LIG    1        0.074  -3.037   0.605  0.00  0.00    +0.070 A 
ENDBRANCH  23  25
ENDBRANCH   2  23
TORSDOF 4
