REMARK  Name = ZINCqH00000057gD.0
REMARK                            x       y       z     vdW  Elec       q    Type
REMARK                         _______ _______ _______ _____ _____    ______ ____
ROOT
ATOM      1  N   LIG    1        0.366   1.077   0.914  0.00  0.00    -0.600 N 
ATOM      2  C   LIG    1       -0.845   0.587   0.583  0.00  0.00    +0.580 C 
ATOM      3  O   LIG    1       -1.835   1.283   0.700  0.00  0.00    -0.520 OA
ENDROOT
BRANCH   2   4
ATOM      4  C   LIG    1       -0.969  -0.797   0.079  0.00  0.00    -0.150 A 
ATOM      5  C   LIG    1       -1.535  -1.048  -1.171  0.00  0.00    +0.350 A 
ATOM      6  N   LIG    1       -1.642  -2.280  -1.624  0.00  0.00    -0.470 NA
ATOM      7  C   LIG    1       -1.233  -3.319  -0.920  0.00  0.00    +0.320 A 
ATOM      8  C   LIG    1       -0.665  -3.155   0.332  0.00  0.00    -0.150 A 
ATOM      9 BR   LIG    1       -0.086  -4.657   1.323  0.00  0.00    -0.030 Br
ATOM     10  C   LIG    1       -0.526  -1.878   0.850  0.00  0.00    +0.130 A 
ENDBRANCH   2   4
BRANCH   1  11
ATOM     11  C   LIG    1        0.483   2.430   1.465  0.00  0.00    +0.340 C 
BRANCH  11  15
ATOM     12  C   LIG    1       -0.048   2.293   5.704  0.00  0.00    +0.220 A 
ATOM     13  C   LIG    1        1.229   2.235   5.160  0.00  0.00    -0.080 A 
ATOM     14  C   LIG    1        1.397   2.279   3.790  0.00  0.00    +0.060 A 
ATOM     15  C   LIG    1        0.296   2.382   2.959  0.00  0.00    -0.170 A 
ATOM     16  C   LIG    1       -0.976   2.446   3.498  0.00  0.00    +0.090 A 
ATOM     17  C   LIG    1       -1.152   2.396   4.867  0.00  0.00    -0.080 A 
BRANCH  12  19
ATOM     18  C   LIG    1        0.945   2.272   7.975  0.00  0.00    +0.280 C 
ATOM     19  N   LIG    1       -0.222   2.248   7.089  0.00  0.00    -0.640 N 
ATOM     20  C   LIG    1       -1.571   2.177   7.656  0.00  0.00    +0.280 C 
ENDBRANCH  12  19
ENDBRANCH  11  15
ENDBRANCH   1  11
BRANCH   1  21
ATOM     21  C   LIG    1        1.566   0.258   0.723  0.00  0.00    +0.290 C 
BRANCH  21  22
ATOM     22  C   LIG    1        2.176   0.559  -0.647  0.00  0.00    +0.130 C 
ATOM     23  C   LIG    1        3.531  -0.163  -0.787  0.00  0.00    +0.010 C 
ATOM     24  C   LIG    1        3.352  -1.066  -2.031  0.00  0.00    +0.010 C 
ATOM     25  C   LIG    1        2.170  -0.381  -2.763  0.00  0.00    +0.200 C 
ATOM     26  O   LIG    1        1.315   0.064  -1.685  0.00  0.00    -0.370 OA
ENDBRANCH  21  22
ENDBRANCH   1  21
TORSDOF 6
