REMARK  Name = ZINCqH0000034CJM.0
REMARK                            x       y       z     vdW  Elec       q    Type
REMARK                         _______ _______ _______ _____ _____    ______ ____
ROOT
ATOM      1  N   LIG    1       -1.113   1.849   0.017  0.00  0.00    -0.370 N 
ATOM      2  C   LIG    1       -0.013   1.076   0.008  0.00  0.00    +0.490 A 
ATOM      3  N   LIG    1        1.036   1.855   0.002  0.00  0.00    -0.530 NA
ATOM      4  C   LIG    1        0.648   3.138   0.012  0.00  0.00    +0.250 A 
ATOM      5  N   LIG    1       -0.666   3.180   0.025  0.00  0.00    -0.280 NA
ENDROOT
BRANCH   4   6
ATOM      6  C   LIG    1        1.551   4.315   0.010  0.00  0.00    -0.010 A 
ATOM      7  C   LIG    1        1.021   5.603   0.022  0.00  0.00    +0.110 A 
ATOM      8  C   LIG    1        1.866   6.695   0.021  0.00  0.00    +0.040 A 
ATOM      9  C   LIG    1        3.236   6.512   0.008  0.00  0.00    +0.120 A 
ATOM     10  C   LIG    1        3.768   5.235  -0.004  0.00  0.00    -0.050 A 
ATOM     11  C   LIG    1        2.933   4.136   0.002  0.00  0.00    +0.150 A 
BRANCH  10  12
ATOM     12  N   LIG    1        5.237   5.046  -0.017  0.00  0.00    +0.030 N 
ATOM     13  O   LIG    1        5.706   3.922  -0.027  0.00  0.00    -0.150 OA
ATOM     14  O   LIG    1        5.975   6.015  -0.018  0.00  0.00    -0.160 OA
ENDBRANCH  10  12
ENDBRANCH   4   6
BRANCH   1  15
ATOM     15  C   LIG    1       -2.505   1.392   0.020  0.00  0.00    +0.500 C 
BRANCH  15  17
ATOM     16  C   LIG    1       -2.296   0.322   2.182  0.00  0.00    +0.200 C 
ATOM     17  N   LIG    1       -3.002   1.346   1.402  0.00  0.00    -0.540 NA
BRANCH  17  18
ATOM     18  C   LIG    1       -4.454   1.123   1.433  0.00  0.00    +0.260 C 
BRANCH  18  19
ATOM     19  C   LIG    1       -4.964   1.326   2.836  0.00  0.00    -0.110 A 
ATOM     20  C   LIG    1       -5.020   0.257   3.713  0.00  0.00    +0.120 A 
ATOM     21  C   LIG    1       -5.484   0.446   5.005  0.00  0.00    -0.010 A 
ATOM     22  C   LIG    1       -5.900   1.699   5.413  0.00  0.00    +0.080 A 
ATOM     23  C   LIG    1       -5.850   2.765   4.535  0.00  0.00    +0.020 A 
ATOM     24  F   LIG    1       -4.618  -0.968   3.312  0.00  0.00    -0.130 F 
ATOM     25  C   LIG    1       -5.381   2.580   3.246  0.00  0.00    +0.010 A 
ATOM     26 CL   LIG    1       -5.318   3.919   2.144  0.00  0.00    -0.040 Cl
ENDBRANCH  18  19
ENDBRANCH  17  18
ENDBRANCH  15  17
ENDBRANCH   1  15
TORSDOF 6
