REMARK  Name = ZINCpk000004AMSV.0
REMARK                            x       y       z     vdW  Elec       q    Type
REMARK                         _______ _______ _______ _____ _____    ______ ____
ROOT
ATOM      1  C   LIG    1        4.426   3.843   1.173  0.00  0.00    +0.500 C 
ATOM      2  N   LIG    1        3.268   3.154   1.181  0.00  0.00    -0.610 N 
ATOM      3  C   LIG    1        3.272   1.684   1.173  0.00  0.00    +0.290 C 
ATOM      4  C   LIG    1        2.433   1.197  -0.015  0.00  0.00    +0.290 C 
ATOM      5  N   LIG    1        1.143   1.901   0.001  0.00  0.00    -0.600 N 
ATOM      6  C   LIG    1        1.139   3.371   0.003  0.00  0.00    +0.260 C 
ATOM      7  C   LIG    1       -0.014   1.212   0.009  0.00  0.00    +0.570 C 
ATOM      8  O   LIG    1        0.002  -0.004   0.002  0.00  0.00    -0.510 OA
ATOM      9  C   LIG    1        1.978   3.858   1.197  0.00  0.00    +0.270 C 
ATOM     10  O   LIG    1        5.484   3.251   1.159  0.00  0.00    -0.520 OA
ENDROOT
BRANCH   7  11
ATOM     11  C   LIG    1       -1.303   1.932   0.019  0.00  0.00    -0.160 A 
ATOM     12  C   LIG    1       -1.919   2.287  -1.185  0.00  0.00    +0.140 A 
ATOM     13  C   LIG    1       -3.128   2.958  -1.167  0.00  0.00    +0.000 A 
ATOM     14  C   LIG    1       -3.721   3.287   0.038  0.00  0.00    +0.090 A 
ATOM     15  C   LIG    1       -3.115   2.943   1.233  0.00  0.00    +0.030 A 
ATOM     16  F   LIG    1       -1.337   1.972  -2.363  0.00  0.00    -0.120 F 
ATOM     17  C   LIG    1       -1.910   2.269   1.232  0.00  0.00    +0.020 A 
ATOM     18 CL   LIG    1       -1.151   1.840   2.733  0.00  0.00    -0.040 Cl
ENDBRANCH   7  11
BRANCH   1  19
ATOM     19  C   LIG    1        4.405   5.350   1.180  0.00  0.00    +0.330 C 
BRANCH  19  21
ATOM     20  C   LIG    1        6.400   6.096  -0.003  0.00  0.00    +0.550 C 
ATOM     21  N   LIG    1        5.779   5.857   1.169  0.00  0.00    -0.600 N 
ATOM     22  C   LIG    1        6.479   6.104   2.432  0.00  0.00    +0.290 C 
ATOM     23  O   LIG    1        5.819   5.891  -1.052  0.00  0.00    -0.540 OA
BRANCH  20  25
ATOM     24  C   LIG    1        8.392   6.841  -1.172  0.00  0.00    +0.140 C 
ATOM     25  C   LIG    1        7.780   6.606  -0.015  0.00  0.00    -0.090 C 
ENDBRANCH  20  25
ENDBRANCH  19  21
ENDBRANCH   1  19
TORSDOF 4
