REMARK  Name = ZINCpe00000gMe97.2
REMARK                            x       y       z     vdW  Elec       q    Type
REMARK                         _______ _______ _______ _____ _____    ______ ____
ROOT
ATOM      1  C   LIG    1        2.438   5.798   1.135  0.00  0.00    +0.520 C 
ATOM      2  N   LIG    1        1.845   6.373   2.201  0.00  0.00    -0.620 N 
ATOM      3  C   LIG    1        1.642   5.620   3.448  0.00  0.00    +0.290 C 
ATOM      4  C   LIG    1        2.197   6.457   4.612  0.00  0.00    +0.110 C 
ATOM      5  N   LIG    1        1.584   7.792   4.585  0.00  0.00    -0.520 NA
ATOM      6  C   LIG    1        1.939   8.517   3.358  0.00  0.00    +0.140 C 
ATOM      7  C   LIG    1        1.344   9.925   3.407  0.00  0.00    +0.040 C 
ATOM      8  C   LIG    1        1.866   5.769   5.938  0.00  0.00    +0.040 C 
ATOM      9  C   LIG    1        1.378   7.766   2.145  0.00  0.00    +0.280 C 
ATOM     10  O   LIG    1        2.593   6.432   0.113  0.00  0.00    -0.540 OA
ENDROOT
BRANCH   1  11
ATOM     11  C   LIG    1        2.909   4.369   1.215  0.00  0.00    +0.060 C 
BRANCH  11  12
ATOM     12  C   LIG    1        3.541   3.966  -0.119  0.00  0.00    +0.090 C 
BRANCH  12  17
ATOM     13  C   LIG    1        5.727   0.932   0.461  0.00  0.00    -0.130 A 
ATOM     14  C   LIG    1        4.861  -0.101   0.099  0.00  0.00    +0.040 A 
ATOM     15  C   LIG    1        3.582   0.193  -0.327  0.00  0.00    +0.010 A 
ATOM     16  C   LIG    1        3.158   1.508  -0.397  0.00  0.00    +0.040 A 
ATOM     17  C   LIG    1        4.012   2.536  -0.040  0.00  0.00    -0.090 A 
ATOM     18  C   LIG    1        5.293   2.256   0.389  0.00  0.00    +0.080 A 
BRANCH  13  22
ATOM     19  C   LIG    1        8.874  -0.960   1.444  0.00  0.00    +0.290 C 
ATOM     20  N   LIG    1        7.515  -0.656   0.989  0.00  0.00    -0.730 N 
ATOM     21  H   LIG    1        6.915  -1.375   0.738  0.00  0.00    +0.400 HD
ATOM     22  C   LIG    1        7.099   0.624   0.920  0.00  0.00    +0.560 C 
ATOM     23  O   LIG    1        7.851   1.526   1.235  0.00  0.00    -0.530 OA
ENDBRANCH  13  22
ENDBRANCH  12  17
ENDBRANCH  11  12
ENDBRANCH   1  11
BRANCH   5  24
ATOM     24  C   LIG    1        1.953   8.564   5.779  0.00  0.00    +0.230 C 
BRANCH  24  25
ATOM     25  C   LIG    1        3.471   8.516   5.968  0.00  0.00    +0.130 C 
BRANCH  25  26
ATOM     26  O   LIG    1        4.108   9.212   4.895  0.00  0.00    -0.570 OA
ATOM     27  H   LIG    1        5.067   9.288   4.990  0.00  0.00    +0.380 HD
ENDBRANCH  25  26
ENDBRANCH  24  25
ENDBRANCH   5  24
TORSDOF 7
