REMARK  Name = ZINCvU0000000H7S.0
REMARK                            x       y       z     vdW  Elec       q    Type
REMARK                         _______ _______ _______ _____ _____    ______ ____
ROOT
ATOM      1  C   LIG    1        3.659   2.182   0.122  0.00  0.00    +0.180 C 
ATOM      2  C   LIG    1        3.631   3.523  -0.117  0.00  0.00    -0.140 C 
ENDROOT
BRANCH   1   8
ATOM      3  C   LIG    1        2.148   0.204   0.040  0.00  0.00    +0.150 A 
ATOM      4  C   LIG    1        0.991  -0.444   0.443  0.00  0.00    -0.080 A 
ATOM      5  C   LIG    1        0.128   0.168   1.332  0.00  0.00    +0.070 A 
ATOM      6  C   LIG    1        0.409   1.431   1.828  0.00  0.00    -0.030 A 
ATOM      7  C   LIG    1        1.554   2.092   1.440  0.00  0.00    +0.090 A 
ATOM      8  C   LIG    1        2.438   1.485   0.540  0.00  0.00    -0.120 A 
BRANCH   3  10
ATOM      9  C   LIG    1        2.634  -1.697  -1.299  0.00  0.00    +0.250 C 
ATOM     10  O   LIG    1        2.996  -0.395  -0.834  0.00  0.00    -0.310 OA
ENDBRANCH   3  10
ENDBRANCH   1   8
BRANCH   2  11
ATOM     11  C   LIG    1        2.341   4.251  -0.101  0.00  0.00    -0.040 A 
ATOM     12  C   LIG    1        1.384   4.002  -1.085  0.00  0.00    +0.020 A 
ATOM     13  C   LIG    1        0.182   4.679  -1.061  0.00  0.00    +0.000 A 
ATOM     14  C   LIG    1       -0.071   5.611  -0.071  0.00  0.00    +0.010 A 
ATOM     15  C   LIG    1        0.877   5.867   0.904  0.00  0.00    +0.000 A 
ATOM     16  C   LIG    1        2.080   5.192   0.895  0.00  0.00    +0.020 A 
ENDBRANCH   2  11
BRANCH   2  17
ATOM     17  C   LIG    1        4.879   4.247  -0.390  0.00  0.00    +0.510 C 
ATOM     18  O   LIG    1        5.938   3.649  -0.403  0.00  0.00    -0.510 OA
BRANCH  17  19
ATOM     19  O   LIG    1        4.851   5.574  -0.626  0.00  0.00    -0.340 OA
BRANCH  19  20
ATOM     20  C   LIG    1        6.122   6.224  -0.888  0.00  0.00    +0.210 C 
BRANCH  20  21
ATOM     21  C   LIG    1        5.891   7.717  -1.131  0.00  0.00    +0.050 C 
BRANCH  21  22
ATOM     22  C   LIG    1        7.231   8.402  -1.408  0.00  0.00    +0.060 C 
BRANCH  22  23
ATOM     23  C   LIG    1        7.004   9.872  -1.647  0.00  0.00    +0.400 C 
ATOM     24  O   LIG    1        5.881  10.328  -1.601  0.00  0.00    -0.440 OA
BRANCH  23  25
ATOM     25  C   LIG    1        8.143  10.755  -1.936  0.00  0.00    -0.180 A 
ATOM     26  C   LIG    1        9.441  10.234  -1.984  0.00  0.00    +0.100 A 
ATOM     27  C   LIG    1       10.504  11.065  -2.260  0.00  0.00    -0.030 A 
ATOM     28  C   LIG    1       10.292  12.418  -2.480  0.00  0.00    +0.130 A 
ATOM     29  C   LIG    1        9.008  12.942  -2.429  0.00  0.00    -0.030 A 
ATOM     30  F   LIG    1       11.339  13.229  -2.745  0.00  0.00    -0.130 F 
ATOM     31  C   LIG    1        7.936  12.121  -2.159  0.00  0.00    +0.120 A 
ENDBRANCH  23  25
ENDBRANCH  22  23
ENDBRANCH  21  22
ENDBRANCH  20  21
ENDBRANCH  19  20
ENDBRANCH  17  19
ENDBRANCH   2  17
TORSDOF 10
