REMARK  Name = ZINCvU0000000Fpi.0
REMARK                            x       y       z     vdW  Elec       q    Type
REMARK                         _______ _______ _______ _____ _____    ______ ____
ROOT
ATOM      1  C   LIG    1       -0.539   4.581  -1.174  0.00  0.00    +0.290 A 
ATOM      2  N   LIG    1       -1.678   5.190  -1.278  0.00  0.00    -0.470 NA
ATOM      3  C   LIG    1       -2.093   5.479  -2.497  0.00  0.00    +0.090 A 
ATOM      4  C   LIG    1       -1.269   5.086  -3.471  0.00  0.00    -0.080 A 
ATOM      5  S   LIG    1        0.122   4.303  -2.726  0.00  0.00    +0.150 S 
ENDROOT
BRANCH   1   6
ATOM      6  N   LIG    1        0.056   4.202   0.025  0.00  0.00    -0.470 N 
ATOM      7  C   LIG    1       -0.504   4.559   1.197  0.00  0.00    +0.520 C 
ATOM      8  O   LIG    1       -1.574   5.130   1.209  0.00  0.00    -0.470 OA
ATOM      9  C   LIG    1        0.199   4.249   2.494  0.00  0.00    +0.110 C 
BRANCH   6  15
ATOM     10  C   LIG    1        1.181   2.057   0.008  0.00  0.00    +0.150 A 
ATOM     11  C   LIG    1        2.353   1.318   0.002  0.00  0.00    -0.060 A 
ATOM     12  C   LIG    1        3.576   1.962  -0.008  0.00  0.00    +0.080 A 
ATOM     13  C   LIG    1        3.635   3.343  -0.003  0.00  0.00    -0.010 A 
ATOM     14  C   LIG    1        2.470   4.088   0.008  0.00  0.00    +0.080 A 
ATOM     15  C   LIG    1        1.239   3.449   0.013  0.00  0.00    +0.060 A 
BRANCH  10  17
ATOM     16  C   LIG    1       -0.006  -0.004   0.007  0.00  0.00    +0.240 C 
ATOM     17  O   LIG    1       -0.023   1.425   0.014  0.00  0.00    -0.310 OA
ENDBRANCH  10  17
ENDBRANCH   6  15
ENDBRANCH   1   6
BRANCH   3  18
ATOM     18  C   LIG    1       -3.394   6.190  -2.768  0.00  0.00    +0.350 C 
BRANCH  18  19
ATOM     19  O   LIG    1       -3.567   6.354  -4.200  0.00  0.00    -0.360 OA
BRANCH  19  20
ATOM     20  C   LIG    1       -4.689   6.976  -4.614  0.00  0.00    +0.540 C 
ATOM     21  O   LIG    1       -5.501   7.371  -3.800  0.00  0.00    -0.480 OA
BRANCH  20  22
ATOM     22  C   LIG    1       -4.931   7.177  -6.049  0.00  0.00    +0.030 A 
ATOM     23  C   LIG    1       -6.023   7.783  -6.587  0.00  0.00    +0.090 A 
ATOM     24  C   LIG    1       -5.869   7.777  -7.994  0.00  0.00    -0.110 A 
ATOM     25  C   LIG    1       -6.658   8.253  -9.050  0.00  0.00    +0.100 A 
ATOM     26  C   LIG    1       -6.236   8.091 -10.338  0.00  0.00    -0.060 A 
ATOM     27  C   LIG    1       -5.030   7.459 -10.614  0.00  0.00    +0.070 A 
ATOM     28  C   LIG    1       -4.237   6.983  -9.594  0.00  0.00    +0.020 A 
ATOM     29 CL   LIG    1       -7.216   8.683 -11.644  0.00  0.00    -0.070 Cl
ATOM     30  C   LIG    1       -4.646   7.135  -8.272  0.00  0.00    +0.120 A 
ATOM     31  N   LIG    1       -4.087   6.776  -7.067  0.00  0.00    -0.560 N 
ATOM     32  H   LIG    1       -3.241   6.317  -6.952  0.00  0.00    +0.430 HD
ENDBRANCH  20  22
ENDBRANCH  19  20
ENDBRANCH  18  19
ENDBRANCH   3  18
TORSDOF 7
