REMARK  Name = ZINCnE00000rhmpj.0
REMARK                            x       y       z     vdW  Elec       q    Type
REMARK                         _______ _______ _______ _____ _____    ______ ____
ROOT
ATOM      1  C   LIG    1        4.720  -0.000  -0.061  0.00  0.00    +0.190 A 
ATOM      2  N   LIG    1        3.563  -0.634  -0.035  0.00  0.00    -0.490 NA
ATOM      3  C   LIG    1        2.397   0.012  -0.001  0.00  0.00    +0.120 A 
ATOM      4  C   LIG    1        1.178  -0.691   0.026  0.00  0.00    +0.010 A 
ATOM      5  C   LIG    1        0.003  -0.004   0.060  0.00  0.00    +0.020 A 
ATOM      6  C   LIG    1       -0.016   1.388   0.069  0.00  0.00    -0.030 A 
ATOM      7  C   LIG    1        1.146   2.103   0.043  0.00  0.00    +0.100 A 
ATOM      8  C   LIG    1        2.371   1.430   0.008  0.00  0.00    -0.090 A 
ATOM      9  C   LIG    1        3.642   2.158  -0.020  0.00  0.00    -0.070 A 
ATOM     10  C   LIG    1        4.806   1.405  -0.054  0.00  0.00    -0.010 A 
ENDROOT
BRANCH   9  11
ATOM     11  C   LIG    1        3.682   3.633  -0.013  0.00  0.00    +0.530 C 
ATOM     12  O   LIG    1        2.643   4.273  -0.092  0.00  0.00    -0.670 OA
ATOM     13  O   LIG    1        4.754   4.215   0.073  0.00  0.00    -0.670 OA
ENDBRANCH   9  11
BRANCH   1  15
ATOM     14  C   LIG    1        5.905  -2.132  -0.103  0.00  0.00    +0.100 C 
ATOM     15  C   LIG    1        5.962  -0.788  -0.097  0.00  0.00    +0.020 C 
BRANCH  14  23
ATOM     16  C   LIG    1        8.307  -1.716  -2.133  0.00  0.00    +0.150 C 
ATOM     17  C   LIG    1        8.226  -2.748  -1.037  0.00  0.00    +0.100 A 
ATOM     18  N   LIG    1        9.139  -3.636  -0.752  0.00  0.00    -0.310 NA
ATOM     19  N   LIG    1        8.696  -4.410   0.327  0.00  0.00    -0.370 N 
ATOM     20  C   LIG    1        7.481  -3.964   0.701  0.00  0.00    +0.090 A 
ATOM     21  C   LIG    1        6.639  -4.507   1.826  0.00  0.00    +0.150 C 
ATOM     22  C   LIG    1        9.432  -5.514   0.949  0.00  0.00    +0.350 C 
ATOM     23  C   LIG    1        7.149  -2.921  -0.140  0.00  0.00    -0.210 A 
ENDBRANCH  14  23
ENDBRANCH   1  15
TORSDOF 3
