REMARK  Name = ZINCvU0000000IPj.0
REMARK                            x       y       z     vdW  Elec       q    Type
REMARK                         _______ _______ _______ _____ _____    ______ ____
ROOT
ATOM      1  C   LIG    1       -7.402   0.773  -0.120  0.00  0.00    +0.140 A 
ATOM      2  N   LIG    1       -7.715  -0.445   0.253  0.00  0.00    -0.280 NA
ATOM      3  N   LIG    1       -8.965  -0.663   0.050  0.00  0.00    -0.270 NA
ATOM      4  C   LIG    1       -9.526   0.402  -0.476  0.00  0.00    +0.280 A 
ATOM      5  N   LIG    1       -8.542   1.355  -0.602  0.00  0.00    -0.430 N 
ENDROOT
BRANCH   4   6
ATOM      6  C   LIG    1      -10.944   0.548  -0.861  0.00  0.00    -0.110 A 
ATOM      7  C   LIG    1      -11.560   1.686  -1.274  0.00  0.00    +0.260 A 
ATOM      8  N   LIG    1      -12.873   1.427  -1.544  0.00  0.00    -0.580 N 
ATOM      9  H   LIG    1      -13.515   2.083  -1.857  0.00  0.00    +0.420 HD
ATOM     10  C   LIG    1      -13.156   0.100  -1.302  0.00  0.00    +0.100 A 
ATOM     11  C   LIG    1      -14.315  -0.661  -1.410  0.00  0.00    -0.010 A 
ATOM     12  C   LIG    1      -14.290  -2.001  -1.088  0.00  0.00    +0.040 A 
ATOM     13  C   LIG    1      -13.117  -2.603  -0.656  0.00  0.00    -0.010 A 
ATOM     14  C   LIG    1      -11.958  -1.867  -0.543  0.00  0.00    +0.070 A 
ATOM     15  C   LIG    1      -11.968  -0.511  -0.865  0.00  0.00    -0.070 A 
ENDBRANCH   4   6
BRANCH   5  16
ATOM     16  C   LIG    1       -8.686   2.711  -1.139  0.00  0.00    +0.190 C 
ATOM     17  C   LIG    1       -7.407   3.460  -1.518  0.00  0.00    +0.070 C 
ATOM     18  C   LIG    1       -8.194   3.871  -0.271  0.00  0.00    +0.060 C 
ENDBRANCH   5  16
BRANCH   1  19
ATOM     19  S   LIG    1       -5.808   1.518  -0.026  0.00  0.00    +0.090 S 
BRANCH  19  21
ATOM     20  C   LIG    1       -5.383  -0.129   2.112  0.00  0.00    +0.090 C 
ATOM     21  C   LIG    1       -4.866   0.154   0.700  0.00  0.00    +0.000 C 
BRANCH  21  22
ATOM     22  C   LIG    1       -3.408   0.528   0.765  0.00  0.00    +0.540 C 
ATOM     23  N   LIG    1       -2.464  -0.434   0.778  0.00  0.00    -0.660 N 
ATOM     24  H   LIG    1       -2.718  -1.363   0.664  0.00  0.00    +0.420 HD
ATOM     25  O   LIG    1       -3.083   1.696   0.805  0.00  0.00    -0.500 OA
BRANCH  23  26
ATOM     26  C   LIG    1       -1.117  -0.092   0.958  0.00  0.00    +0.110 A 
ATOM     27  C   LIG    1       -0.780   1.089   1.603  0.00  0.00    +0.090 A 
ATOM     28  C   LIG    1        0.549   1.427   1.774  0.00  0.00    +0.010 A 
ATOM     29  C   LIG    1        1.545   0.586   1.308  0.00  0.00    +0.110 A 
ATOM     30  C   LIG    1        1.212  -0.597   0.667  0.00  0.00    -0.020 A 
ATOM     31  F   LIG    1        2.843   0.919   1.477  0.00  0.00    -0.130 F 
ATOM     32  C   LIG    1       -0.116  -0.939   0.494  0.00  0.00    +0.100 A 
ATOM     33  F   LIG    1       -0.441  -2.092  -0.131  0.00  0.00    -0.130 F 
ENDBRANCH  23  26
ENDBRANCH  21  22
ENDBRANCH  19  21
ENDBRANCH   1  19
TORSDOF 6
