REMARK  Name = ZINCbw0000000HkN.0
REMARK                            x       y       z     vdW  Elec       q    Type
REMARK                         _______ _______ _______ _____ _____    ______ ____
ROOT
ATOM      1  C   LIG    1       -2.509   0.962   0.020  0.00  0.00    +0.090 C 
ATOM      2  C   LIG    1       -1.219   1.741   0.017  0.00  0.00    -0.110 A 
ATOM      3  C   LIG    1       -1.245   3.132   0.030  0.00  0.00    +0.120 A 
ATOM      4  N   LIG    1       -2.263   4.059   0.044  0.00  0.00    -0.590 N 
ATOM      5  H   LIG    1       -3.210   3.847   0.053  0.00  0.00    +0.420 HD
ATOM      6  C   LIG    1       -1.741   5.324   0.046  0.00  0.00    +0.230 A 
ATOM      7  C   LIG    1       -0.400   5.265   0.032  0.00  0.00    -0.040 A 
ATOM      8  C   LIG    1       -0.034   3.846   0.022  0.00  0.00    -0.140 A 
ATOM      9  C   LIG    1        1.182   3.158   0.007  0.00  0.00    +0.140 A 
ATOM     10  C   LIG    1        1.184   1.779   0.000  0.00  0.00    -0.040 A 
ATOM     11  F   LIG    1        2.349   3.839  -0.002  0.00  0.00    -0.140 F 
ATOM     12  C   LIG    1       -0.013   1.076   0.008  0.00  0.00    +0.060 A 
ENDROOT
TORSDOF 0
