REMARK  Name = ZINCpe00000c3nDO.0
REMARK                            x       y       z     vdW  Elec       q    Type
REMARK                         _______ _______ _______ _____ _____    ______ ____
ROOT
ATOM      1  C   LIG    1       -1.026  -0.529   0.971  0.00  0.00    +0.530 C 
ATOM      2  N   LIG    1       -2.327  -0.222   0.805  0.00  0.00    -0.720 N 
ATOM      3  H   LIG    1       -2.603   0.337   0.061  0.00  0.00    +0.410 HD
ATOM      4  O   LIG    1       -0.681  -1.227   1.901  0.00  0.00    -0.530 OA
ENDROOT
BRANCH   1  13
ATOM      5  C   LIG    1       -2.147   4.506   0.048  0.00  0.00    +0.180 C 
ATOM      6  C   LIG    1       -1.000   3.528   0.031  0.00  0.00    +0.050 A 
ATOM      7  N   LIG    1       -1.125   2.247   0.030  0.00  0.00    -0.480 NA
ATOM      8  C   LIG    1       -0.019   1.517   0.010  0.00  0.00    +0.060 A 
ATOM      9  C   LIG    1        1.105   2.259   0.004  0.00  0.00    -0.210 A 
ATOM     10  C   LIG    1        2.511   1.709  -0.014  0.00  0.00    +0.120 C 
ATOM     11  C   LIG    1        2.454   0.233  -0.423  0.00  0.00    +0.030 C 
ATOM     12  C   LIG    1        1.395  -0.479   0.423  0.00  0.00    +0.060 C 
ATOM     13  C   LIG    1        0.002  -0.004   0.002  0.00  0.00    +0.100 C 
ATOM     14  S   LIG    1        0.654   3.958   0.018  0.00  0.00    +0.140 S 
ENDBRANCH   1  13
BRANCH   2  15
ATOM     15  C   LIG    1       -3.326  -0.732   1.747  0.00  0.00    +0.280 C 
BRANCH  15  16
ATOM     16  C   LIG    1       -4.715  -0.240   1.334  0.00  0.00    +0.340 C 
BRANCH  16  17
ATOM     17  N   LIG    1       -5.714  -0.750   2.277  0.00  0.00    -0.290 N 
ATOM     18  C   LIG    1       -6.601  -0.003   2.973  0.00  0.00    +0.180 A 
ATOM     19  C   LIG    1       -7.326  -0.872   3.715  0.00  0.00    -0.030 A 
ATOM     20  N   LIG    1       -6.853  -2.093   3.440  0.00  0.00    -0.240 NA
ATOM     21  N   LIG    1       -5.903  -1.987   2.580  0.00  0.00    -0.070 NA
BRANCH  19  22
ATOM     22  C   LIG    1       -8.446  -0.532   4.665  0.00  0.00    -0.220 C 
BRANCH  22  23
ATOM     23  S   LIG    1      -10.023  -0.545   3.769  0.00  0.00    +2.420 S 
ATOM     24  O   LIG    1      -10.288  -1.872   3.336  0.00  0.00    -0.920 OA
ATOM     25  O   LIG    1      -10.009   0.506   2.812  0.00  0.00    -0.940 OA
ATOM     26  C   LIG    1      -11.202  -0.118   5.079  0.00  0.00    -0.270 C 
ENDBRANCH  22  23
ENDBRANCH  19  22
ENDBRANCH  16  17
ENDBRANCH  15  16
ENDBRANCH   2  15
TORSDOF 6
