REMARK  Name = ZINCpk00000kEoCL.0
REMARK                            x       y       z     vdW  Elec       q    Type
REMARK                         _______ _______ _______ _____ _____    ______ ____
ROOT
ATOM      1  N   LIG    1        4.757   4.954  -0.018  0.00  0.00    -0.690 N 
ATOM      2  H   LIG    1        5.405   4.232  -0.028  0.00  0.00    +0.410 HD
ENDROOT
BRANCH   1   8
ATOM      3  C   LIG    1        0.248   6.575   0.034  0.00  0.00    +0.150 C 
ATOM      4  C   LIG    1        1.228   5.430   0.019  0.00  0.00    +0.240 A 
ATOM      5  C   LIG    1        0.777   4.123   0.011  0.00  0.00    -0.120 A 
ATOM      6  C   LIG    1        1.718   3.095   0.002  0.00  0.00    +0.460 A 
ATOM      7  N   LIG    1        3.010   3.402  -0.009  0.00  0.00    -0.600 NA
ATOM      8  C   LIG    1        3.402   4.667  -0.007  0.00  0.00    +0.600 A 
ATOM      9  N   LIG    1        2.531   5.665   0.007  0.00  0.00    -0.560 NA
BRANCH   6  10
ATOM     10  N   LIG    1        1.309   1.761  -0.001  0.00  0.00    -0.330 N 
ATOM     11  C   LIG    1        2.123   0.673  -0.015  0.00  0.00    +0.260 A 
ATOM     12  C   LIG    1        1.337  -0.427  -0.013  0.00  0.00    -0.100 A 
ATOM     13  C   LIG    1        0.002  -0.004   0.002  0.00  0.00    +0.270 A 
ATOM     14  N   LIG    1       -0.016   1.304   0.009  0.00  0.00    -0.280 NA
ENDBRANCH   6  10
ENDBRANCH   1   8
BRANCH   1  15
ATOM     15  C   LIG    1        5.211   6.346  -0.015  0.00  0.00    +0.280 C 
ATOM     16  C   LIG    1        6.625   6.442  -0.625  0.00  0.00    +0.050 C 
ATOM     17  C   LIG    1        7.330   7.531   0.223  0.00  0.00    -0.010 C 
ATOM     18  C   LIG    1        6.794   7.255   1.650  0.00  0.00    +0.000 C 
ATOM     19  C   LIG    1        5.318   6.863   1.430  0.00  0.00    +0.150 C 
BRANCH  19  20
ATOM     20  O   LIG    1        4.478   8.005   1.606  0.00  0.00    -0.550 OA
ATOM     21  H   LIG    1        4.501   8.378   2.498  0.00  0.00    +0.380 HD
ENDBRANCH  19  20
BRANCH  17  22
ATOM     22  C   LIG    1        8.850   7.363   0.173  0.00  0.00    +0.300 C 
BRANCH  22  23
ATOM     23  N   LIG    1        9.484   8.405   0.985  0.00  0.00    -0.460 N 
ATOM     24  C   LIG    1        9.791   8.322   2.316  0.00  0.00    +0.110 A 
ATOM     25  C   LIG    1       10.358   9.495   2.659  0.00  0.00    +0.140 A 
ATOM     26  N   LIG    1       10.395  10.272   1.566  0.00  0.00    -0.490 NA
ATOM     27  C   LIG    1        9.879   9.624   0.558  0.00  0.00    +0.380 A 
ENDBRANCH  22  23
ENDBRANCH  17  22
ENDBRANCH   1  15
TORSDOF 6
