REMARK  Name = ZINCrH000004sVgU.0
REMARK                            x       y       z     vdW  Elec       q    Type
REMARK                         _______ _______ _______ _____ _____    ______ ____
ROOT
ATOM      1  C   LIG    1        0.863   1.765   0.789  0.00  0.00    -0.130 A 
ATOM      2  C   LIG    1       -0.008   1.076  -0.035  0.00  0.00    +0.070 A 
ATOM      3  C   LIG    1       -0.897   1.765  -0.843  0.00  0.00    +0.000 A 
ATOM      4  C   LIG    1       -0.926   3.144  -0.822  0.00  0.00    +0.050 A 
ATOM      5  C   LIG    1       -0.049   3.845   0.007  0.00  0.00    -0.130 A 
ATOM      6  C   LIG    1        0.848   3.145   0.815  0.00  0.00    +0.080 A 
ENDROOT
BRANCH   5   7
ATOM      7  C   LIG    1       -0.070   5.323   0.029  0.00  0.00    +0.560 C 
ATOM      8  N   LIG    1       -1.243   5.981  -0.058  0.00  0.00    -0.610 N 
ATOM      9  C   LIG    1       -2.516   5.247  -0.057  0.00  0.00    +0.260 C 
ATOM     10  C   LIG    1       -3.413   5.826   1.047  0.00  0.00    +0.010 C 
ATOM     11  C   LIG    1       -3.559   7.336   0.839  0.00  0.00    +0.020 C 
ATOM     12  C   LIG    1       -2.184   8.001   0.938  0.00  0.00    +0.010 C 
ATOM     13  C   LIG    1       -1.273   7.447  -0.162  0.00  0.00    +0.270 C 
ATOM     14  O   LIG    1        0.970   5.944   0.127  0.00  0.00    -0.530 OA
ENDBRANCH   5   7
BRANCH   1  15
ATOM     15  C   LIG    1        1.831   1.007   1.660  0.00  0.00    +0.370 C 
BRANCH  15  23
ATOM     16  C   LIG    1        6.759  -2.450  -2.813  0.00  0.00    +0.150 C 
ATOM     17  C   LIG    1        6.104  -1.454  -1.892  0.00  0.00    -0.200 A 
ATOM     18  C   LIG    1        4.890  -1.588  -1.391  0.00  0.00    -0.040 A 
ATOM     19  C   LIG    1        4.466  -0.504  -0.527  0.00  0.00    -0.230 A 
ATOM     20  C   LIG    1        5.443   0.478  -0.398  0.00  0.00    +0.070 A 
ATOM     21  N   LIG    1        5.204   1.559   0.376  0.00  0.00    -0.500 NA
ATOM     22  C   LIG    1        4.079   1.710   1.008  0.00  0.00    +0.600 A 
ATOM     23  N   LIG    1        3.082   0.791   0.928  0.00  0.00    -0.530 N 
ATOM     24  C   LIG    1        3.238  -0.320   0.182  0.00  0.00    +0.560 A 
ATOM     25  O   LIG    1        2.349  -1.151   0.111  0.00  0.00    -0.520 OA
ATOM     26  C   LIG    1        4.013  -2.776  -1.693  0.00  0.00    +0.120 C 
ATOM     27  S   LIG    1        6.856   0.034  -1.347  0.00  0.00    +0.200 S 
ENDBRANCH  15  23
ENDBRANCH   1  15
TORSDOF 3
