REMARK  Name = ZINCrD000000fWN2.0
REMARK                            x       y       z     vdW  Elec       q    Type
REMARK                         _______ _______ _______ _____ _____    ______ ____
ROOT
ATOM      1  C   LIG    1       -0.189   1.234  -1.171  0.00  0.00    +0.000 C 
ATOM      2  C   LIG    1       -0.370   2.736  -1.514  0.00  0.00    +0.050 C 
ATOM      3  C   LIG    1       -0.173   2.729  -3.051  0.00  0.00    +0.230 C 
ATOM      4  N   LIG    1        0.882   1.728  -3.292  0.00  0.00    -0.620 N 
ATOM      5  C   LIG    1        1.698   1.689  -4.364  0.00  0.00    +0.730 C 
ATOM      6  N   LIG    1        1.585   2.621  -5.331  0.00  0.00    -0.660 N 
ATOM      7  H   LIG    1        0.916   3.320  -5.255  0.00  0.00    +0.400 HD
ATOM      8  O   LIG    1        2.537   0.814  -4.458  0.00  0.00    -0.550 OA
ATOM      9  C   LIG    1        0.895   0.775  -2.169  0.00  0.00    +0.190 C 
ATOM     10  C   LIG    1        0.575  -0.634  -2.672  0.00  0.00    +0.040 C 
ATOM     11  C   LIG    1        2.266   0.789  -1.491  0.00  0.00    +0.040 C 
ENDROOT
BRANCH   6  12
ATOM     12  C   LIG    1        2.430   2.581  -6.440  0.00  0.00    +0.330 A 
ATOM     13  C   LIG    1        3.407   1.663  -6.674  0.00  0.00    -0.090 A 
ATOM     14  C   LIG    1        4.013   1.984  -7.892  0.00  0.00    +0.260 A 
ATOM     15  N   LIG    1        3.428   3.050  -8.374  0.00  0.00    -0.290 NA
ATOM     16  N   LIG    1        2.423   3.444  -7.481  0.00  0.00    -0.380 N 
BRANCH  16  17
ATOM     17  C   LIG    1        1.525   4.590  -7.645  0.00  0.00    +0.280 C 
ATOM     18  C   LIG    1        2.342   5.891  -7.734  0.00  0.00    +0.080 C 
ATOM     19  C   LIG    1        1.422   7.019  -8.241  0.00  0.00    -0.300 C 
ATOM     20  S   LIG    1        0.153   6.179  -9.256  0.00  0.00    +2.400 S 
ATOM     21  O   LIG    1        0.337   6.524 -10.621  0.00  0.00    -0.920 OA
ATOM     22  O   LIG    1       -1.121   6.343  -8.647  0.00  0.00    -0.930 OA
ATOM     23  C   LIG    1        0.743   4.466  -8.978  0.00  0.00    -0.310 C 
ENDBRANCH  16  17
ENDBRANCH   6  12
BRANCH   1  24
ATOM     24  C   LIG    1        0.295   1.063   0.271  0.00  0.00    +0.040 C 
BRANCH  24  26
ATOM     25  C   LIG    1       -2.099   0.715   0.895  0.00  0.00    +0.010 C 
ATOM     26  C   LIG    1       -0.818   1.478   1.235  0.00  0.00    -0.070 C 
ATOM     27  C   LIG    1       -1.070   2.982   1.105  0.00  0.00    +0.020 C 
ATOM     28  C   LIG    1       -0.396   1.155   2.670  0.00  0.00    +0.020 C 
ENDBRANCH  24  26
ENDBRANCH   1  24
TORSDOF 4
