REMARK  Name = ZINCrg000000rtv0.0
REMARK                            x       y       z     vdW  Elec       q    Type
REMARK                         _______ _______ _______ _____ _____    ______ ____
ROOT
ATOM      1  C   LIG    1       -0.691   0.928   0.365  0.00  0.00    +0.050 C 
ATOM      2  C   LIG    1       -1.006   1.847   1.546  0.00  0.00    +0.270 C 
ATOM      3  N   LIG    1       -0.559   3.216   1.244  0.00  0.00    -0.740 N 
ATOM      4  H   LIG    1       -1.192   3.899   0.974  0.00  0.00    +0.420 HD
ATOM      5  C   LIG    1        0.806   3.503   1.358  0.00  0.00    +0.330 C 
ATOM      6  N   LIG    1        1.527   2.851   2.228  0.00  0.00    -0.270 NA
ATOM      7  N   LIG    1        0.952   1.878   3.052  0.00  0.00    -0.390 N 
ATOM      8  C   LIG    1       -0.266   1.371   2.775  0.00  0.00    +0.490 C 
ATOM      9  O   LIG    1       -0.764   0.541   3.505  0.00  0.00    -0.500 OA
ENDROOT
BRANCH   7  10
ATOM     10  C   LIG    1        1.649   1.425   4.177  0.00  0.00    +0.150 A 
ATOM     11  C   LIG    1        2.221   2.337   5.055  0.00  0.00    +0.020 A 
ATOM     12  C   LIG    1        2.904   1.887   6.168  0.00  0.00    +0.020 A 
ATOM     13  C   LIG    1        3.029   0.530   6.402  0.00  0.00    +0.010 A 
ATOM     14  C   LIG    1        2.466  -0.381   5.527  0.00  0.00    +0.020 A 
ATOM     15  C   LIG    1        1.777   0.063   4.415  0.00  0.00    +0.020 A 
ENDBRANCH   7  10
BRANCH   5  16
ATOM     16  C   LIG    1        1.423   4.533   0.502  0.00  0.00    +0.590 C 
ATOM     17  N   LIG    1        2.738   4.805   0.617  0.00  0.00    -0.680 N 
ATOM     18  H   LIG    1        3.279   4.323   1.262  0.00  0.00    +0.420 HD
ATOM     19  O   LIG    1        0.745   5.137  -0.306  0.00  0.00    -0.520 OA
BRANCH  17  20
ATOM     20  C   LIG    1        3.351   5.829  -0.233  0.00  0.00    +0.300 C 
ATOM     21  C   LIG    1        3.844   5.212  -1.525  0.00  0.00    -0.120 A 
ATOM     22  C   LIG    1        3.149   4.841  -2.664  0.00  0.00    +0.050 A 
ATOM     23  C   LIG    1        3.820   4.289  -3.738  0.00  0.00    +0.010 A 
ATOM     24  C   LIG    1        5.189   4.107  -3.676  0.00  0.00    +0.020 A 
ATOM     25  C   LIG    1        5.883   4.477  -2.541  0.00  0.00    +0.010 A 
ATOM     26  C   LIG    1        5.213   5.030  -1.464  0.00  0.00    -0.080 A 
ATOM     27  C   LIG    1        5.733   5.512  -0.126  0.00  0.00    +0.060 C 
ATOM     28  C   LIG    1        4.611   6.404   0.446  0.00  0.00    +0.190 C 
BRANCH  28  29
ATOM     29  O   LIG    1        4.528   6.273   1.867  0.00  0.00    -0.550 OA
ATOM     30  H   LIG    1        5.296   6.620   2.340  0.00  0.00    +0.390 HD
ENDBRANCH  28  29
ENDBRANCH  17  20
ENDBRANCH   5  16
TORSDOF 4
