REMARK  Name = ZINCvU0000000IrQ.0
REMARK                            x       y       z     vdW  Elec       q    Type
REMARK                         _______ _______ _______ _____ _____    ______ ____
ROOT
ATOM      1  C   LIG    1       -6.196  -0.274   3.068  0.00  0.00    +0.110 C 
ENDROOT
BRANCH   1   3
ATOM      2  N   LIG    1       -5.135   0.645   1.032  0.00  0.00    -0.590 N 
ATOM      3  C   LIG    1       -5.978   0.831   2.067  0.00  0.00    +0.540 C 
ATOM      4  O   LIG    1       -6.561   1.887   2.192  0.00  0.00    -0.520 OA
ATOM      5  C   LIG    1       -4.430  -0.630   0.880  0.00  0.00    +0.300 C 
BRANCH   2   7
ATOM      6  C   LIG    1       -5.333   1.234  -1.334  0.00  0.00    +0.070 C 
ATOM      7  C   LIG    1       -4.923   1.719   0.058  0.00  0.00    +0.350 C 
BRANCH   7   8
ATOM      8  C   LIG    1       -3.467   2.107   0.046  0.00  0.00    +0.070 A 
ATOM      9  N   LIG    1       -2.500   1.270   0.033  0.00  0.00    -0.450 NA
ATOM     10  C   LIG    1       -1.245   1.759   0.018  0.00  0.00    +0.080 A 
ATOM     11  C   LIG    1       -0.013   1.076   0.008  0.00  0.00    +0.080 A 
ATOM     12  C   LIG    1        1.160   1.769   0.001  0.00  0.00    +0.030 A 
ATOM     13  C   LIG    1        1.165   3.156   0.007  0.00  0.00    +0.040 A 
ATOM     14  C   LIG    1       -0.024   3.850   0.022  0.00  0.00    +0.060 A 
ATOM     15  C   LIG    1       -1.233   3.159   0.030  0.00  0.00    -0.180 A 
ATOM     16  S   LIG    1       -2.902   3.717   0.048  0.00  0.00    +0.120 S 
ENDBRANCH   7   8
ENDBRANCH   2   7
ENDBRANCH   1   3
BRANCH   1  17
ATOM     17  S   LIG    1       -7.373   0.277   4.328  0.00  0.00    +0.160 S 
BRANCH  17  18
ATOM     18  C   LIG    1       -7.439  -1.166   5.337  0.00  0.00    +0.130 A 
ATOM     19  N   LIG    1       -6.777  -2.281   5.144  0.00  0.00    -0.290 NA
ATOM     20  N   LIG    1       -7.070  -3.117   6.077  0.00  0.00    -0.240 NA
ATOM     21  C   LIG    1       -7.923  -2.574   6.896  0.00  0.00    +0.160 A 
ATOM     22  O   LIG    1       -8.174  -1.326   6.454  0.00  0.00    -0.190 OA
BRANCH  21  23
ATOM     23  C   LIG    1       -8.517  -3.222   8.120  0.00  0.00    +0.380 C 
BRANCH  23  24
ATOM     24  O   LIG    1       -7.688  -2.952   9.252  0.00  0.00    -0.310 OA
BRANCH  24  25
ATOM     25  C   LIG    1       -8.085  -3.468  10.445  0.00  0.00    +0.130 A 
ATOM     26  C   LIG    1       -9.252  -4.214  10.525  0.00  0.00    -0.060 A 
ATOM     27  C   LIG    1       -9.651  -4.741  11.738  0.00  0.00    +0.070 A 
ATOM     28  C   LIG    1       -8.893  -4.518  12.874  0.00  0.00    -0.070 A 
ATOM     29  C   LIG    1       -7.732  -3.770  12.797  0.00  0.00    +0.070 A 
ATOM     30 CL   LIG    1       -9.401  -5.176  14.398  0.00  0.00    -0.070 Cl
ATOM     31  C   LIG    1       -7.326  -3.245  11.585  0.00  0.00    +0.010 A 
ENDBRANCH  24  25
ENDBRANCH  23  24
ENDBRANCH  21  23
ENDBRANCH  17  18
ENDBRANCH   1  17
TORSDOF 8
