REMARK  Name = ZINCpk000000mJZm.0
REMARK                            x       y       z     vdW  Elec       q    Type
REMARK                         _______ _______ _______ _____ _____    ______ ____
ROOT
ATOM      1  C   LIG    1       -1.990   0.440  -3.095  0.00  0.00    +0.210 A 
ATOM      2  C   LIG    1       -1.788   1.609  -3.819  0.00  0.00    -0.030 A 
ATOM      3  C   LIG    1       -2.504   1.841  -4.978  0.00  0.00    +0.050 A 
ATOM      4  C   LIG    1       -3.432   0.920  -5.418  0.00  0.00    +0.010 A 
ATOM      5  C   LIG    1       -3.647  -0.255  -4.695  0.00  0.00    -0.090 A 
ATOM      6  C   LIG    1       -2.920  -0.492  -3.529  0.00  0.00    -0.030 A 
ENDROOT
BRANCH   5   7
ATOM      7  C   LIG    1       -4.641  -1.244  -5.164  0.00  0.00    +0.560 C 
ATOM      8  N   LIG    1       -5.457  -1.851  -4.280  0.00  0.00    -0.600 N 
ATOM      9  C   LIG    1       -5.460  -1.450  -2.867  0.00  0.00    +0.260 C 
ATOM     10  C   LIG    1       -6.896  -1.116  -2.452  0.00  0.00    +0.030 C 
ATOM     11  C   LIG    1       -7.804  -2.306  -2.770  0.00  0.00    +0.040 C 
ATOM     12  C   LIG    1       -7.787  -2.576  -4.276  0.00  0.00    +0.150 C 
ATOM     13  C   LIG    1       -6.364  -2.922  -4.713  0.00  0.00    +0.260 C 
ATOM     14  O   LIG    1       -4.722  -1.509  -6.348  0.00  0.00    -0.530 OA
BRANCH  12  15
ATOM     15  O   LIG    1       -8.659  -3.668  -4.576  0.00  0.00    -0.560 OA
ATOM     16  H   LIG    1       -8.697  -3.894  -5.515  0.00  0.00    +0.380 HD
ENDBRANCH  12  15
ENDBRANCH   5   7
BRANCH   1  17
ATOM     17  N   LIG    1       -1.259   0.207  -1.927  0.00  0.00    -0.730 N 
ATOM     18  H   LIG    1       -1.403  -0.607  -1.419  0.00  0.00    +0.400 HD
BRANCH  17  22
ATOM     19  N   LIG    1       -0.612   1.915   0.735  0.00  0.00    -0.610 N 
ATOM     20  C   LIG    1        0.242   0.724   0.826  0.00  0.00    +0.250 C 
ATOM     21  C   LIG    1        0.805   0.512  -0.597  0.00  0.00    +0.060 C 
ATOM     22  C   LIG    1       -0.276   1.192  -1.469  0.00  0.00    +0.240 C 
ATOM     23  C   LIG    1       -0.923   2.197  -0.542  0.00  0.00    +0.500 C 
ATOM     24  O   LIG    1       -1.620   3.123  -0.898  0.00  0.00    -0.510 OA
BRANCH  19  25
ATOM     25  C   LIG    1       -1.067   2.696   1.889  0.00  0.00    +0.330 C 
BRANCH  25  27
ATOM     26  C   LIG    1       -2.506   1.781   3.636  0.00  0.00    +0.030 C 
ATOM     27  C   LIG    1       -2.379   2.144   2.384  0.00  0.00    -0.070 C 
ENDBRANCH  25  27
ENDBRANCH  19  25
ENDBRANCH  17  22
ENDBRANCH   1  17
TORSDOF 6
