REMARK  Name = ZINCrH000004nCd0.0
REMARK                            x       y       z     vdW  Elec       q    Type
REMARK                         _______ _______ _______ _____ _____    ______ ____
ROOT
ATOM      1  N   LIG    1        1.385   4.092  -1.347  0.00  0.00    -0.510 NA
ATOM      2  C   LIG    1        0.259   3.731  -2.219  0.00  0.00    +0.190 C 
ENDROOT
BRANCH   1   3
ATOM      3  C   LIG    1        1.605   5.545  -1.347  0.00  0.00    +0.210 C 
BRANCH   3   6
ATOM      4  N   LIG    1        2.319   7.285  -2.952  0.00  0.00    -0.670 N 
ATOM      5  H   LIG    1        2.142   7.949  -2.267  0.00  0.00    +0.410 HD
ATOM      6  C   LIG    1        2.055   5.985  -2.715  0.00  0.00    +0.520 C 
ATOM      7  O   LIG    1        2.181   5.169  -3.604  0.00  0.00    -0.500 OA
BRANCH   4  13
ATOM      8  C   LIG    1        2.647   8.978  -4.652  0.00  0.00    +0.090 A 
ATOM      9  C   LIG    1        3.177   9.363  -5.873  0.00  0.00    -0.060 A 
ATOM     10  C   LIG    1        3.894   8.457  -6.633  0.00  0.00    +0.030 A 
ATOM     11  C   LIG    1        4.089   7.167  -6.175  0.00  0.00    +0.000 A 
ATOM     12  C   LIG    1        3.569   6.776  -4.956  0.00  0.00    +0.050 A 
ATOM     13  C   LIG    1        2.848   7.679  -4.188  0.00  0.00    +0.120 A 
BRANCH   8  15
ATOM     14  C   LIG    1        1.771  11.179  -4.446  0.00  0.00    +0.250 C 
ATOM     15  O   LIG    1        1.937   9.866  -3.907  0.00  0.00    -0.320 OA
ENDBRANCH   8  15
ENDBRANCH   4  13
ENDBRANCH   3   6
ENDBRANCH   1   3
BRANCH   1  16
ATOM     16  C   LIG    1        1.176   3.591   0.018  0.00  0.00    +0.240 C 
BRANCH  16  17
ATOM     17  C   LIG    1        1.200   2.084   0.008  0.00  0.00    -0.060 A 
ATOM     18  C   LIG    1        0.015   1.374   0.025  0.00  0.00    +0.010 A 
ATOM     19  C   LIG    1        0.036  -0.009   0.017  0.00  0.00    +0.000 A 
ATOM     20  C   LIG    1        1.241  -0.685  -0.008  0.00  0.00    +0.010 A 
ATOM     21  C   LIG    1        2.430   0.018  -0.025  0.00  0.00    -0.030 A 
ATOM     22  C   LIG    1        2.413   1.407  -0.017  0.00  0.00    +0.120 A 
BRANCH  22  23
ATOM     23  N   LIG    1        3.613   2.122  -0.034  0.00  0.00    -0.490 N 
ATOM     24  C   LIG    1        4.349   1.886  -1.282  0.00  0.00    +0.180 C 
ATOM     25  C   LIG    1        5.581   2.793  -1.329  0.00  0.00    +0.020 C 
ATOM     26  C   LIG    1        6.475   2.493  -0.122  0.00  0.00    +0.000 C 
ATOM     27  C   LIG    1        5.670   2.700   1.164  0.00  0.00    +0.030 C 
ATOM     28  C   LIG    1        4.436   1.796   1.138  0.00  0.00    +0.160 C 
ENDBRANCH  22  23
ENDBRANCH  16  17
ENDBRANCH   1  16
TORSDOF 7
