REMARK  Name = ZINCrH000004tXcr.0
REMARK                            x       y       z     vdW  Elec       q    Type
REMARK                         _______ _______ _______ _____ _____    ______ ____
ROOT
ATOM      1  C   LIG    1       -3.347   1.165  -0.714  0.00  0.00    +0.510 C 
ATOM      2  N   LIG    1       -2.165   0.674  -0.292  0.00  0.00    -0.670 N 
ATOM      3  H   LIG    1       -2.089  -0.260  -0.041  0.00  0.00    +0.420 HD
ATOM      4  O   LIG    1       -3.424   2.311  -1.104  0.00  0.00    -0.510 OA
ENDROOT
BRANCH   2   5
ATOM      5  C   LIG    1       -1.046   1.513  -0.216  0.00  0.00    +0.150 A 
ATOM      6  C   LIG    1       -1.202   2.851   0.120  0.00  0.00    +0.040 A 
ATOM      7  C   LIG    1       -0.098   3.676   0.200  0.00  0.00    +0.040 A 
ATOM      8  C   LIG    1        1.167   3.170  -0.061  0.00  0.00    +0.070 A 
ATOM      9  C   LIG    1        1.324   1.834  -0.402  0.00  0.00    +0.030 A 
ATOM     10  C   LIG    1        0.220   1.008  -0.482  0.00  0.00    +0.010 A 
BRANCH   8  11
ATOM     11  O   LIG    1        2.254   3.983   0.018  0.00  0.00    -0.260 OA
BRANCH  11  12
ATOM     12  C   LIG    1        2.808   4.422  -1.143  0.00  0.00    +0.120 A 
ATOM     13  C   LIG    1        2.268   4.034  -2.361  0.00  0.00    -0.070 A 
ATOM     14  C   LIG    1        2.829   4.486  -3.539  0.00  0.00    +0.050 A 
ATOM     15  C   LIG    1        3.935   5.315  -3.506  0.00  0.00    -0.020 A 
ATOM     16  C   LIG    1        4.478   5.699  -2.294  0.00  0.00    +0.050 A 
ATOM     17  C   LIG    1        3.917   5.255  -1.113  0.00  0.00    -0.020 A 
ENDBRANCH  11  12
ENDBRANCH   8  11
ENDBRANCH   2   5
BRANCH   1  18
ATOM     18  C   LIG    1       -4.574   0.289  -0.701  0.00  0.00    +0.310 C 
BRANCH  18  21
ATOM     19  O   LIG    1       -7.075  -0.689  -0.937  0.00  0.00    -0.530 OA
ATOM     20  C   LIG    1       -6.934   0.465  -1.282  0.00  0.00    +0.520 C 
ATOM     21  N   LIG    1       -5.722   1.049  -1.203  0.00  0.00    -0.720 N 
ATOM     22  H   LIG    1       -5.609   1.972  -1.478  0.00  0.00    +0.410 HD
BRANCH  20  23
ATOM     23  C   LIG    1       -8.114   1.247  -1.798  0.00  0.00    +0.120 C 
BRANCH  23  24
ATOM     24  C   LIG    1       -9.341   0.372  -1.785  0.00  0.00    -0.070 A 
ATOM     25  C   LIG    1       -9.660  -0.388  -2.895  0.00  0.00    +0.010 A 
ATOM     26  C   LIG    1      -10.782  -1.195  -2.881  0.00  0.00    +0.000 A 
ATOM     27  C   LIG    1      -11.592  -1.234  -1.761  0.00  0.00    +0.000 A 
ATOM     28  C   LIG    1      -11.276  -0.470  -0.653  0.00  0.00    +0.000 A 
ATOM     29  C   LIG    1      -10.150   0.333  -0.665  0.00  0.00    +0.010 A 
ENDBRANCH  23  24
ENDBRANCH  20  23
ENDBRANCH  18  21
ENDBRANCH   1  18
TORSDOF 7
