REMARK  Name = ZINCb80000006lrV.1
REMARK                            x       y       z     vdW  Elec       q    Type
REMARK                         _______ _______ _______ _____ _____    ______ ____
ROOT
ATOM      1  C   LIG    1       -0.945   3.246  -1.181  0.00  0.00    +0.160 C 
ATOM      2  C   LIG    1       -0.231   3.905   0.025  0.00  0.00    +0.060 C 
ATOM      3  C   LIG    1       -0.922   3.233   1.238  0.00  0.00    +0.080 C 
ATOM      4  C   LIG    1       -1.134   1.772   0.791  0.00  0.00    -0.030 C 
ATOM      5  C   LIG    1       -0.013   1.086   0.008  0.00  0.00    +0.060 C 
ATOM      6  C   LIG    1       -1.148   1.780  -0.747  0.00  0.00    -0.030 C 
ENDROOT
BRANCH   1   7
ATOM      7  N   LIG    1       -2.240   3.893  -1.429  0.00  0.00    -0.810 NA
ATOM      8  H   LIG    1       -2.777   3.380  -2.111  0.00  0.00    +0.350 HD
ATOM      9  H   LIG    1       -2.116   4.853  -1.714  0.00  0.00    +0.360 HD
ENDBRANCH   1   7
BRANCH   1  10
ATOM     10  C   LIG    1       -0.076   3.316  -2.410  0.00  0.00    +0.430 C 
ATOM     11  O   LIG    1        0.703   2.425  -2.651  0.00  0.00    -0.490 OA
BRANCH  10  13
ATOM     12  C   LIG    1        0.700   4.370  -4.402  0.00  0.00    +0.250 C 
ATOM     13  O   LIG    1       -0.167   4.369  -3.238  0.00  0.00    -0.360 OA
ENDBRANCH  10  13
ENDBRANCH   1  10
TORSDOF 3
