REMARK  Name = ZINCrg000000nR94.0
REMARK                            x       y       z     vdW  Elec       q    Type
REMARK                         _______ _______ _______ _____ _____    ______ ____
ROOT
ATOM      1  N   LIG    1        0.002  -0.004   0.002  0.00  0.00    -0.720 N 
ATOM      2  H   LIG    1       -0.831  -0.500   0.007  0.00  0.00    +0.400 HD
ATOM      3  C   LIG    1       -0.016   1.344   0.009  0.00  0.00    +0.500 C 
ATOM      4  O   LIG    1        1.026   1.964   0.003  0.00  0.00    -0.520 OA
ENDROOT
BRANCH   1   5
ATOM      5  C   LIG    1        1.281  -0.719  -0.014  0.00  0.00    +0.270 C 
BRANCH   5   6
ATOM      6  C   LIG    1        1.021  -2.227  -0.020  0.00  0.00    +0.190 C 
BRANCH   6   7
ATOM      7  N   LIG    1        2.303  -2.944  -0.036  0.00  0.00    -0.490 N 
BRANCH   7   8
ATOM      8  C   LIG    1        2.111  -4.308  -0.268  0.00  0.00    +0.090 A 
ATOM      9  C   LIG    1        1.348  -5.063   0.614  0.00  0.00    -0.020 A 
ATOM     10  C   LIG    1        1.156  -6.411   0.379  0.00  0.00    +0.000 A 
ATOM     11  C   LIG    1        1.731  -7.010  -0.726  0.00  0.00    +0.000 A 
ATOM     12  C   LIG    1        2.496  -6.262  -1.603  0.00  0.00    +0.010 A 
ATOM     13  C   LIG    1        2.688  -4.914  -1.377  0.00  0.00    -0.060 A 
ATOM     14  C   LIG    1        3.521  -4.100  -2.333  0.00  0.00    +0.100 C 
ENDBRANCH   7   8
BRANCH   7  16
ATOM     15  C   LIG    1        4.467  -3.270   1.063  0.00  0.00    +0.020 C 
ATOM     16  C   LIG    1        3.047  -2.722   1.212  0.00  0.00    +0.170 C 
ENDBRANCH   7  16
ENDBRANCH   6   7
ENDBRANCH   5   6
ENDBRANCH   1   5
BRANCH   3  17
ATOM     17  C   LIG    1       -1.331   2.079   0.020  0.00  0.00    +0.340 C 
BRANCH  17  18
ATOM     18  N   LIG    1       -1.083   3.523   0.026  0.00  0.00    -0.530 N 
ATOM     19  C   LIG    1       -0.974   4.195  -1.147  0.00  0.00    +0.630 A 
ATOM     20  N   LIG    1       -0.755   5.476  -1.214  0.00  0.00    -0.530 NA
ATOM     21  C   LIG    1       -0.619   6.230  -0.112  0.00  0.00    +0.330 A 
ATOM     22  C   LIG    1       -0.717   5.622   1.150  0.00  0.00    -0.340 A 
ATOM     23  C   LIG    1       -0.538   6.631   2.115  0.00  0.00    +0.330 A 
ATOM     24  N   LIG    1       -0.347   7.762   1.495  0.00  0.00    -0.270 NA
ATOM     25  N   LIG    1       -0.391   7.550   0.111  0.00  0.00    -0.350 N 
ATOM     26  C   LIG    1       -0.219   8.577  -0.920  0.00  0.00    +0.370 C 
ATOM     27  C   LIG    1       -0.969   4.182   1.203  0.00  0.00    +0.580 A 
ATOM     28  O   LIG    1       -1.068   3.597   2.267  0.00  0.00    -0.510 OA
ENDBRANCH  17  18
ENDBRANCH   3  17
TORSDOF 7
