REMARK  Name = ZINCqH0000000sN0.0
REMARK                            x       y       z     vdW  Elec       q    Type
REMARK                         _______ _______ _______ _____ _____    ______ ____
ROOT
ATOM      1  C   LIG    1       -4.713   4.610   6.196  0.00  0.00    +0.520 C 
ATOM      2  N   LIG    1       -5.488   4.980   7.235  0.00  0.00    -0.720 N 
ATOM      3  H   LIG    1       -5.084   5.183   8.093  0.00  0.00    +0.400 HD
ATOM      4  O   LIG    1       -5.219   4.357   5.123  0.00  0.00    -0.520 OA
ENDROOT
BRANCH   2   5
ATOM      5  C   LIG    1       -6.940   5.076   7.068  0.00  0.00    +0.290 C 
ATOM      6  C   LIG    1       -7.285   6.421   6.484  0.00  0.00    -0.070 A 
ATOM      7  C   LIG    1       -7.073   6.610   5.125  0.00  0.00    +0.040 A 
ATOM      8  C   LIG    1       -7.364   7.820   4.530  0.00  0.00    +0.030 A 
ATOM      9  C   LIG    1       -7.871   8.855   5.291  0.00  0.00    -0.020 A 
ATOM     10  C   LIG    1       -8.086   8.670   6.644  0.00  0.00    +0.090 A 
ATOM     11  F   LIG    1       -8.583   9.682   7.388  0.00  0.00    -0.140 F 
ATOM     12  C   LIG    1       -7.795   7.450   7.244  0.00  0.00    -0.100 A 
ATOM     13  C   LIG    1       -8.057   7.315   8.721  0.00  0.00    +0.080 C 
ATOM     14  C   LIG    1       -7.304   6.115   9.293  0.00  0.00    +0.040 C 
ATOM     15  C   LIG    1       -7.616   4.890   8.425  0.00  0.00    -0.010 C 
ATOM     16  C   LIG    1       -7.076   3.629   9.102  0.00  0.00    +0.030 C 
ENDBRANCH   2   5
BRANCH   1  17
ATOM     17  C   LIG    1       -3.220   4.511   6.367  0.00  0.00    +0.100 C 
BRANCH  17  21
ATOM     18  C   LIG    1       -1.440   3.293   2.678  0.00  0.00    +0.140 A 
ATOM     19  C   LIG    1       -1.848   2.340   3.601  0.00  0.00    -0.010 A 
ATOM     20  C   LIG    1       -2.417   2.737   4.795  0.00  0.00    +0.030 A 
ATOM     21  C   LIG    1       -2.592   4.082   5.066  0.00  0.00    -0.080 A 
ATOM     22  C   LIG    1       -2.192   5.033   4.146  0.00  0.00    +0.030 A 
ATOM     23  C   LIG    1       -1.616   4.643   2.953  0.00  0.00    +0.020 A 
BRANCH  18  26
ATOM     24  C   LIG    1        0.820   3.156  -0.330  0.00  0.00    +0.110 C 
ATOM     25  C   LIG    1        0.120   3.638   0.915  0.00  0.00    +0.510 C 
ATOM     26  N   LIG    1       -0.857   2.894   1.470  0.00  0.00    -0.680 N 
ATOM     27  H   LIG    1       -1.157   2.082   1.031  0.00  0.00    +0.410 HD
ATOM     28  O   LIG    1        0.437   4.695   1.417  0.00  0.00    -0.530 OA
ENDBRANCH  18  26
ENDBRANCH  17  21
ENDBRANCH   1  17
TORSDOF 4
