REMARK  Name = ZINCvU00000004hq.0
REMARK                            x       y       z     vdW  Elec       q    Type
REMARK                         _______ _______ _______ _____ _____    ______ ____
ROOT
ATOM      1  C   LIG    1        5.466   2.977  -0.034  0.00  0.00    +0.450 C 
ATOM      2  O   LIG    1        6.291   2.087  -0.047  0.00  0.00    -0.460 OA
ENDROOT
BRANCH   1   3
ATOM      3  C   LIG    1        5.899   4.376  -0.031  0.00  0.00    -0.260 A 
ATOM      4  C   LIG    1        7.198   4.846  -0.035  0.00  0.00    +0.120 A 
ATOM      5  N   LIG    1        7.157   6.191  -0.033  0.00  0.00    -0.430 N 
ATOM      6  C   LIG    1        5.865   6.628  -0.018  0.00  0.00    +0.010 A 
ATOM      7  C   LIG    1        5.431   8.072  -0.007  0.00  0.00    +0.120 C 
ATOM      8  C   LIG    1        8.445   4.000  -0.043  0.00  0.00    +0.150 C 
ATOM      9  C   LIG    1        5.040   5.568  -0.016  0.00  0.00    +0.000 A 
BRANCH   5  10
ATOM     10  C   LIG    1        8.335   7.062  -0.040  0.00  0.00    +0.300 C 
BRANCH  10  11
ATOM     11  C   LIG    1        8.759   7.358   1.400  0.00  0.00    +0.110 C 
BRANCH  11  12
ATOM     12  C   LIG    1        9.970   8.255   1.392  0.00  0.00    -0.190 A 
ATOM     13  C   LIG    1        9.939   9.589   1.400  0.00  0.00    +0.010 A 
ATOM     14  C   LIG    1       11.181  10.201   1.391  0.00  0.00    +0.000 A 
ATOM     15  C   LIG    1       12.220   9.364   1.377  0.00  0.00    -0.040 A 
ATOM     16  S   LIG    1       11.640   7.704   1.381  0.00  0.00    +0.100 S 
ENDBRANCH  11  12
ENDBRANCH  10  11
ENDBRANCH   5  10
ENDBRANCH   1   3
BRANCH   1  17
ATOM     17  C   LIG    1        3.997   2.642  -0.022  0.00  0.00    +0.090 C 
BRANCH  17  18
ATOM     18  S   LIG    1        3.788   0.844  -0.030  0.00  0.00    +0.120 S 
BRANCH  18  22
ATOM     19  C   LIG    1        0.002  -0.004   0.002  0.00  0.00    +0.220 A 
ATOM     20  N   LIG    1       -0.016   1.307   0.009  0.00  0.00    -0.240 NA
ATOM     21  N   LIG    1        1.192   1.751   0.000  0.00  0.00    -0.290 NA
ATOM     22  C   LIG    1        2.029   0.740  -0.013  0.00  0.00    +0.120 A 
ATOM     23  O   LIG    1        1.297  -0.390  -0.012  0.00  0.00    -0.200 OA
BRANCH  19  29
ATOM     24  C   LIG    1       -2.468  -0.353   0.029  0.00  0.00    +0.180 A 
ATOM     25  C   LIG    1       -3.566  -1.197   0.028  0.00  0.00    -0.070 A 
ATOM     26  C   LIG    1       -3.387  -2.567   0.019  0.00  0.00    +0.080 A 
ATOM     27  C   LIG    1       -2.113  -3.107   0.004  0.00  0.00    -0.020 A 
ATOM     28  C   LIG    1       -1.008  -2.280  -0.002  0.00  0.00    +0.100 A 
ATOM     29  C   LIG    1       -1.176  -0.894   0.008  0.00  0.00    -0.070 A 
BRANCH  24  31
ATOM     30  C   LIG    1       -3.989   1.473   0.066  0.00  0.00    +0.250 C 
ATOM     31  O   LIG    1       -2.643   0.994   0.045  0.00  0.00    -0.290 OA
ENDBRANCH  24  31
ENDBRANCH  19  29
ENDBRANCH  18  22
ENDBRANCH  17  18
ENDBRANCH   1  17
TORSDOF 9
