REMARK  Name = ZINCrD000000Atq3.0
REMARK                            x       y       z     vdW  Elec       q    Type
REMARK                         _______ _______ _______ _____ _____    ______ ____
ROOT
ATOM      1  C   LIG    1        1.242  -0.382   0.036  0.00  0.00    +0.150 A 
ATOM      2  N   LIG    1        2.020   0.677   0.056  0.00  0.00    -0.280 NA
ATOM      3  N   LIG    1        1.311   1.747  -0.002  0.00  0.00    -0.250 NA
ATOM      4  C   LIG    1        0.037   1.438  -0.063  0.00  0.00    +0.220 A 
ATOM      5  N   LIG    1       -0.047   0.065  -0.041  0.00  0.00    -0.440 N 
ENDROOT
BRANCH   4   6
ATOM      6  C   LIG    1       -1.094   2.386  -0.147  0.00  0.00    -0.010 A 
ATOM      7  C   LIG    1       -2.095   2.200  -1.101  0.00  0.00    +0.040 A 
ATOM      8  C   LIG    1       -3.151   3.086  -1.171  0.00  0.00    +0.030 A 
ATOM      9  C   LIG    1       -3.213   4.163  -0.305  0.00  0.00    +0.050 A 
ATOM     10  C   LIG    1       -2.221   4.357   0.640  0.00  0.00    +0.030 A 
ATOM     11  C   LIG    1       -1.162   3.476   0.724  0.00  0.00    -0.000 A 
ATOM     12 CL   LIG    1        0.082   3.721   1.910  0.00  0.00    -0.040 Cl
ENDBRANCH   4   6
BRANCH   5  13
ATOM     13  C   LIG    1       -1.264  -0.748  -0.089  0.00  0.00    +0.230 C 
ATOM     14  C   LIG    1       -1.355  -1.640   1.166  0.00  0.00    +0.030 C 
ATOM     15  C   LIG    1       -1.956  -2.969   0.646  0.00  0.00    +0.030 C 
ATOM     16  C   LIG    1       -1.279  -3.132  -0.738  0.00  0.00    +0.040 C 
ATOM     17  C   LIG    1       -1.216  -1.697  -1.300  0.00  0.00    +0.020 C 
ENDBRANCH   5  13
BRANCH   1  18
ATOM     18  S   LIG    1        1.763  -2.064   0.096  0.00  0.00    +0.080 S 
BRANCH  18  19
ATOM     19  C   LIG    1        3.556  -1.834   0.187  0.00  0.00    +0.140 C 
BRANCH  19  21
ATOM     20  O   LIG    1        3.567  -4.193   0.233  0.00  0.00    -0.480 OA
ATOM     21  C   LIG    1        4.232  -3.179   0.249  0.00  0.00    +0.570 C 
ATOM     22  N   LIG    1        5.576  -3.256   0.321  0.00  0.00    -0.580 N 
ATOM     23  C   LIG    1        6.356  -4.500   0.392  0.00  0.00    +0.280 C 
ATOM     24  C   LIG    1        7.818  -4.016   0.454  0.00  0.00    +0.280 C 
ATOM     25  N   LIG    1        7.705  -2.550   0.420  0.00  0.00    -0.730 N 
ATOM     26  H   LIG    1        8.450  -1.929   0.448  0.00  0.00    +0.440 HD
ATOM     27  C   LIG    1        6.412  -2.210   0.345  0.00  0.00    +0.700 C 
ATOM     28  O   LIG    1        6.032  -1.056   0.303  0.00  0.00    -0.540 OA
ENDBRANCH  19  21
ENDBRANCH  18  19
ENDBRANCH   1  18
TORSDOF 5
