REMARK  Name = ZINCqH0000051aPQ.0
REMARK                            x       y       z     vdW  Elec       q    Type
REMARK                         _______ _______ _______ _____ _____    ______ ____
ROOT
ATOM      1  C   LIG    1       -1.518  -1.846   0.017  0.00  0.00    +0.540 C 
ATOM      2  O   LIG    1       -0.544  -2.573   0.012  0.00  0.00    -0.480 OA
ENDROOT
BRANCH   1   3
ATOM      3  C   LIG    1       -2.867  -2.426   0.024  0.00  0.00    -0.220 A 
ATOM      4  C   LIG    1       -3.132  -3.737   0.020  0.00  0.00    +0.150 A 
ATOM      5  C   LIG    1       -4.493  -4.080   0.032  0.00  0.00    -0.100 A 
ATOM      6  C   LIG    1       -5.084  -5.367   0.035  0.00  0.00    +0.170 A 
ATOM      7  C   LIG    1       -6.437  -5.504   0.042  0.00  0.00    -0.040 A 
ATOM      8  C   LIG    1       -7.263  -4.387   0.045  0.00  0.00    +0.130 A 
ATOM      9  C   LIG    1       -6.719  -3.125   0.043  0.00  0.00    +0.090 A 
ATOM     10  C   LIG    1       -5.331  -2.958   0.035  0.00  0.00    -0.110 A 
ATOM     11  S   LIG    1       -4.354  -1.494   0.030  0.00  0.00    +0.230 S 
BRANCH   7  12
ATOM     12  N   LIG    1       -7.035  -6.858   0.045  0.00  0.00    +0.030 N 
ATOM     13  O   LIG    1       -8.246  -6.988   0.050  0.00  0.00    -0.150 OA
ATOM     14  O   LIG    1       -6.316  -7.841   0.042  0.00  0.00    -0.160 OA
ENDBRANCH   7  12
ENDBRANCH   1   3
BRANCH   1  15
ATOM     15  O   LIG    1       -1.360  -0.507   0.016  0.00  0.00    -0.330 OA
BRANCH  15  16
ATOM     16  C   LIG    1        0.002  -0.004   0.009  0.00  0.00    +0.270 C 
BRANCH  16  18
ATOM     17  O   LIG    1       -1.077   2.095   0.009  0.00  0.00    -0.490 OA
ATOM     18  C   LIG    1       -0.018   1.503   0.009  0.00  0.00    +0.520 C 
ATOM     19  N   LIG    1        1.139   2.192   0.003  0.00  0.00    -0.670 N 
ATOM     20  H   LIG    1        1.985   1.721   0.067  0.00  0.00    +0.420 HD
BRANCH  19  21
ATOM     21  C   LIG    1        1.122   3.589  -0.095  0.00  0.00    +0.130 A 
ATOM     22  C   LIG    1        2.124   4.250  -0.793  0.00  0.00    +0.030 A 
ATOM     23  C   LIG    1        2.103   5.627  -0.892  0.00  0.00    +0.010 A 
ATOM     24  C   LIG    1        1.088   6.350  -0.288  0.00  0.00    +0.090 A 
ATOM     25  C   LIG    1        0.090   5.693   0.412  0.00  0.00    +0.010 A 
ATOM     26  F   LIG    1        1.071   7.698  -0.382  0.00  0.00    -0.140 F 
ATOM     27  C   LIG    1        0.105   4.316   0.510  0.00  0.00    +0.060 A 
ENDBRANCH  19  21
ENDBRANCH  16  18
ENDBRANCH  15  16
ENDBRANCH   1  15
TORSDOF 6
