REMARK  Name = ZINCkj00000dD9Ss.1
REMARK                            x       y       z     vdW  Elec       q    Type
REMARK                         _______ _______ _______ _____ _____    ______ ____
ROOT
ATOM      1  C   LIG    1       -2.235  -4.351  -0.128  0.00  0.00    +0.050 C 
ATOM      2  C   LIG    1       -1.213  -4.394  -1.266  0.00  0.00    +0.100 C 
ENDROOT
BRANCH   1   3
ATOM      3  N   LIG    1       -1.596  -4.788   1.120  0.00  0.00    -0.380 N 
ATOM      4  C   LIG    1       -0.428  -3.941   1.395  0.00  0.00    +0.220 C 
ATOM      5  C   LIG    1        0.236  -4.398   2.697  0.00  0.00    +0.260 C 
ATOM      6  O   LIG    1        0.601  -5.776   2.581  0.00  0.00    -0.350 OA
ATOM      7  C   LIG    1       -0.501  -6.640   2.289  0.00  0.00    +0.260 C 
ATOM      8  C   LIG    1       -1.166  -6.187   0.987  0.00  0.00    +0.240 C 
ATOM      9  H   LIG    1       -2.255  -4.710   1.881  0.00  0.00    +0.420 HD
ENDBRANCH   1   3
BRANCH   1  11
ATOM     10  C   LIG    1       -4.377  -5.316   0.723  0.00  0.00    +0.040 C 
ATOM     11  C   LIG    1       -3.404  -5.283  -0.457  0.00  0.00    +0.080 C 
ENDBRANCH   1  11
BRANCH   1  12
ATOM     12  C   LIG    1       -2.754  -2.921   0.038  0.00  0.00    +0.320 C 
BRANCH  12  13
ATOM     13  N   LIG    1       -1.621  -1.996   0.111  0.00  0.00    -0.750 N 
ATOM     14  H   LIG    1       -0.719  -2.320  -0.042  0.00  0.00    +0.400 HD
ATOM     15  C   LIG    1       -1.830  -0.694   0.391  0.00  0.00    +0.560 C 
ATOM     16  O   LIG    1       -2.960  -0.288   0.583  0.00  0.00    -0.500 OA
BRANCH  15  17
ATOM     17  C   LIG    1       -0.684   0.241   0.465  0.00  0.00    -0.100 A 
ATOM     18  C   LIG    1       -0.880   1.595   0.754  0.00  0.00    +0.040 A 
ATOM     19  C   LIG    1        0.217   2.433   0.814  0.00  0.00    +0.280 A 
ATOM     20  N   LIG    1        1.434   1.971   0.603  0.00  0.00    -0.460 NA
ATOM     21  C   LIG    1        1.662   0.702   0.328  0.00  0.00    +0.280 A 
ATOM     22  C   LIG    1        0.623  -0.205   0.248  0.00  0.00    -0.020 A 
ENDBRANCH  15  17
ENDBRANCH  12  13
ENDBRANCH   1  12
TORSDOF 5
