REMARK  Name = ZINCb80000003W4e.0
REMARK                            x       y       z     vdW  Elec       q    Type
REMARK                         _______ _______ _______ _____ _____    ______ ____
ROOT
ATOM      1  C   LIG    1       -0.065   3.526  -1.404  0.00  0.00    -0.450 C 
ATOM      2  C   LIG    1        1.204   2.638  -1.420  0.00  0.00    +0.070 C 
ATOM      3  C   LIG    1        1.219   1.990   0.001  0.00  0.00    +0.030 C 
ATOM      4  C   LIG    1       -0.013   1.076   0.008  0.00  0.00    +0.000 C 
ATOM      5  C   LIG    1       -1.092   1.832   0.017  0.00  0.00    -0.060 C 
ATOM      6  C   LIG    1        0.671   3.184   0.864  0.00  0.00    +0.050 C 
ATOM      7  C   LIG    1       -0.654   3.302   0.025  0.00  0.00    +0.070 C 
ENDROOT
BRANCH   1   8
ATOM      8  S   LIG    1       -1.241   2.981  -2.672  0.00  0.00    +2.620 S 
ATOM      9  O   LIG    1       -2.270   3.946  -2.846  0.00  0.00    -0.970 OA
ATOM     10  O   LIG    1       -1.549   1.603  -2.507  0.00  0.00    -0.950 OA
BRANCH   8  11
ATOM     11  N   LIG    1       -0.382   3.041  -4.086  0.00  0.00    -1.250 NA
ATOM     12  H   LIG    1       -0.805   2.790  -4.922  0.00  0.00    +0.420 HD
ATOM     13  H   LIG    1        0.545   3.327  -4.079  0.00  0.00    +0.410 HD
ENDBRANCH   8  11
ENDBRANCH   1   8
TORSDOF 2
