REMARK  Name = ZINCCC0000000dFI.0
REMARK                            x       y       z     vdW  Elec       q    Type
REMARK                         _______ _______ _______ _____ _____    ______ ____
ROOT
ATOM      1  C   LIG    1       -2.441   2.675   3.660  0.00  0.00    +0.080 A 
ATOM      2  C   LIG    1       -1.549   3.559   3.073  0.00  0.00    -0.010 A 
ATOM      3  C   LIG    1       -0.848   3.184   1.942  0.00  0.00    +0.120 A 
ATOM      4  C   LIG    1       -1.042   1.934   1.386  0.00  0.00    -0.640 A 
ATOM      5  C   LIG    1       -1.931   1.046   1.964  0.00  0.00    +0.140 A 
ATOM      6  C   LIG    1       -2.633   1.411   3.102  0.00  0.00    +0.170 A 
ENDROOT
BRANCH   1  10
ATOM      7  N   LIG    1       -3.912   4.864   6.878  0.00  0.00    -0.390 N 
ATOM      8  C   LIG    1       -3.040   3.717   7.161  0.00  0.00    +0.280 C 
ATOM      9  C   LIG    1       -2.229   3.370   5.910  0.00  0.00    +0.230 C 
ATOM     10  N   LIG    1       -3.147   3.050   4.808  0.00  0.00    -0.500 N 
ATOM     11  C   LIG    1       -4.043   4.181   4.529  0.00  0.00    +0.230 C 
ATOM     12  C   LIG    1       -4.839   4.520   5.792  0.00  0.00    +0.270 C 
ATOM     13  H   LIG    1       -3.348   5.654   6.601  0.00  0.00    +0.420 HD
BRANCH   7  15
ATOM     14  C   LIG    1       -5.490   6.477   7.828  0.00  0.00    +0.080 C 
ATOM     15  C   LIG    1       -4.676   5.208   8.084  0.00  0.00    +0.250 C 
ENDBRANCH   7  15
ENDBRANCH   1  10
BRANCH   6  16
ATOM     16  N   LIG    1       -3.534   0.512   3.691  0.00  0.00    -0.670 N 
ATOM     17  H   LIG    1       -4.267   0.845   4.231  0.00  0.00    +0.420 HD
ATOM     18  C   LIG    1       -3.380  -0.814   3.505  0.00  0.00    +0.500 C 
ATOM     19  O   LIG    1       -2.408  -1.235   2.916  0.00  0.00    -0.490 OA
BRANCH  18  20
ATOM     20  C   LIG    1       -4.417  -1.773   4.031  0.00  0.00    +0.080 C 
BRANCH  20  21
ATOM     21  C   LIG    1       -4.005  -3.207   3.690  0.00  0.00    +0.310 C 
BRANCH  21  22
ATOM     22  C   LIG    1       -5.099  -4.156   4.106  0.00  0.00    -0.100 A 
ATOM     23  C   LIG    1       -5.151  -4.623   5.406  0.00  0.00    +0.010 A 
ATOM     24  C   LIG    1       -6.156  -5.491   5.789  0.00  0.00    +0.000 A 
ATOM     25  C   LIG    1       -7.105  -5.898   4.869  0.00  0.00    +0.010 A 
ATOM     26  C   LIG    1       -7.050  -5.435   3.568  0.00  0.00    +0.010 A 
ATOM     27  C   LIG    1       -6.047  -4.564   3.186  0.00  0.00    +0.020 A 
ENDBRANCH  21  22
BRANCH  21  28
ATOM     28  N   LIG    1       -2.769  -3.542   4.402  0.00  0.00    -0.720 N 
ATOM     29  H   LIG    1       -2.576  -3.130   5.258  0.00  0.00    +0.400 HD
ATOM     30  C   LIG    1       -1.902  -4.425   3.867  0.00  0.00    +0.520 C 
ATOM     31  O   LIG    1       -2.099  -4.871   2.756  0.00  0.00    -0.530 OA
ATOM     32  C   LIG    1       -0.688  -4.856   4.649  0.00  0.00    +0.100 C 
ENDBRANCH  21  28
ENDBRANCH  20  21
ENDBRANCH  18  20
ENDBRANCH   6  16
BRANCH   4  33
ATOM     33  S   LIG    1       -0.150   1.467  -0.060  0.00  0.00    +2.680 S 
ATOM     34  O   LIG    1        1.016   2.278  -0.092  0.00  0.00    -0.950 OA
ATOM     35  O   LIG    1       -0.109   0.046  -0.065  0.00  0.00    -0.940 OA
BRANCH  33  36
ATOM     36  N   LIG    1       -1.066   1.913  -1.366  0.00  0.00    -0.990 NA
ATOM     37  C   LIG    1       -2.044   0.983  -1.947  0.00  0.00    +0.290 C 
ATOM     38  C   LIG    1       -3.409   1.686  -2.008  0.00  0.00    +0.010 C 
ATOM     39  C   LIG    1       -3.264   3.003  -2.773  0.00  0.00    +0.020 C 
ATOM     40  C   LIG    1       -2.284   3.918  -2.035  0.00  0.00    +0.010 C 
ATOM     41  C   LIG    1       -0.911   3.243  -1.970  0.00  0.00    +0.290 C 
ENDBRANCH  33  36
ENDBRANCH   4  33
TORSDOF 9
