REMARK  Name = ZINCrD000000AjYa.0
REMARK                            x       y       z     vdW  Elec       q    Type
REMARK                         _______ _______ _______ _____ _____    ______ ____
ROOT
ATOM      1  O   LIG    1        3.378   3.587   0.091  0.00  0.00    -0.510 OA
ATOM      2  C   LIG    1        2.320   4.179   0.104  0.00  0.00    +0.520 C 
ATOM      3  N   LIG    1        1.163   3.494   0.009  0.00  0.00    -0.670 N 
ATOM      4  H   LIG    1        0.321   3.971  -0.058  0.00  0.00    +0.420 HD
ENDROOT
BRANCH   3   5
ATOM      5  C   LIG    1        1.177   2.095   0.008  0.00  0.00    +0.140 A 
ATOM      6  C   LIG    1        0.233   1.392  -0.732  0.00  0.00    +0.020 A 
ATOM      7  C   LIG    1        0.242   0.010  -0.736  0.00  0.00    +0.040 A 
ATOM      8  C   LIG    1        1.187  -0.681  -0.006  0.00  0.00    +0.040 A 
ATOM      9  C   LIG    1        2.139   0.016   0.741  0.00  0.00    -0.010 A 
ATOM     10  C   LIG    1        2.130   1.410   0.745  0.00  0.00    +0.080 A 
BRANCH   9  11
ATOM     11  C   LIG    1        3.153  -0.722   1.524  0.00  0.00    +0.210 A 
ATOM     12  N   LIG    1        4.103  -0.195   2.260  0.00  0.00    -0.270 NA
ATOM     13  N   LIG    1        4.795  -1.137   2.798  0.00  0.00    -0.290 NA
ATOM     14  C   LIG    1        4.323  -2.293   2.422  0.00  0.00    +0.420 A 
ATOM     15  O   LIG    1        3.277  -2.062   1.610  0.00  0.00    -0.220 OA
ENDBRANCH   9  11
ENDBRANCH   3   5
BRANCH   2  16
ATOM     16  C   LIG    1        2.299   5.681   0.225  0.00  0.00    +0.060 C 
BRANCH  16  17
ATOM     17  C   LIG    1        3.734   6.206   0.316  0.00  0.00    +0.370 C 
BRANCH  17  18
ATOM     18  N   LIG    1        3.713   7.666   0.433  0.00  0.00    -0.550 N 
ATOM     19  C   LIG    1        3.666   8.372   1.580  0.00  0.00    +0.640 A 
ATOM     20  O   LIG    1        3.662   9.684   1.297  0.00  0.00    -0.230 OA
ATOM     21  C   LIG    1        3.706   9.850  -0.047  0.00  0.00    +0.050 A 
ATOM     22  C   LIG    1        3.722  10.972  -0.861  0.00  0.00    +0.080 A 
ATOM     23  C   LIG    1        3.771  10.826  -2.235  0.00  0.00    -0.030 A 
ATOM     24  C   LIG    1        3.804   9.564  -2.803  0.00  0.00    +0.070 A 
ATOM     25  C   LIG    1        3.788   8.440  -1.999  0.00  0.00    +0.060 A 
ATOM     26 CL   LIG    1        3.791  12.233  -3.253  0.00  0.00    -0.040 Cl
ATOM     27  O   LIG    1        3.634   7.895   2.698  0.00  0.00    -0.470 OA
ATOM     28  C   LIG    1        3.745   8.579  -0.621  0.00  0.00    +0.080 A 
ENDBRANCH  17  18
ENDBRANCH  16  17
ENDBRANCH   2  16
TORSDOF 5
