REMARK  Name = ZINCpe000000Uy7r.0
REMARK                            x       y       z     vdW  Elec       q    Type
REMARK                         _______ _______ _______ _____ _____    ______ ____
ROOT
ATOM      1  N   LIG    1        0.002  -0.004   0.002  0.00  0.00    -1.010 NA
ATOM      2  C   LIG    1       -0.018   1.465   0.010  0.00  0.00    +0.290 C 
ATOM      3  C   LIG    1        1.426   1.978  -0.001  0.00  0.00    +0.030 C 
ATOM      4  C   LIG    1        2.171   1.366  -1.189  0.00  0.00    +0.010 C 
ATOM      5  C   LIG    1        2.201  -0.158  -1.045  0.00  0.00    +0.040 C 
ATOM      6  C   LIG    1        0.766  -0.695  -1.046  0.00  0.00    +0.290 C 
ENDROOT
BRANCH   4   7
ATOM      7  C   LIG    1        3.603   1.903  -1.223  0.00  0.00    +0.120 C 
ATOM      8  N   LIG    1        3.610   3.343  -1.531  0.00  0.00    -0.720 N 
ATOM      9  H   LIG    1        3.204   4.050  -1.005  0.00  0.00    +0.440 HD
ATOM     10  C   LIG    1        4.289   3.487  -2.683  0.00  0.00    +0.700 C 
ATOM     11  N   LIG    1        4.727   2.320  -3.168  0.00  0.00    -0.680 N 
ATOM     12  H   LIG    1        5.236   2.227  -3.989  0.00  0.00    +0.430 HD
ATOM     13  O   LIG    1        4.482   4.559  -3.224  0.00  0.00    -0.540 OA
ATOM     14  C   LIG    1        4.309   1.633   0.107  0.00  0.00    +0.100 C 
ATOM     15  C   LIG    1        4.377   1.286  -2.372  0.00  0.00    +0.530 C 
ATOM     16  O   LIG    1        4.627   0.112  -2.539  0.00  0.00    -0.450 OA
ENDBRANCH   4   7
BRANCH   1  17
ATOM     17  S   LIG    1       -0.820  -0.865   1.153  0.00  0.00    +2.780 S 
ATOM     18  O   LIG    1       -0.966  -0.003   2.272  0.00  0.00    -0.970 OA
ATOM     19  O   LIG    1       -0.191  -2.137   1.228  0.00  0.00    -0.970 OA
BRANCH  17  21
ATOM     20  C   LIG    1       -2.628  -2.334  -0.222  0.00  0.00    +0.290 C 
ATOM     21  N   LIG    1       -2.346  -1.133   0.567  0.00  0.00    -1.010 NA
BRANCH  21  22
ATOM     22  C   LIG    1       -3.414  -0.167   0.839  0.00  0.00    +0.250 C 
ATOM     23  C   LIG    1       -4.543  -0.858   1.607  0.00  0.00    +0.010 C 
ATOM     24  C   LIG    1       -5.658   0.150   1.891  0.00  0.00    +0.020 C 
ATOM     25  C   LIG    1       -6.201   0.695   0.568  0.00  0.00    +0.000 C 
ATOM     26  C   LIG    1       -5.073   1.386  -0.201  0.00  0.00    +0.010 C 
ATOM     27  C   LIG    1       -3.957   0.378  -0.484  0.00  0.00    +0.010 C 
ENDBRANCH  21  22
ENDBRANCH  17  21
ENDBRANCH   1  17
TORSDOF 4
