REMARK  Name = ZINCpk00000xSqjw.0
REMARK                            x       y       z     vdW  Elec       q    Type
REMARK                         _______ _______ _______ _____ _____    ______ ____
ROOT
ATOM      1  C   LIG    1        2.333   1.170  -0.104  0.00  0.00    +0.200 A 
ATOM      2  C   LIG    1        2.295  -0.215  -0.201  0.00  0.00    -0.020 A 
ATOM      3  C   LIG    1        3.472  -0.931  -0.311  0.00  0.00    +0.150 A 
ATOM      4  C   LIG    1        4.687  -0.271  -0.313  0.00  0.00    -0.690 A 
ATOM      5  C   LIG    1        4.728   1.108  -0.211  0.00  0.00    +0.140 A 
ATOM      6  C   LIG    1        3.555   1.830  -0.106  0.00  0.00    +0.010 A 
ENDROOT
BRANCH   1   8
ATOM      7  C   LIG    1        1.043   3.112  -0.576  0.00  0.00    +0.500 C 
ATOM      8  N   LIG    1        1.143   1.898   0.001  0.00  0.00    -0.670 N 
ATOM      9  H   LIG    1        0.391   1.530   0.490  0.00  0.00    +0.420 HD
ATOM     10  O   LIG    1        2.009   3.609  -1.115  0.00  0.00    -0.490 OA
BRANCH   7  15
ATOM     11  O   LIG    1       -0.306   6.667  -2.615  0.00  0.00    -0.520 OA
ATOM     12  C   LIG    1       -0.392   5.568  -2.109  0.00  0.00    +0.530 C 
ATOM     13  C   LIG    1       -0.894   4.327  -2.813  0.00  0.00    +0.060 C 
ATOM     14  C   LIG    1       -1.201   3.336  -1.664  0.00  0.00    +0.080 C 
ATOM     15  C   LIG    1       -0.269   3.854  -0.547  0.00  0.00    +0.240 C 
ATOM     16  N   LIG    1       -0.054   5.276  -0.841  0.00  0.00    -0.710 N 
ATOM     17  H   LIG    1        0.287   5.921  -0.203  0.00  0.00    +0.420 HD
ENDBRANCH   7  15
ENDBRANCH   1   8
BRANCH   4  18
ATOM     18  S   LIG    1        6.185  -1.188  -0.446  0.00  0.00    +2.690 S 
ATOM     19  O   LIG    1        7.159  -0.293  -0.967  0.00  0.00    -0.950 OA
ATOM     20  O   LIG    1        5.848  -2.419  -1.070  0.00  0.00    -0.960 OA
BRANCH  18  21
ATOM     21  N   LIG    1        6.670  -1.561   1.093  0.00  0.00    -0.990 NA
ATOM     22  C   LIG    1        7.542  -0.641   1.788  0.00  0.00    +0.280 C 
ATOM     23  C   LIG    1        9.016  -0.989   1.490  0.00  0.00    +0.010 C 
ATOM     24  C   LIG    1        9.392  -2.239   2.167  0.00  0.00    +0.000 C 
ATOM     25  C   LIG    1        8.612  -3.465   1.702  0.00  0.00    +0.010 C 
ATOM     26  C   LIG    1        7.314  -3.551   2.467  0.00  0.00    +0.020 C 
ATOM     27  C   LIG    1        6.197  -2.823   1.697  0.00  0.00    +0.270 C 
ENDBRANCH  18  21
ENDBRANCH   4  18
TORSDOF 4
