REMARK  Name = ZINCpk000000olW6.0
REMARK                            x       y       z     vdW  Elec       q    Type
REMARK                         _______ _______ _______ _____ _____    ______ ____
ROOT
ATOM      1  N   LIG    1        0.604  10.226   4.727  0.00  0.00    -0.560 N 
ATOM      2  C   LIG    1       -0.729  10.108   4.735  0.00  0.00    +0.710 C 
ATOM      3  N   LIG    1       -1.198   9.485   3.635  0.00  0.00    -0.720 N 
ATOM      4  H   LIG    1       -2.126   9.293   3.426  0.00  0.00    +0.440 HD
ATOM      5  C   LIG    1       -0.023   9.154   2.810  0.00  0.00    +0.130 C 
ATOM      6  C   LIG    1       -0.104   9.854   1.452  0.00  0.00    +0.090 C 
ATOM      7  O   LIG    1       -1.438  10.519   5.632  0.00  0.00    -0.540 OA
ATOM      8  C   LIG    1        1.144   9.687   3.617  0.00  0.00    +0.540 C 
ATOM      9  O   LIG    1        2.320   9.638   3.324  0.00  0.00    -0.460 OA
ENDROOT
BRANCH   1  10
ATOM     10  C   LIG    1        1.380  10.861   5.795  0.00  0.00    +0.360 C 
BRANCH  10  13
ATOM     11  N   LIG    1        2.215  13.122   6.350  0.00  0.00    -0.730 N 
ATOM     12  H   LIG    1        2.608  12.746   7.153  0.00  0.00    +0.400 HD
ATOM     13  C   LIG    1        1.533  12.331   5.499  0.00  0.00    +0.500 C 
ATOM     14  O   LIG    1        1.042  12.801   4.495  0.00  0.00    -0.530 OA
BRANCH  11  15
ATOM     15  C   LIG    1        2.364  14.551   6.062  0.00  0.00    +0.260 C 
BRANCH  15  17
ATOM     16  C   LIG    1        3.329  16.707   6.877  0.00  0.00    +0.030 C 
ATOM     17  C   LIG    1        3.174  15.214   7.178  0.00  0.00    +0.000 C 
ENDBRANCH  15  17
ENDBRANCH  11  15
ENDBRANCH  10  13
ENDBRANCH   1  10
BRANCH   5  18
ATOM     18  C   LIG    1        0.096   7.639   2.627  0.00  0.00    +0.060 C 
BRANCH  18  19
ATOM     19  C   LIG    1       -1.120   7.122   1.857  0.00  0.00    +0.080 C 
BRANCH  19  20
ATOM     20  C   LIG    1       -1.003   5.630   1.677  0.00  0.00    -0.120 A 
ATOM     21  C   LIG    1       -1.531   4.776   2.628  0.00  0.00    +0.060 A 
ATOM     22  C   LIG    1       -1.425   3.409   2.465  0.00  0.00    -0.020 A 
ATOM     23  C   LIG    1       -0.787   2.892   1.346  0.00  0.00    +0.130 A 
ATOM     24  C   LIG    1       -0.253   3.751   0.396  0.00  0.00    -0.080 A 
ATOM     25  C   LIG    1       -0.368   5.117   0.561  0.00  0.00    +0.060 A 
BRANCH  23  26
ATOM     26  O   LIG    1       -0.682   1.547   1.184  0.00  0.00    -0.320 OA
ATOM     27  C   LIG    1       -0.013   1.086   0.008  0.00  0.00    +0.250 C 
ENDBRANCH  23  26
ENDBRANCH  19  20
ENDBRANCH  18  19
ENDBRANCH   5  18
TORSDOF 8
