REMARK  Name = ZINCbw0000000HoN.0
REMARK                            x       y       z     vdW  Elec       q    Type
REMARK                         _______ _______ _______ _____ _____    ______ ____
ROOT
ATOM      1  C   LIG    1       -0.018   1.503   0.010  0.00  0.00    -0.090 A 
ATOM      2  C   LIG    1       -1.225   2.177   0.020  0.00  0.00    +0.040 A 
ATOM      3  C   LIG    1       -1.244   3.559   0.032  0.00  0.00    +0.030 A 
ATOM      4  C   LIG    1       -0.056   4.268   0.024  0.00  0.00    -0.030 A 
ATOM      5  C   LIG    1        1.151   3.592   0.009  0.00  0.00    +0.030 A 
ATOM      6 CL   LIG    1       -0.079   6.003   0.032  0.00  0.00    -0.060 Cl
ATOM      7  C   LIG    1        1.169   2.210   0.003  0.00  0.00    +0.040 A 
ENDROOT
BRANCH   1   8
ATOM      8  C   LIG    1        0.002  -0.004   0.002  0.00  0.00    +0.160 C 
BRANCH   8  10
ATOM      9  O   LIG    1        0.021   0.266   2.342  0.00  0.00    -0.400 OA
ATOM     10  C   LIG    1        0.022  -0.514   1.420  0.00  0.00    +0.400 C 
ATOM     11 CL   LIG    1        0.049  -2.222   1.728  0.00  0.00    -0.120 Cl
ENDBRANCH   8  10
ENDBRANCH   1   8
TORSDOF 2
