REMARK  Name = ZINCpe000000YmCR.0
REMARK                            x       y       z     vdW  Elec       q    Type
REMARK                         _______ _______ _______ _____ _____    ______ ____
ROOT
ATOM      1  C   LIG    1       -2.489   5.563   1.383  0.00  0.00    +0.620 C 
ATOM      2  N   LIG    1       -2.081   4.529   0.621  0.00  0.00    -0.630 N 
ATOM      3  C   LIG    1       -0.786   4.128   0.031  0.00  0.00    +0.290 C 
ATOM      4  C   LIG    1       -1.357   2.708   0.028  0.00  0.00    -0.110 C 
ATOM      5  C   LIG    1       -0.958   1.695  -1.044  0.00  0.00    +0.050 C 
ATOM      6  C   LIG    1       -0.013   1.086   0.008  0.00  0.00    +0.010 C 
ATOM      7  C   LIG    1       -0.938   1.683   1.084  0.00  0.00    +0.050 C 
ATOM      8  C   LIG    1       -2.748   3.343   0.044  0.00  0.00    +0.270 C 
ATOM      9  O   LIG    1       -3.653   5.638   1.733  0.00  0.00    -0.500 OA
ENDROOT
BRANCH   1  15
ATOM     10  C   LIG    1       -1.693  11.292   4.806  0.00  0.00    +0.330 C 
ATOM     11  N   LIG    1       -1.673  10.057   4.019  0.00  0.00    -0.550 N 
ATOM     12  C   LIG    1       -2.819   9.342   3.862  0.00  0.00    +0.580 A 
ATOM     13  N   LIG    1       -2.884   8.238   3.180  0.00  0.00    -0.480 NA
ATOM     14  C   LIG    1       -1.797   7.718   2.569  0.00  0.00    +0.100 A 
ATOM     15  C   LIG    1       -1.534   6.595   1.789  0.00  0.00    -0.010 A 
ATOM     16  N   LIG    1       -0.198   6.648   1.483  0.00  0.00    -0.340 N 
ATOM     17  H   LIG    1        0.274   5.990   0.950  0.00  0.00    +0.450 HD
ATOM     18  N   LIG    1        0.338   7.696   2.002  0.00  0.00    -0.180 NA
ATOM     19  C   LIG    1       -0.547   8.395   2.675  0.00  0.00    -0.070 A 
ATOM     20  C   LIG    1       -0.515   9.641   3.456  0.00  0.00    +0.590 A 
ATOM     21  O   LIG    1        0.515  10.275   3.592  0.00  0.00    -0.490 OA
ENDBRANCH   1  15
BRANCH   8  22
ATOM     22  C   LIG    1       -3.334   3.581  -1.349  0.00  0.00    +0.170 C 
ATOM     23  C   LIG    1       -4.646   4.399  -1.248  0.00  0.00    +0.030 C 
ATOM     24  C   LIG    1       -4.695   5.054  -2.655  0.00  0.00    +0.010 C 
ATOM     25  C   LIG    1       -3.200   5.285  -2.961  0.00  0.00    +0.190 C 
ATOM     26  O   LIG    1       -2.445   4.393  -2.132  0.00  0.00    -0.370 OA
ENDBRANCH   8  22
TORSDOF 2
