REMARK  Name = ZINCrH000004tnLt.0
REMARK                            x       y       z     vdW  Elec       q    Type
REMARK                         _______ _______ _______ _____ _____    ______ ____
ROOT
ATOM      1  C   LIG    1       -4.350   1.093   3.123  0.00  0.00    -0.110 A 
ATOM      2  C   LIG    1       -4.278   1.317   1.777  0.00  0.00    +0.320 A 
ATOM      3  N   LIG    1       -3.051   0.923   1.380  0.00  0.00    -0.350 N 
ATOM      4  N   LIG    1       -2.389   0.449   2.522  0.00  0.00    -0.050 NA
ATOM      5  N   LIG    1       -3.180   0.570   3.530  0.00  0.00    -0.200 NA
ENDROOT
BRANCH   1  14
ATOM      6  C   LIG    1       -8.461   1.220   8.203  0.00  0.00    -0.050 A 
ATOM      7  C   LIG    1       -8.788   1.683   6.926  0.00  0.00    +0.100 A 
ATOM      8  C   LIG    1       -7.855   1.642   5.918  0.00  0.00    +0.020 A 
ATOM      9  C   LIG    1       -6.571   1.140   6.159  0.00  0.00    +0.180 A 
ATOM     10  C   LIG    1       -6.250   0.682   7.431  0.00  0.00    -0.140 A 
ATOM     11  C   LIG    1       -4.817   0.198   7.418  0.00  0.00    +0.110 C 
ATOM     12  C   LIG    1       -4.345   0.428   5.973  0.00  0.00    +0.290 C 
ATOM     13  N   LIG    1       -5.496   1.015   5.281  0.00  0.00    -0.540 N 
ATOM     14  C   LIG    1       -5.514   1.376   3.983  0.00  0.00    +0.620 C 
ATOM     15  O   LIG    1       -6.489   1.936   3.521  0.00  0.00    -0.510 OA
ATOM     16  C   LIG    1       -7.179   0.719   8.446  0.00  0.00    +0.110 A 
BRANCH   6  18
ATOM     17  N   LIG    1      -10.201   1.292  10.090  0.00  0.00    -0.420 NA
ATOM     18  C   LIG    1       -9.431   1.260   9.255  0.00  0.00    +0.260 C 
ENDBRANCH   6  18
ENDBRANCH   1  14
BRANCH   3  19
ATOM     19  C   LIG    1       -2.516   0.974   0.018  0.00  0.00    +0.400 C 
BRANCH  19  20
ATOM     20  C   LIG    1       -1.220   1.744   0.015  0.00  0.00    -0.110 A 
ATOM     21  C   LIG    1       -0.015   1.069   0.005  0.00  0.00    +0.090 A 
ATOM     22  C   LIG    1        1.174   1.775  -0.003  0.00  0.00    +0.040 A 
ATOM     23  C   LIG    1        1.157   3.158   0.004  0.00  0.00    -0.010 A 
ATOM     24  C   LIG    1       -0.050   3.835   0.019  0.00  0.00    +0.050 A 
ATOM     25 CL   LIG    1        2.650   4.044  -0.006  0.00  0.00    -0.050 Cl
ATOM     26  C   LIG    1       -1.238   3.128   0.028  0.00  0.00    -0.010 A 
ATOM     27 CL   LIG    1       -2.753   3.976   0.047  0.00  0.00    -0.050 Cl
ENDBRANCH  19  20
ENDBRANCH   3  19
TORSDOF 4
