REMARK  Name = ZINCpe00000MJLo3.0
REMARK                            x       y       z     vdW  Elec       q    Type
REMARK                         _______ _______ _______ _____ _____    ______ ____
ROOT
ATOM      1  C   LIG    1        0.106  -4.219  -0.116  0.00  0.00    +0.130 A 
ATOM      2  C   LIG    1        1.342  -4.852  -0.129  0.00  0.00    +0.080 A 
ATOM      3  C   LIG    1        1.410  -6.228  -0.224  0.00  0.00    +0.020 A 
ATOM      4  C   LIG    1        0.250  -6.975  -0.317  0.00  0.00    +0.110 A 
ATOM      5  C   LIG    1       -0.982  -6.347  -0.309  0.00  0.00    -0.660 A 
ATOM      6  C   LIG    1       -1.058  -4.972  -0.209  0.00  0.00    +0.100 A 
ENDROOT
BRANCH   1   9
ATOM      7  O   LIG    1        1.787  -2.763   1.346  0.00  0.00    -0.500 OA
ATOM      8  C   LIG    1        0.952  -2.154   0.706  0.00  0.00    +0.580 C 
ATOM      9  N   LIG    1        0.033  -2.826  -0.014  0.00  0.00    -0.650 N 
ATOM     10  H   LIG    1       -0.679  -2.344  -0.463  0.00  0.00    +0.420 HD
BRANCH   8  11
ATOM     11  C   LIG    1        0.945  -0.673   0.719  0.00  0.00    +0.020 A 
ATOM     12  C   LIG    1        1.895   0.025   1.463  0.00  0.00    +0.310 A 
ATOM     13  N   LIG    1        1.884   1.346   1.471  0.00  0.00    -0.440 NA
ATOM     14  C   LIG    1        0.976   2.005   0.774  0.00  0.00    +0.260 A 
ATOM     15  C   LIG    1        0.029   1.314   0.032  0.00  0.00    +0.230 A 
ATOM     16  N   LIG    1        0.032  -0.004   0.019  0.00  0.00    -0.410 NA
ENDBRANCH   8  11
ENDBRANCH   1   9
BRANCH   5  17
ATOM     17  S   LIG    1       -2.458  -7.303  -0.427  0.00  0.00    +2.690 S 
ATOM     18  O   LIG    1       -3.493  -6.516   0.146  0.00  0.00    -0.950 OA
ATOM     19  O   LIG    1       -2.128  -8.607   0.032  0.00  0.00    -0.950 OA
BRANCH  17  20
ATOM     20  N   LIG    1       -2.818  -7.452  -2.036  0.00  0.00    -0.990 NA
ATOM     21  C   LIG    1       -2.291  -8.576  -2.821  0.00  0.00    +0.290 C 
ATOM     22  C   LIG    1       -1.571  -8.022  -4.054  0.00  0.00    +0.020 C 
ATOM     23  C   LIG    1       -2.523  -7.107  -4.828  0.00  0.00    +0.000 C 
ATOM     24  C   LIG    1       -2.936  -5.931  -3.941  0.00  0.00    +0.150 C 
ATOM     25  C   LIG    1       -3.677  -6.464  -2.705  0.00  0.00    +0.320 C 
BRANCH  24  26
ATOM     26  O   LIG    1       -3.800  -5.061  -4.675  0.00  0.00    -0.560 OA
ATOM     27  H   LIG    1       -3.399  -4.689  -5.472  0.00  0.00    +0.380 HD
ENDBRANCH  24  26
ENDBRANCH  17  20
ENDBRANCH   5  17
TORSDOF 5
