REMARK  Name = ZINCrD00000l62C7.0
REMARK                            x       y       z     vdW  Elec       q    Type
REMARK                         _______ _______ _______ _____ _____    ______ ____
ROOT
ATOM      1  C   LIG    1        2.405   2.117  -0.732  0.00  0.00    +0.190 C 
ENDROOT
BRANCH   1   2
ATOM      2  C   LIG    1        1.023   2.700  -0.875  0.00  0.00    +0.270 A 
ATOM      3  N   LIG    1        0.721   3.955  -0.781  0.00  0.00    -0.210 NA
ATOM      4  N   LIG    1       -0.661   4.087  -0.974  0.00  0.00    -0.480 N 
ATOM      5  H   LIG    1       -1.167   4.915  -0.958  0.00  0.00    +0.470 HD
ATOM      6  C   LIG    1       -1.156   2.851  -1.192  0.00  0.00    +0.470 A 
ATOM      7  S   LIG    1       -2.793   2.453  -1.492  0.00  0.00    -0.580 S 
ATOM      8  N   LIG    1       -0.123   1.986  -1.127  0.00  0.00    -0.490 N 
BRANCH   8   9
ATOM      9  C   LIG    1       -0.208   0.534  -1.301  0.00  0.00    +0.390 C 
BRANCH   9  10
ATOM     10  C   LIG    1       -0.448  -0.119   0.036  0.00  0.00    -0.130 A 
ATOM     11  C   LIG    1        0.624  -0.513   0.815  0.00  0.00    +0.010 A 
ATOM     12  C   LIG    1        0.404  -1.107   2.043  0.00  0.00    +0.000 A 
ATOM     13  C   LIG    1       -0.888  -1.317   2.488  0.00  0.00    +0.030 A 
ATOM     14  C   LIG    1       -1.960  -0.928   1.707  0.00  0.00    +0.010 A 
ATOM     15  C   LIG    1       -1.740  -0.329   0.481  0.00  0.00    +0.060 A 
ENDBRANCH   9  10
ENDBRANCH   8   9
ENDBRANCH   1   2
BRANCH   1  18
ATOM     16  N   LIG    1        4.698   2.937  -0.295  0.00  0.00    -0.730 N 
ATOM     17  H   LIG    1        5.003   2.018  -0.351  0.00  0.00    +0.400 HD
ATOM     18  C   LIG    1        3.391   3.224  -0.460  0.00  0.00    +0.520 C 
ATOM     19  O   LIG    1        3.009   4.373  -0.389  0.00  0.00    -0.490 OA
BRANCH  16  21
ATOM     20  C   LIG    1        5.725   4.276   1.475  0.00  0.00    +0.040 C 
ATOM     21  C   LIG    1        5.656   4.013  -0.031  0.00  0.00    +0.300 C 
BRANCH  21  22
ATOM     22  C   LIG    1        7.018   3.606  -0.532  0.00  0.00    -0.140 A 
ATOM     23  C   LIG    1        7.356   2.269  -0.607  0.00  0.00    +0.080 A 
ATOM     24  C   LIG    1        8.605   1.895  -1.067  0.00  0.00    -0.010 A 
ATOM     25  C   LIG    1        9.518   2.860  -1.454  0.00  0.00    +0.130 A 
ATOM     26  C   LIG    1        9.181   4.201  -1.380  0.00  0.00    -0.040 A 
ATOM     27  F   LIG    1       10.739   2.494  -1.903  0.00  0.00    -0.130 F 
ATOM     28  C   LIG    1        7.928   4.574  -0.924  0.00  0.00    +0.140 A 
ATOM     29  F   LIG    1        7.596   5.882  -0.856  0.00  0.00    -0.120 F 
ENDBRANCH  21  22
ENDBRANCH  16  21
ENDBRANCH   1  18
TORSDOF 6
