REMARK  Name = ZINCrH000004relO.0
REMARK                            x       y       z     vdW  Elec       q    Type
REMARK                         _______ _______ _______ _____ _____    ______ ____
ROOT
ATOM      1  C   LIG    1        4.482  -0.066  -3.090  0.00  0.00    +0.010 C 
ATOM      2  C   LIG    1        5.223   1.165  -3.613  0.00  0.00    +0.090 C 
ENDROOT
BRANCH   1   5
ATOM      3  N   LIG    1        2.903   0.817  -1.403  0.00  0.00    -0.720 N 
ATOM      4  H   LIG    1        2.346   1.128  -2.133  0.00  0.00    +0.410 HD
ATOM      5  C   LIG    1        4.057   0.171  -1.663  0.00  0.00    +0.540 C 
ATOM      6  O   LIG    1        4.754  -0.219  -0.750  0.00  0.00    -0.520 OA
BRANCH   3   7
ATOM      7  C   LIG    1        2.490   1.048  -0.016  0.00  0.00    +0.320 C 
BRANCH   7  12
ATOM      8  C   LIG    1       -2.553   3.869   0.045  0.00  0.00    +0.090 C 
ATOM      9  C   LIG    1       -1.238   3.133   0.030  0.00  0.00    -0.070 A 
ATOM     10  C   LIG    1       -1.219   1.751   0.017  0.00  0.00    +0.000 A 
ATOM     11  C   LIG    1       -0.013   1.076   0.008  0.00  0.00    +0.030 A 
ATOM     12  C   LIG    1        1.175   1.783   0.000  0.00  0.00    -0.120 A 
ATOM     13  C   LIG    1        1.156   3.165   0.008  0.00  0.00    +0.030 A 
ATOM     14  C   LIG    1       -0.050   3.840   0.022  0.00  0.00    +0.000 A 
ENDBRANCH   7  12
ENDBRANCH   3   7
ENDBRANCH   1   5
BRANCH   1  15
ATOM     15  S   LIG    1        5.577  -1.506  -3.161  0.00  0.00    +0.070 S 
BRANCH  15  16
ATOM     16  C   LIG    1        5.790  -1.642  -4.905  0.00  0.00    +0.150 A 
ATOM     17  N   LIG    1        5.253  -0.868  -5.820  0.00  0.00    -0.290 NA
ATOM     18  N   LIG    1        5.623  -1.253  -6.989  0.00  0.00    -0.280 NA
ATOM     19  C   LIG    1        6.405  -2.291  -6.892  0.00  0.00    +0.190 A 
ATOM     20  C   LIG    1        7.042  -3.038  -8.034  0.00  0.00    +0.200 C 
ATOM     21  N   LIG    1        6.539  -2.576  -5.561  0.00  0.00    -0.450 N 
BRANCH  21  22
ATOM     22  C   LIG    1        7.324  -3.659  -4.963  0.00  0.00    +0.370 C 
BRANCH  22  23
ATOM     23  C   LIG    1        6.462  -4.888  -4.828  0.00  0.00    -0.120 A 
ATOM     24  C   LIG    1        5.733  -5.097  -3.672  0.00  0.00    +0.040 A 
ATOM     25  C   LIG    1        4.939  -6.222  -3.550  0.00  0.00    +0.010 A 
ATOM     26  C   LIG    1        4.882  -7.143  -4.579  0.00  0.00    +0.020 A 
ATOM     27  C   LIG    1        5.614  -6.937  -5.733  0.00  0.00    +0.010 A 
ATOM     28  C   LIG    1        6.405  -5.809  -5.857  0.00  0.00    +0.020 A 
ENDBRANCH  22  23
ENDBRANCH  21  22
ENDBRANCH  15  16
ENDBRANCH   1  15
TORSDOF 7
