REMARK  Name = ZINCvU00000007i1.0
REMARK                            x       y       z     vdW  Elec       q    Type
REMARK                         _______ _______ _______ _____ _____    ______ ____
ROOT
ATOM      1  C   LIG    1       -0.401  -3.035  -5.787  0.00  0.00    -0.090 A 
ATOM      2  C   LIG    1       -0.355  -2.534  -4.499  0.00  0.00    +0.070 A 
ATOM      3  C   LIG    1       -0.211  -1.177  -4.289  0.00  0.00    +0.050 A 
ATOM      4  C   LIG    1       -0.122  -0.313  -5.373  0.00  0.00    +0.140 A 
ATOM      5  C   LIG    1       -0.168  -0.818  -6.666  0.00  0.00    +0.030 A 
ATOM      6  C   LIG    1       -0.308  -2.178  -6.870  0.00  0.00    -0.020 A 
ATOM      7 CL   LIG    1       -0.366  -2.812  -8.485  0.00  0.00    -0.050 Cl
ENDROOT
BRANCH   4   8
ATOM      8  N   LIG    1        0.019   1.061  -5.163  0.00  0.00    -1.070 N 
ATOM      9  H   LIG    1        0.881   1.486  -5.298  0.00  0.00    +0.430 HD
BRANCH   8  10
ATOM     10  S   LIG    1       -1.284   1.964  -4.684  0.00  0.00    +2.610 S 
ATOM     11  O   LIG    1       -1.784   1.280  -3.544  0.00  0.00    -0.940 OA
ATOM     12  O   LIG    1       -0.774   3.286  -4.580  0.00  0.00    -0.930 OA
BRANCH  10  13
ATOM     13  C   LIG    1       -2.453   1.839  -6.066  0.00  0.00    -0.320 C 
BRANCH  13  14
ATOM     14  C   LIG    1       -3.767   2.523  -5.685  0.00  0.00    +0.180 C 
ATOM     15  C   LIG    1       -4.795   2.311  -6.799  0.00  0.00    +0.020 C 
ATOM     16  C   LIG    1       -6.104   3.011  -6.424  0.00  0.00    +0.030 C 
ATOM     17  C   LIG    1       -5.828   4.504  -6.212  0.00  0.00    +0.030 C 
ATOM     18  C   LIG    1       -4.716   4.661  -5.175  0.00  0.00    +0.090 C 
ATOM     19  C   LIG    1       -4.440   6.120  -4.791  0.00  0.00    +0.060 C 
ATOM     20  C   LIG    1       -5.506   5.948  -3.695  0.00  0.00    +0.020 C 
ATOM     21  C   LIG    1       -5.191   4.442  -3.733  0.00  0.00    -0.010 C 
ATOM     22  O   LIG    1       -3.541   3.925  -5.506  0.00  0.00    -0.360 OA
ENDBRANCH  13  14
ENDBRANCH  10  13
ENDBRANCH   8  10
ENDBRANCH   4   8
BRANCH   1  23
ATOM     23  C   LIG    1       -0.552  -4.518  -6.012  0.00  0.00    +0.330 C 
BRANCH  23  25
ATOM     24  C   LIG    1        0.866  -6.423  -6.555  0.00  0.00    +0.530 C 
ATOM     25  N   LIG    1        0.756  -5.101  -6.316  0.00  0.00    -0.720 N 
ATOM     26  H   LIG    1        1.545  -4.537  -6.345  0.00  0.00    +0.400 HD
ATOM     27  O   LIG    1       -0.120  -7.130  -6.519  0.00  0.00    -0.530 OA
BRANCH  24  28
ATOM     28  C   LIG    1        2.212  -7.024  -6.867  0.00  0.00    -0.080 C 
ATOM     29  C   LIG    1        3.163  -6.781  -5.694  0.00  0.00    +0.050 C 
ATOM     30  C   LIG    1        2.781  -6.372  -8.129  0.00  0.00    +0.050 C 
BRANCH  28  31
ATOM     31  C   LIG    1        2.059  -8.529  -7.096  0.00  0.00    +0.040 C 
BRANCH  31  33
ATOM     32  C   LIG    1        3.272 -10.644  -7.642  0.00  0.00    +0.000 C 
ATOM     33  C   LIG    1        3.426  -9.139  -7.413  0.00  0.00    -0.010 C 
ENDBRANCH  31  33
ENDBRANCH  28  31
ENDBRANCH  24  28
ENDBRANCH  23  25
ENDBRANCH   1  23
TORSDOF 9
