REMARK  Name = ZINCrH000004v16w.0
REMARK                            x       y       z     vdW  Elec       q    Type
REMARK                         _______ _______ _______ _____ _____    ______ ____
ROOT
ATOM      1  O   LIG    1       -2.487  -0.209  -0.001  0.00  0.00    -0.510 OA
ATOM      2  C   LIG    1       -2.501   1.006   0.019  0.00  0.00    +0.570 C 
ATOM      3  N   LIG    1       -3.676   1.667   0.044  0.00  0.00    -0.630 N 
ATOM      4  H   LIG    1       -3.687   2.636   0.060  0.00  0.00    +0.410 HD
ENDROOT
BRANCH   2   5
ATOM      5  C   LIG    1       -1.232   1.759   0.017  0.00  0.00    -0.160 A 
ATOM      6  C   LIG    1       -0.013   1.076  -0.008  0.00  0.00    +0.130 A 
ATOM      7  C   LIG    1        1.169   1.781  -0.015  0.00  0.00    +0.010 A 
ATOM      8  C   LIG    1        1.152   3.172   0.008  0.00  0.00    +0.210 A 
ATOM      9  C   LIG    1       -0.060   3.855   0.038  0.00  0.00    -0.020 A 
ATOM     10  C   LIG    1       -1.246   3.156   0.045  0.00  0.00    +0.080 A 
BRANCH   8  11
ATOM     11  N   LIG    1        2.351   3.884   0.000  0.00  0.00    -0.570 N 
ATOM     12  C   LIG    1        2.478   5.345  -0.104  0.00  0.00    +0.270 C 
ATOM     13  C   LIG    1        4.000   5.585  -0.061  0.00  0.00    +0.270 C 
ATOM     14  O   LIG    1        4.565   4.247   0.052  0.00  0.00    -0.320 OA
ATOM     15  C   LIG    1        3.576   3.346   0.081  0.00  0.00    +0.650 C 
ATOM     16  O   LIG    1        3.771   2.151   0.172  0.00  0.00    -0.490 OA
ENDBRANCH   8  11
ENDBRANCH   2   5
BRANCH   3  17
ATOM     17  C   LIG    1       -4.881   0.952   0.046  0.00  0.00    +0.300 A 
ATOM     18  N   LIG    1       -6.085   1.472   0.074  0.00  0.00    -0.320 NA
ATOM     19  N   LIG    1       -7.014   0.424   0.062  0.00  0.00    -0.470 N 
ATOM     20  H   LIG    1       -7.980   0.518   0.075  0.00  0.00    +0.440 HD
ATOM     21  C   LIG    1       -6.331  -0.740   0.034  0.00  0.00    +0.100 A 
ATOM     22  C   LIG    1       -5.011  -0.446   0.024  0.00  0.00    -0.090 A 
BRANCH  21  23
ATOM     23  C   LIG    1       -6.933  -2.122   0.018  0.00  0.00    +0.110 C 
BRANCH  23  24
ATOM     24  C   LIG    1       -7.004  -2.663   1.447  0.00  0.00    -0.010 C 
ATOM     25  C   LIG    1       -5.587  -2.845   1.995  0.00  0.00    +0.010 C 
ATOM     26  C   LIG    1       -5.658  -3.387   3.424  0.00  0.00    +0.000 C 
ATOM     27  C   LIG    1       -6.381  -4.735   3.423  0.00  0.00    +0.000 C 
ATOM     28  C   LIG    1       -7.798  -4.553   2.875  0.00  0.00    +0.000 C 
ATOM     29  C   LIG    1       -7.727  -4.012   1.446  0.00  0.00    +0.020 C 
ENDBRANCH  23  24
ENDBRANCH  21  23
ENDBRANCH   3  17
TORSDOF 5
