REMARK  Name = ZINCrD00000l0nSs.0
REMARK                            x       y       z     vdW  Elec       q    Type
REMARK                         _______ _______ _______ _____ _____    ______ ____
ROOT
ATOM      1  N   LIG    1        3.686   2.771   4.235  0.00  0.00    -0.560 N 
ATOM      2  C   LIG    1        4.358   2.336   3.002  0.00  0.00    +0.320 C 
ATOM      3  C   LIG    1        4.578   3.562   2.106  0.00  0.00    +0.310 C 
ATOM      4  N   LIG    1        3.312   4.300   2.000  0.00  0.00    -1.000 NA
ATOM      5  C   LIG    1        2.643   4.739   3.233  0.00  0.00    +0.310 C 
ATOM      6  C   LIG    1        2.420   3.508   4.129  0.00  0.00    +0.260 C 
ENDROOT
BRANCH   4   7
ATOM      7  S   LIG    1        2.654   4.636   0.518  0.00  0.00    +2.690 S 
ATOM      8  O   LIG    1        1.688   5.657   0.731  0.00  0.00    -0.950 OA
ATOM      9  O   LIG    1        3.744   4.773  -0.383  0.00  0.00    -0.950 OA
BRANCH   7  10
ATOM     10  C   LIG    1        1.762   3.206   0.006  0.00  0.00    -0.680 A 
ATOM     11  C   LIG    1        2.210   2.460  -1.068  0.00  0.00    +0.120 A 
ATOM     12  C   LIG    1        1.510   1.337  -1.469  0.00  0.00    -0.110 A 
ATOM     13  C   LIG    1        0.365   0.958  -0.794  0.00  0.00    +0.070 A 
ATOM     14  C   LIG    1       -0.086   1.707   0.277  0.00  0.00    -0.010 A 
ATOM     15  C   LIG    1        1.999   0.523  -2.640  0.00  0.00    +0.100 C 
ATOM     16  C   LIG    1        0.614   2.829   0.678  0.00  0.00    +0.010 A 
ATOM     17  C   LIG    1        0.126   3.643   1.850  0.00  0.00    +0.090 C 
ENDBRANCH   7  10
ENDBRANCH   4   7
BRANCH   1  18
ATOM     18  C   LIG    1        4.222   2.497   5.441  0.00  0.00    +0.560 C 
ATOM     19  S   LIG    1        5.623   1.520   5.553  0.00  0.00    -0.610 S 
BRANCH  18  20
ATOM     20  N   LIG    1        3.655   2.993   6.558  0.00  0.00    -0.630 N 
ATOM     21  H   LIG    1        2.814   3.474   6.503  0.00  0.00    +0.400 HD
BRANCH  20  27
ATOM     22  C   LIG    1        3.356   1.766  11.309  0.00  0.00    +0.100 C 
ATOM     23  C   LIG    1        4.158   2.221  10.117  0.00  0.00    -0.080 A 
ATOM     24  C   LIG    1        5.513   2.464  10.249  0.00  0.00    +0.010 A 
ATOM     25  C   LIG    1        6.253   2.882   9.158  0.00  0.00    +0.020 A 
ATOM     26  C   LIG    1        5.640   3.058   7.933  0.00  0.00    +0.060 A 
ATOM     27  C   LIG    1        4.279   2.816   7.798  0.00  0.00    +0.130 A 
ATOM     28  C   LIG    1        3.538   2.401   8.897  0.00  0.00    +0.000 A 
ENDBRANCH  20  27
ENDBRANCH  18  20
ENDBRANCH   1  18
TORSDOF 5
