REMARK  Name = ZINCvU0000000Hgp.0
REMARK                            x       y       z     vdW  Elec       q    Type
REMARK                         _______ _______ _______ _____ _____    ______ ____
ROOT
ATOM      1  N   LIG    1        0.830   9.179   4.971  0.00  0.00    -0.510 N 
ATOM      2  C   LIG    1        0.260   7.966   5.114  0.00  0.00    +0.540 C 
ATOM      3  O   LIG    1       -0.106   7.593   6.208  0.00  0.00    -0.450 OA
ENDROOT
BRANCH   1  10
ATOM      4  C   LIG    1        1.167  11.167  12.016  0.00  0.00    +0.100 C 
ATOM      5  C   LIG    1        1.366  11.334  10.531  0.00  0.00    -0.070 A 
ATOM      6  C   LIG    1        1.941  12.498  10.042  0.00  0.00    +0.040 A 
ATOM      7  C   LIG    1        2.126  12.658   8.687  0.00  0.00    +0.060 A 
ATOM      8  C   LIG    1        1.736  11.653   7.804  0.00  0.00    -0.180 A 
ATOM      9  S   LIG    1        1.833  11.551   6.048  0.00  0.00    +0.070 S 
ATOM     10  C   LIG    1        1.096   9.955   6.087  0.00  0.00    +0.340 A 
ATOM     11  N   LIG    1        0.834   9.612   7.301  0.00  0.00    -0.460 NA
ATOM     12  C   LIG    1        1.156  10.475   8.284  0.00  0.00    +0.110 A 
ATOM     13  C   LIG    1        0.977  10.334   9.676  0.00  0.00    -0.030 A 
ATOM     14  C   LIG    1        0.354   9.078  10.228  0.00  0.00    +0.100 C 
ENDBRANCH   1  10
BRANCH   2  15
ATOM     15  C   LIG    1        0.078   7.073   3.913  0.00  0.00    +0.110 C 
BRANCH  15  16
ATOM     16  S   LIG    1       -0.563   5.467   4.448  0.00  0.00    +0.160 S 
BRANCH  16  17
ATOM     17  C   LIG    1       -0.677   4.649   2.891  0.00  0.00    +0.120 A 
ATOM     18  N   LIG    1       -0.359   5.153   1.723  0.00  0.00    -0.290 NA
ATOM     19  N   LIG    1       -0.565   4.271   0.809  0.00  0.00    -0.270 NA
ATOM     20  C   LIG    1       -1.026   3.182   1.351  0.00  0.00    +0.210 A 
ATOM     21  O   LIG    1       -1.106   3.391   2.680  0.00  0.00    -0.200 OA
BRANCH  20  22
ATOM     22  C   LIG    1       -1.398   1.915   0.625  0.00  0.00    +0.050 C 
ATOM     23  C   LIG    1       -0.301   1.213  -0.178  0.00  0.00    +0.060 C 
ATOM     24  C   LIG    1       -1.422   1.959  -0.905  0.00  0.00    +0.080 C 
ENDBRANCH  20  22
ENDBRANCH  16  17
ENDBRANCH  15  16
ENDBRANCH   2  15
BRANCH   1  25
ATOM     25  C   LIG    1        1.168   9.677   3.635  0.00  0.00    +0.360 C 
BRANCH  25  26
ATOM     26  C   LIG    1        0.019  10.490   3.096  0.00  0.00    -0.130 A 
ATOM     27  C   LIG    1       -0.931   9.893   2.288  0.00  0.00    +0.020 A 
ATOM     28  C   LIG    1       -1.987  10.638   1.798  0.00  0.00    +0.010 A 
ATOM     29  C   LIG    1       -2.088  11.981   2.107  0.00  0.00    +0.030 A 
ATOM     30  C   LIG    1       -1.135  12.579   2.911  0.00  0.00    +0.010 A 
ATOM     31  C   LIG    1       -0.082  11.833   3.406  0.00  0.00    +0.030 A 
ENDBRANCH  25  26
ENDBRANCH   1  25
TORSDOF 7
