REMARK  Name = ZINCpk00000kCCji.0
REMARK                            x       y       z     vdW  Elec       q    Type
REMARK                         _______ _______ _______ _____ _____    ______ ____
ROOT
ATOM      1  S   LIG    1       -1.514  -0.901   0.012  0.00  0.00    +2.690 S 
ATOM      2  O   LIG    1       -2.491  -0.033   0.571  0.00  0.00    -0.940 OA
ATOM      3  O   LIG    1       -1.218  -2.184   0.547  0.00  0.00    -0.940 OA
ENDROOT
BRANCH   1   4
ATOM      4  C   LIG    1        0.002  -0.004   0.002  0.00  0.00    -0.690 A 
ATOM      5  C   LIG    1        1.207  -0.688  -0.013  0.00  0.00    +0.170 A 
ATOM      6  C   LIG    1        2.404   0.002  -0.023  0.00  0.00    +0.000 A 
ATOM      7  C   LIG    1        2.404   1.386  -0.017  0.00  0.00    +0.190 A 
ATOM      8  O   LIG    1        3.566   2.086  -0.034  0.00  0.00    -0.320 OA
ATOM      9  C   LIG    1        3.921   2.727  -1.253  0.00  0.00    +0.240 C 
ATOM     10  C   LIG    1        2.732   3.447  -1.875  0.00  0.00    +0.260 C 
ATOM     11  N   LIG    1        1.998   4.209  -0.863  0.00  0.00    -0.720 N 
ATOM     12  H   LIG    1        2.081   5.175  -0.824  0.00  0.00    +0.410 HD
ATOM     13  C   LIG    1        1.202   3.557   0.018  0.00  0.00    +0.570 C 
ATOM     14  O   LIG    1        0.515   4.175   0.807  0.00  0.00    -0.520 OA
ATOM     15  C   LIG    1        1.184   2.082   0.002  0.00  0.00    -0.180 A 
ATOM     16  C   LIG    1       -0.017   1.375   0.010  0.00  0.00    +0.200 A 
ENDBRANCH   1   4
BRANCH   1  21
ATOM     17  C   LIG    1       -1.619  -1.195  -5.793  0.00  0.00    +0.090 C 
ATOM     18  C   LIG    1       -1.379  -0.891  -4.313  0.00  0.00    -0.100 C 
ATOM     19  C   LIG    1       -0.728  -2.013  -3.519  0.00  0.00    +0.070 C 
ATOM     20  C   LIG    1       -1.488  -2.340  -2.247  0.00  0.00    +0.300 C 
ATOM     21  N   LIG    1       -1.952  -1.142  -1.567  0.00  0.00    -0.990 NA
ATOM     22  C   LIG    1       -2.791  -0.150  -2.222  0.00  0.00    +0.350 C 
ATOM     23  C   LIG    1       -0.922   0.535  -3.962  0.00  0.00    +0.190 C 
ATOM     24  F   LIG    1       -0.741   1.434  -5.019  0.00  0.00    -0.160 F 
ATOM     25  F   LIG    1       -0.046   0.687  -2.883  0.00  0.00    -0.150 F 
ATOM     26  C   LIG    1       -2.343   0.084  -3.657  0.00  0.00    -0.010 C 
ENDBRANCH   1  21
TORSDOF 2
