REMARK  Name = ZINCkj00000dDM2t.2
REMARK                            x       y       z     vdW  Elec       q    Type
REMARK                         _______ _______ _______ _____ _____    ______ ____
ROOT
ATOM      1  C   LIG    1        0.038   1.461   0.024  0.00  0.00    +0.160 C 
ATOM      2  C   LIG    1       -0.754   2.015  -1.162  0.00  0.00    +0.110 C 
ENDROOT
BRANCH   1   6
ATOM      3  C   LIG    1       -0.701  -2.690   1.268  0.00  0.00    +0.020 C 
ATOM      4  C   LIG    1       -1.172  -2.095  -0.062  0.00  0.00    +0.220 C 
ATOM      5  C   LIG    1       -1.224  -0.574   0.034  0.00  0.00    +0.250 C 
ATOM      6  N   LIG    1        0.123  -0.005  -0.084  0.00  0.00    -0.380 N 
ATOM      7  C   LIG    1        0.677  -0.359  -1.396  0.00  0.00    +0.240 C 
ATOM      8  C   LIG    1        0.792  -1.874  -1.536  0.00  0.00    +0.220 C 
ATOM      9  C   LIG    1        2.017  -2.381  -0.770  0.00  0.00    +0.030 C 
ATOM     10  H   LIG    1        0.716  -0.350   0.651  0.00  0.00    +0.410 HD
ATOM     11  O   LIG    1       -0.380  -2.550  -1.136  0.00  0.00    -0.350 OA
ENDBRANCH   1   6
BRANCH   1  12
ATOM     12  C   LIG    1        1.448   2.055   0.016  0.00  0.00    +0.320 C 
BRANCH  12  13
ATOM     13  N   LIG    1        2.233   1.465   1.104  0.00  0.00    -0.750 N 
ATOM     14  H   LIG    1        1.853   0.756   1.646  0.00  0.00    +0.390 HD
ATOM     15  C   LIG    1        3.482   1.908   1.351  0.00  0.00    +0.570 C 
ATOM     16  O   LIG    1        3.957   2.796   0.671  0.00  0.00    -0.500 OA
BRANCH  15  17
ATOM     17  C   LIG    1        4.275   1.311   2.451  0.00  0.00    -0.100 A 
ATOM     18  C   LIG    1        3.744   0.292   3.248  0.00  0.00    -0.020 A 
ATOM     19  C   LIG    1        4.521  -0.240   4.259  0.00  0.00    +0.270 A 
ATOM     20  N   LIG    1        5.740   0.208   4.483  0.00  0.00    -0.460 NA
ATOM     21  C   LIG    1        6.276   1.171   3.759  0.00  0.00    +0.280 A 
ATOM     22  C   LIG    1        5.572   1.755   2.724  0.00  0.00    +0.040 A 
ENDBRANCH  15  17
ENDBRANCH  12  13
ENDBRANCH   1  12
TORSDOF 4
