REMARK  Name = ZINCkj00000dDM2t.1
REMARK                            x       y       z     vdW  Elec       q    Type
REMARK                         _______ _______ _______ _____ _____    ______ ____
ROOT
ATOM      1  C   LIG    1       -0.796   1.587   1.285  0.00  0.00    +0.170 C 
ATOM      2  C   LIG    1       -0.022   1.061   0.074  0.00  0.00    +0.110 C 
ENDROOT
BRANCH   1   6
ATOM      3  C   LIG    1       -2.125   5.367  -1.533  0.00  0.00    +0.110 C 
ATOM      4  C   LIG    1       -1.574   4.960  -0.165  0.00  0.00    +0.160 C 
ATOM      5  C   LIG    1       -1.475   3.435  -0.086  0.00  0.00    +0.240 C 
ATOM      6  N   LIG    1       -0.892   3.050   1.207  0.00  0.00    -0.390 N 
ATOM      7  C   LIG    1        0.449   3.637   1.333  0.00  0.00    +0.230 C 
ATOM      8  C   LIG    1        0.346   5.162   1.252  0.00  0.00    +0.160 C 
ATOM      9  C   LIG    1        1.747   5.773   1.322  0.00  0.00    +0.110 C 
ATOM     10  H   LIG    1       -1.480   3.389   1.954  0.00  0.00    +0.410 HD
ATOM     11  O   LIG    1       -0.273   5.528   0.015  0.00  0.00    -0.350 OA
ENDBRANCH   1   6
BRANCH   1  12
ATOM     12  C   LIG    1       -2.202   0.983   1.292  0.00  0.00    +0.320 C 
BRANCH  12  13
ATOM     13  N   LIG    1       -2.970   1.546   2.406  0.00  0.00    -0.750 N 
ATOM     14  H   LIG    1       -2.584   2.246   2.955  0.00  0.00    +0.390 HD
ATOM     15  C   LIG    1       -4.211   1.090   2.667  0.00  0.00    +0.570 C 
ATOM     16  O   LIG    1       -4.693   0.212   1.979  0.00  0.00    -0.500 OA
BRANCH  15  17
ATOM     17  C   LIG    1       -4.987   1.659   3.793  0.00  0.00    -0.100 A 
ATOM     18  C   LIG    1       -4.449   2.665   4.601  0.00  0.00    -0.020 A 
ATOM     19  C   LIG    1       -5.209   3.171   5.638  0.00  0.00    +0.270 A 
ATOM     20  N   LIG    1       -6.421   2.710   5.875  0.00  0.00    -0.460 NA
ATOM     21  C   LIG    1       -6.964   1.760   5.141  0.00  0.00    +0.280 A 
ATOM     22  C   LIG    1       -6.276   1.201   4.081  0.00  0.00    +0.040 A 
ENDBRANCH  15  17
ENDBRANCH  12  13
ENDBRANCH   1  12
TORSDOF 4
