REMARK  Name = ZINCkj000005g5L3.0
REMARK                            x       y       z     vdW  Elec       q    Type
REMARK                         _______ _______ _______ _____ _____    ______ ____
ROOT
ATOM      1  C   LIG    1       -2.455   0.869   0.018  0.00  0.00    -0.190 A 
ATOM      2  C   LIG    1       -3.685   1.544   0.028  0.00  0.00    +0.170 A 
ATOM      3  C   LIG    1       -4.836   0.803   0.029  0.00  0.00    -0.030 A 
ATOM      4  C   LIG    1       -4.754  -0.588   0.020  0.00  0.00    +0.310 A 
ATOM      5  N   LIG    1       -3.578  -1.202   0.011  0.00  0.00    -0.520 NA
ATOM      6  C   LIG    1       -2.448  -0.527   0.005  0.00  0.00    +0.330 A 
ENDROOT
BRANCH   4   7
ATOM      7  N   LIG    1       -5.916  -1.341   0.021  0.00  0.00    -0.480 N 
ATOM      8  C   LIG    1       -6.767  -0.995   1.169  0.00  0.00    +0.230 C 
ATOM      9  C   LIG    1       -8.065  -1.803   1.100  0.00  0.00    +0.270 C 
ATOM     10  N   LIG    1       -7.749  -3.237   1.118  0.00  0.00    -0.390 N 
ATOM     11  C   LIG    1       -6.920  -3.572  -0.047  0.00  0.00    +0.270 C 
ATOM     12  H   LIG    1       -7.247  -3.461   1.964  0.00  0.00    +0.420 HD
ATOM     13  C   LIG    1       -5.613  -2.779   0.012  0.00  0.00    +0.250 C 
BRANCH  10  14
ATOM     14  C   LIG    1       -8.996  -4.013   1.070  0.00  0.00    +0.160 C 
ATOM     15  C   LIG    1       -9.860  -3.664   2.284  0.00  0.00    +0.090 C 
ATOM     16  C   LIG    1       -8.668  -5.507   1.090  0.00  0.00    +0.090 C 
ENDBRANCH  10  14
ENDBRANCH   4   7
BRANCH   1  19
ATOM     17  N   LIG    1       -0.011   0.966   0.007  0.00  0.00    -0.720 N 
ATOM     18  H   LIG    1        0.002  -0.004   0.002  0.00  0.00    +0.400 HD
ATOM     19  C   LIG    1       -1.187   1.624   0.017  0.00  0.00    +0.560 C 
ATOM     20  O   LIG    1       -1.204   2.840   0.023  0.00  0.00    -0.530 OA
BRANCH  17  22
ATOM     21  C   LIG    1        2.424   0.737  -0.017  0.00  0.00    +0.030 C 
ATOM     22  C   LIG    1        1.248   1.716  -0.001  0.00  0.00    +0.250 C 
ENDBRANCH  17  22
ENDBRANCH   1  19
TORSDOF 4
