REMARK  Name = ZINCrD0000072ye2.0
REMARK                            x       y       z     vdW  Elec       q    Type
REMARK                         _______ _______ _______ _____ _____    ______ ____
ROOT
ATOM      1  C   LIG    1        4.703   1.559  -0.037  0.00  0.00    +0.190 A 
ATOM      2  N   LIG    1        3.530   2.126  -0.022  0.00  0.00    -0.450 NA
ATOM      3  C   LIG    1        2.377   1.438  -0.013  0.00  0.00    +0.110 A 
ATOM      4  C   LIG    1        2.389   0.024  -0.020  0.00  0.00    -0.080 A 
ATOM      5  C   LIG    1        3.688  -0.655  -0.037  0.00  0.00    -0.010 A 
ATOM      6  C   LIG    1        3.808  -2.043  -0.045  0.00  0.00    +0.020 A 
ATOM      7  C   LIG    1        5.051  -2.612  -0.061  0.00  0.00    +0.040 A 
ATOM      8  C   LIG    1        6.194  -1.821  -0.070  0.00  0.00    +0.010 A 
ATOM      9  C   LIG    1        6.108  -0.459  -0.062  0.00  0.00    +0.050 A 
ATOM     10  C   LIG    1        1.187  -0.684  -0.013  0.00  0.00    +0.030 A 
ATOM     11  C   LIG    1        0.002  -0.004   0.002  0.00  0.00    +0.030 A 
ATOM     12  C   LIG    1       -0.017   1.386   0.010  0.00  0.00    +0.020 A 
ATOM     13  C   LIG    1        1.143   2.104   0.002  0.00  0.00    +0.060 A 
ATOM     14  C   LIG    1        4.849   0.154  -0.046  0.00  0.00    -0.100 A 
ENDROOT
BRANCH   1  15
ATOM     15  C   LIG    1        5.937   2.425  -0.046  0.00  0.00    +0.300 C 
BRANCH  15  16
ATOM     16  O   LIG    1        6.348   2.696   1.320  0.00  0.00    -0.350 OA
BRANCH  16  17
ATOM     17  C   LIG    1        7.439   3.459   1.488  0.00  0.00    +0.450 C 
ATOM     18  O   LIG    1        8.031   3.887   0.525  0.00  0.00    -0.500 OA
BRANCH  17  19
ATOM     19  C   LIG    1        7.925   3.783   2.877  0.00  0.00    +0.390 C 
BRANCH  19  21
ATOM     20  C   LIG    1       10.449   4.005   2.736  0.00  0.00    +0.320 C 
ATOM     21  N   LIG    1        9.122   4.624   2.792  0.00  0.00    -0.570 N 
BRANCH  21  22
ATOM     22  C   LIG    1        8.999   6.002   2.764  0.00  0.00    +0.570 A 
ATOM     23  N   LIG    1        7.791   6.544   2.810  0.00  0.00    -0.570 NA
ATOM     24  C   LIG    1        7.638   7.858   2.791  0.00  0.00    +0.360 A 
ATOM     25  C   LIG    1        8.761   8.668   2.710  0.00  0.00    -0.140 A 
ATOM     26  C   LIG    1       10.009   8.067   2.658  0.00  0.00    +0.360 A 
ATOM     27  N   LIG    1       10.091   6.747   2.687  0.00  0.00    -0.560 NA
ENDBRANCH  21  22
ENDBRANCH  19  21
ENDBRANCH  17  19
ENDBRANCH  16  17
ENDBRANCH  15  16
ENDBRANCH   1  15
TORSDOF 6
