REMARK  Name = ZINCvU0000000GEQ.1
REMARK                            x       y       z     vdW  Elec       q    Type
REMARK                         _______ _______ _______ _____ _____    ______ ____
ROOT
ATOM      1  C   LIG    1        4.383  -1.703  -0.049  0.00  0.00    +0.600 C 
ATOM      2  N   LIG    1        4.650  -2.332   1.113  0.00  0.00    -0.720 N 
ATOM      3  H   LIG    1        4.473  -1.888   1.957  0.00  0.00    +0.400 HD
ATOM      4  O   LIG    1        4.604  -2.260  -1.107  0.00  0.00    -0.520 OA
ENDROOT
BRANCH   1   6
ATOM      5  C   LIG    1        4.514   0.829  -0.037  0.00  0.00    +0.100 A 
ATOM      6  C   LIG    1        3.823  -0.343  -0.036  0.00  0.00    -0.230 A 
ATOM      7  C   LIG    1        2.396   0.034  -0.021  0.00  0.00    -0.100 A 
ATOM      8  C   LIG    1        1.203  -0.681  -0.013  0.00  0.00    +0.060 A 
ATOM      9  C   LIG    1        0.002  -0.004   0.002  0.00  0.00    +0.000 A 
ATOM     10  C   LIG    1       -0.017   1.382   0.010  0.00  0.00    +0.050 A 
ATOM     11  C   LIG    1        1.160   2.101   0.002  0.00  0.00    +0.040 A 
ATOM     12  C   LIG    1        2.380   1.437  -0.013  0.00  0.00    +0.050 A 
ATOM     13  O   LIG    1        3.660   1.860  -0.023  0.00  0.00    -0.180 OA
BRANCH   5  14
ATOM     14  C   LIG    1        6.016   0.949  -0.051  0.00  0.00    +0.140 C 
BRANCH  14  15
ATOM     15  C   LIG    1        6.511   0.998  -1.498  0.00  0.00    +0.020 C 
BRANCH  15  17
ATOM     16  C   LIG    1        8.530   1.169  -2.959  0.00  0.00    +0.020 C 
ATOM     17  C   LIG    1        8.036   1.120  -1.512  0.00  0.00    +0.000 C 
ENDBRANCH  15  17
ENDBRANCH  14  15
ENDBRANCH   5  14
ENDBRANCH   1   6
BRANCH   2  18
ATOM     18  C   LIG    1        5.207  -3.687   1.101  0.00  0.00    +0.290 C 
ATOM     19  C   LIG    1        6.729  -3.612   0.961  0.00  0.00    +0.040 C 
BRANCH  18  20
ATOM     20  C   LIG    1        4.855  -4.387   2.388  0.00  0.00    -0.120 A 
ATOM     21  C   LIG    1        4.901  -3.695   3.584  0.00  0.00    +0.030 A 
ATOM     22  C   LIG    1        4.574  -4.332   4.765  0.00  0.00    -0.040 A 
ATOM     23  C   LIG    1        4.208  -5.671   4.752  0.00  0.00    +0.120 A 
ATOM     24  C   LIG    1        4.167  -6.365   3.549  0.00  0.00    -0.010 A 
ATOM     25  C   LIG    1        4.491  -5.721   2.371  0.00  0.00    +0.050 A 
BRANCH  23  26
ATOM     26  N   LIG    1        3.882  -6.320   5.945  0.00  0.00    -0.490 N 
ATOM     27  C   LIG    1        2.538  -6.911   5.873  0.00  0.00    +0.200 C 
ATOM     28  C   LIG    1        2.251  -7.678   7.166  0.00  0.00    +0.190 C 
ATOM     29  N   LIG    1        2.360  -6.762   8.310  0.00  0.00    -0.550 NA
ATOM     30  C   LIG    1        3.703  -6.171   8.382  0.00  0.00    +0.190 C 
ATOM     31  C   LIG    1        2.017  -7.444   9.565  0.00  0.00    +0.190 C 
ATOM     32  C   LIG    1        3.990  -5.404   7.089  0.00  0.00    +0.200 C 
ENDBRANCH  23  26
ENDBRANCH  18  20
ENDBRANCH   2  18
TORSDOF 7
