REMARK  Name = ZINCrH000004sC1G.0
REMARK                            x       y       z     vdW  Elec       q    Type
REMARK                         _______ _______ _______ _____ _____    ______ ____
ROOT
ATOM      1  N   LIG    1       -1.014  -2.220  -0.001  0.00  0.00    -0.710 N 
ATOM      2  H   LIG    1       -0.123  -2.603  -0.011  0.00  0.00    +0.410 HD
ATOM      3  C   LIG    1       -1.173  -0.882   0.008  0.00  0.00    +0.600 C 
ATOM      4  O   LIG    1       -2.291  -0.402   0.021  0.00  0.00    -0.510 OA
ENDROOT
BRANCH   1  14
ATOM      5  C   LIG    1       -3.937  -3.691   5.381  0.00  0.00    +0.180 C 
ATOM      6  C   LIG    1       -3.473  -3.546   3.955  0.00  0.00    +0.320 A 
ATOM      7  N   LIG    1       -3.090  -2.361   3.522  0.00  0.00    -0.520 NA
ATOM      8  C   LIG    1       -2.679  -2.200   2.276  0.00  0.00    +0.340 A 
ATOM      9  C   LIG    1       -2.653  -3.295   1.421  0.00  0.00    -0.220 A 
ATOM     10  C   LIG    1       -3.056  -4.519   1.910  0.00  0.00    +0.200 A 
ATOM     11  C   LIG    1       -3.052  -5.768   1.071  0.00  0.00    +0.110 C 
ATOM     12  C   LIG    1       -2.983  -5.413  -0.414  0.00  0.00    +0.040 C 
ATOM     13  C   LIG    1       -1.818  -4.440  -0.624  0.00  0.00    +0.040 C 
ATOM     14  C   LIG    1       -2.188  -3.097   0.005  0.00  0.00    +0.310 C 
ATOM     15  N   LIG    1       -3.459  -4.604   3.173  0.00  0.00    -0.520 NA
ENDBRANCH   1  14
BRANCH   3  16
ATOM     16  C   LIG    1        0.002  -0.004   0.002  0.00  0.00    -0.080 A 
ATOM     17  C   LIG    1       -0.016   1.361   0.009  0.00  0.00    -0.080 A 
ATOM     18  C   LIG    1        1.322   1.783  -0.001  0.00  0.00    -0.040 A 
ATOM     19  C   LIG    1        2.090   0.671  -0.014  0.00  0.00    +0.220 A 
ATOM     20  O   LIG    1        1.290  -0.404  -0.012  0.00  0.00    -0.160 OA
BRANCH  17  21
ATOM     21  C   LIG    1       -1.238   2.244   0.020  0.00  0.00    +0.310 C 
BRANCH  21  22
ATOM     22  O   LIG    1       -0.834   3.615   0.026  0.00  0.00    -0.310 OA
BRANCH  22  23
ATOM     23  C   LIG    1       -1.822   4.549   0.036  0.00  0.00    +0.130 A 
ATOM     24  C   LIG    1       -3.152   4.154   0.035  0.00  0.00    -0.080 A 
ATOM     25  C   LIG    1       -4.153   5.105   0.051  0.00  0.00    +0.050 A 
ATOM     26  C   LIG    1       -3.832   6.449   0.056  0.00  0.00    -0.040 A 
ATOM     27  C   LIG    1       -2.507   6.846   0.052  0.00  0.00    +0.050 A 
ATOM     28  C   LIG    1       -1.502   5.899   0.042  0.00  0.00    -0.020 A 
ENDBRANCH  22  23
ENDBRANCH  21  22
ENDBRANCH  17  21
ENDBRANCH   3  16
TORSDOF 5
