REMARK  Name = ZINCvU0000000GzP.0
REMARK                            x       y       z     vdW  Elec       q    Type
REMARK                         _______ _______ _______ _____ _____    ______ ____
ROOT
ATOM      1  C   LIG    1       -2.776   3.349  -2.761  0.00  0.00    +0.160 A 
ATOM      2  N   LIG    1       -3.002   3.980  -3.890  0.00  0.00    -0.290 NA
ATOM      3  N   LIG    1       -1.940   4.601  -4.263  0.00  0.00    -0.270 NA
ATOM      4  C   LIG    1       -0.983   4.409  -3.399  0.00  0.00    +0.190 A 
ATOM      5  N   LIG    1       -1.482   3.608  -2.410  0.00  0.00    -0.450 N 
ENDROOT
BRANCH   5   6
ATOM      6  C   LIG    1       -0.773   3.123  -1.223  0.00  0.00    +0.230 C 
ATOM      7  C   LIG    1       -0.753   1.593  -1.232  0.00  0.00    +0.020 C 
ATOM      8  C   LIG    1       -0.013   1.086   0.008  0.00  0.00    +0.030 C 
ATOM      9  C   LIG    1       -0.729   1.579   1.267  0.00  0.00    +0.010 C 
ATOM     10  C   LIG    1       -0.750   3.109   1.275  0.00  0.00    +0.030 C 
ATOM     11  C   LIG    1       -1.490   3.616   0.036  0.00  0.00    +0.010 C 
ENDBRANCH   5   6
BRANCH   1  12
ATOM     12  S   LIG    1       -3.926   2.358  -1.866  0.00  0.00    +0.040 S 
BRANCH  12  13
ATOM     13  C   LIG    1       -5.372   2.503  -2.946  0.00  0.00    +0.170 C 
BRANCH  13  20
ATOM     14  C   LIG    1      -10.693  -2.646  -0.321  0.00  0.00    +0.130 C 
ATOM     15  C   LIG    1       -9.560  -1.834  -0.896  0.00  0.00    -0.130 A 
ATOM     16  C   LIG    1       -9.583  -0.485  -0.804  0.00  0.00    +0.270 A 
ATOM     17  N   LIG    1       -8.569   0.264  -1.318  0.00  0.00    -0.420 N 
ATOM     18  C   LIG    1       -8.613   1.610  -1.214  0.00  0.00    +0.510 A 
ATOM     19  C   LIG    1       -7.563   2.366  -1.747  0.00  0.00    -0.150 A 
ATOM     20  C   LIG    1       -6.514   1.712  -2.364  0.00  0.00    +0.220 A 
ATOM     21  N   LIG    1       -6.515   0.391  -2.448  0.00  0.00    -0.530 NA
ATOM     22  O   LIG    1       -9.555   2.158  -0.663  0.00  0.00    -0.530 OA
ATOM     23  C   LIG    1       -7.508  -0.336  -1.938  0.00  0.00    +0.390 A 
ATOM     24  C   LIG    1       -7.467  -1.738  -2.043  0.00  0.00    +0.040 A 
ATOM     25  C   LIG    1       -8.486  -2.479  -1.526  0.00  0.00    +0.130 A 
ENDBRANCH  13  20
ENDBRANCH  12  13
ENDBRANCH   1  12
BRANCH   4  26
ATOM     26  C   LIG    1        0.415   4.967  -3.477  0.00  0.00    +0.250 C 
BRANCH  26  27
ATOM     27  C   LIG    1        1.300   4.003  -4.223  0.00  0.00    -0.190 A 
ATOM     28  C   LIG    1        1.498   4.003  -5.542  0.00  0.00    +0.040 A 
ATOM     29  C   LIG    1        2.358   3.022  -6.004  0.00  0.00    +0.010 A 
ATOM     30  C   LIG    1        2.852   2.218  -5.060  0.00  0.00    -0.030 A 
ATOM     31  S   LIG    1        2.225   2.699  -3.489  0.00  0.00    +0.090 S 
ENDBRANCH  26  27
ENDBRANCH   4  26
TORSDOF 6
