REMARK  Name = ZINCpk00000y6ywy.0
REMARK                            x       y       z     vdW  Elec       q    Type
REMARK                         _______ _______ _______ _____ _____    ______ ____
ROOT
ATOM      1  C   LIG    1       -5.210   0.099  -2.227  0.00  0.00    +0.510 C 
ATOM      2  N   LIG    1       -4.493   0.553  -1.180  0.00  0.00    -0.710 N 
ATOM      3  H   LIG    1       -3.843  -0.024  -0.750  0.00  0.00    +0.410 HD
ATOM      4  O   LIG    1       -6.023   0.820  -2.764  0.00  0.00    -0.520 OA
ENDROOT
BRANCH   2   5
ATOM      5  C   LIG    1       -4.696   1.919  -0.691  0.00  0.00    +0.240 C 
ATOM      6  C   LIG    1       -5.787   1.947   0.403  0.00  0.00    +0.200 C 
ATOM      7  O   LIG    1       -5.326   2.926   1.359  0.00  0.00    -0.360 OA
ATOM      8  C   LIG    1       -3.903   2.706   1.474  0.00  0.00    +0.210 C 
ATOM      9  C   LIG    1       -3.429   2.430   0.030  0.00  0.00    +0.150 C 
BRANCH   9  10
ATOM     10  O   LIG    1       -2.409   1.429   0.020  0.00  0.00    -0.290 OA
BRANCH  10  11
ATOM     11  C   LIG    1       -1.117   1.862   0.017  0.00  0.00    -0.030 A 
ATOM     12  C   LIG    1       -0.013   1.076   0.008  0.00  0.00    +0.220 A 
ATOM     13  N   LIG    1        1.073   1.893   0.002  0.00  0.00    -0.470 N 
ATOM     14  H   LIG    1        2.001   1.611  -0.008  0.00  0.00    +0.450 HD
ATOM     15  N   LIG    1        0.613   3.217   0.013  0.00  0.00    -0.260 NA
ATOM     16  C   LIG    1       -0.695   3.198   0.025  0.00  0.00    +0.190 A 
ENDBRANCH  10  11
ENDBRANCH   9  10
ENDBRANCH   2   5
BRANCH   1  17
ATOM     17  C   LIG    1       -5.001  -1.307  -2.729  0.00  0.00    +0.140 C 
BRANCH  17  20
ATOM     18  C   LIG    1       -7.771  -2.633  -2.577  0.00  0.00    +0.310 C 
ATOM     19  N   LIG    1       -7.149  -2.156  -3.814  0.00  0.00    -0.480 N 
ATOM     20  C   LIG    1       -5.918  -1.564  -3.897  0.00  0.00    +0.090 A 
ATOM     21  C   LIG    1       -5.651  -1.240  -5.173  0.00  0.00    -0.040 A 
ATOM     22  C   LIG    1       -6.801  -1.669  -5.973  0.00  0.00    -0.110 A 
ATOM     23  C   LIG    1       -7.112  -1.611  -7.333  0.00  0.00    +0.050 A 
ATOM     24  C   LIG    1       -8.306  -2.106  -7.777  0.00  0.00    -0.030 A 
ATOM     25  C   LIG    1       -9.212  -2.666  -6.887  0.00  0.00    +0.020 A 
ATOM     26  C   LIG    1       -8.925  -2.733  -5.541  0.00  0.00    -0.010 A 
ATOM     27  C   LIG    1       -7.716  -2.235  -5.067  0.00  0.00    +0.100 A 
ENDBRANCH  17  20
ENDBRANCH   1  17
TORSDOF 5
