REMARK  Name = ZINCqH0000050TZJ.0
REMARK                            x       y       z     vdW  Elec       q    Type
REMARK                         _______ _______ _______ _____ _____    ______ ____
ROOT
ATOM      1  N   LIG    1       -3.126   4.868   0.057  0.00  0.00    -0.450 N 
ATOM      2  C   LIG    1       -2.596   5.634  -1.079  0.00  0.00    +0.220 C 
ATOM      3  C   LIG    1       -3.028   7.097  -0.955  0.00  0.00    +0.060 C 
ATOM      4  C   LIG    1       -4.557   7.172  -0.933  0.00  0.00    +0.120 C 
ATOM      5  C   LIG    1       -5.086   6.327   0.229  0.00  0.00    +0.060 C 
ATOM      6  C   LIG    1       -4.594   4.886   0.070  0.00  0.00    +0.210 C 
ENDROOT
BRANCH   1  14
ATOM      7 CL   LIG    1        2.668   4.040  -0.002  0.00  0.00    -0.050 Cl
ATOM      8  C   LIG    1        1.166   3.170   0.008  0.00  0.00    -0.070 A 
ATOM      9  C   LIG    1        1.171   1.782   0.000  0.00  0.00    +0.100 A 
ATOM     10  C   LIG    1       -0.013   1.076   0.008  0.00  0.00    +0.040 A 
ATOM     11  C   LIG    1       -1.225   1.754   0.017  0.00  0.00    +0.100 A 
ATOM     12  O   LIG    1       -2.511   1.348   0.033  0.00  0.00    -0.080 OA
ATOM     13  N   LIG    1       -3.362   2.477   0.047  0.00  0.00    -0.320 NA
ATOM     14  C   LIG    1       -2.645   3.566   0.046  0.00  0.00    +0.310 A 
ATOM     15  C   LIG    1       -1.232   3.158   0.030  0.00  0.00    -0.180 A 
ATOM     16  C   LIG    1       -0.027   3.860   0.023  0.00  0.00    +0.120 A 
ENDBRANCH   1  14
BRANCH   4  17
ATOM     17  C   LIG    1       -4.989   8.604  -0.752  0.00  0.00    +0.190 A 
ATOM     18  N   LIG    1       -5.729   9.307  -1.576  0.00  0.00    -0.470 NA
ATOM     19  C   LIG    1       -5.854  10.519  -1.006  0.00  0.00    +0.180 A 
ATOM     20  N   LIG    1       -5.196  10.492   0.114  0.00  0.00    -0.370 NA
ATOM     21  O   LIG    1       -4.697   9.399   0.281  0.00  0.00    +0.090 OA
BRANCH  19  22
ATOM     22  C   LIG    1       -6.617  11.692  -1.565  0.00  0.00    +0.090 C 
ATOM     23  C   LIG    1       -7.738  12.122  -0.591  0.00  0.00    +0.030 C 
ATOM     24  C   LIG    1       -7.370  13.574  -0.213  0.00  0.00    +0.200 C 
ATOM     25  O   LIG    1       -6.559  14.047  -1.310  0.00  0.00    -0.370 OA
ATOM     26  C   LIG    1       -5.705  12.935  -1.659  0.00  0.00    +0.230 C 
ENDBRANCH  19  22
ENDBRANCH   4  17
TORSDOF 3
