REMARK  Name = ZINCpe000000W3Fu.0
REMARK                            x       y       z     vdW  Elec       q    Type
REMARK                         _______ _______ _______ _____ _____    ______ ____
ROOT
ATOM      1  C   LIG    1        0.354   6.032  -0.985  0.00  0.00    +0.260 C 
ATOM      2  C   LIG    1       -0.401   5.386   0.180  0.00  0.00    +0.040 C 
ATOM      3  C   LIG    1       -0.362   3.864   0.025  0.00  0.00    +0.230 C 
ATOM      4  N   LIG    1        1.034   3.408   0.010  0.00  0.00    -0.470 N 
ATOM      5  C   LIG    1        1.766   3.978  -1.128  0.00  0.00    +0.230 C 
ATOM      6  C   LIG    1        1.791   5.503  -1.007  0.00  0.00    +0.050 C 
ENDROOT
BRANCH   1  11
ATOM      7  C   LIG    1        0.088   9.735  -1.105  0.00  0.00    +0.120 C 
ATOM      8  N   LIG    1        0.792   9.451   0.157  0.00  0.00    -0.710 N 
ATOM      9  H   LIG    1        1.109  10.101   0.803  0.00  0.00    +0.440 HD
ATOM     10  C   LIG    1        0.909   8.113   0.240  0.00  0.00    +0.700 C 
ATOM     11  N   LIG    1        0.369   7.487  -0.812  0.00  0.00    -0.570 N 
ATOM     12  O   LIG    1        1.445   7.538   1.167  0.00  0.00    -0.530 OA
ATOM     13  C   LIG    1       -1.237  10.450  -0.834  0.00  0.00    +0.100 C 
ATOM     14  C   LIG    1       -0.153   8.360  -1.696  0.00  0.00    +0.530 C 
ATOM     15  O   LIG    1       -0.704   8.099  -2.744  0.00  0.00    -0.460 OA
BRANCH   7  16
ATOM     16  C   LIG    1        0.969  10.572  -2.036  0.00  0.00    +0.210 C 
BRANCH  16  18
ATOM     17  C   LIG    1        2.192  12.630  -2.153  0.00  0.00    +0.210 C 
ATOM     18  O   LIG    1        1.362  11.772  -1.367  0.00  0.00    -0.380 OA
ENDBRANCH  16  18
ENDBRANCH   7  16
ENDBRANCH   1  11
BRANCH   4  19
ATOM     19  C   LIG    1        1.103   2.023   0.002  0.00  0.00    +0.340 A 
ATOM     20  C   LIG    1        2.349   1.399  -0.013  0.00  0.00    -0.040 A 
ATOM     21  C   LIG    1        2.414   0.031  -0.021  0.00  0.00    +0.150 A 
ATOM     22  C   LIG    1        1.214  -0.696  -0.014  0.00  0.00    -0.110 A 
ATOM     23  C   LIG    1        0.002  -0.004   0.002  0.00  0.00    +0.360 A 
ATOM     24  N   LIG    1       -0.016   1.313   0.009  0.00  0.00    -0.520 NA
BRANCH  22  25
ATOM     25  C   LIG    1        1.233  -2.128  -0.023  0.00  0.00    +0.260 C 
ATOM     26  N   LIG    1        1.248  -3.264  -0.029  0.00  0.00    -0.410 NA
ENDBRANCH  22  25
ENDBRANCH   4  19
TORSDOF 5
