REMARK  Name = ZINCvU00000008zg.0
REMARK                            x       y       z     vdW  Elec       q    Type
REMARK                         _______ _______ _______ _____ _____    ______ ____
ROOT
ATOM      1  C   LIG    1       -7.297   2.097   0.051  0.00  0.00    +0.140 C 
ENDROOT
BRANCH   1   3
ATOM      2  O   LIG    1       -5.672   3.808   0.051  0.00  0.00    -0.490 OA
ATOM      3  C   LIG    1       -5.881   2.614   0.046  0.00  0.00    +0.540 C 
ATOM      4  N   LIG    1       -4.848   1.748   0.036  0.00  0.00    -0.610 N 
ATOM      5  H   LIG    1       -5.016   0.793   0.032  0.00  0.00    +0.430 HD
BRANCH   4   6
ATOM      6  C   LIG    1       -3.543   2.224   0.032  0.00  0.00    +0.270 A 
ATOM      7  N   LIG    1       -2.476   1.487   0.022  0.00  0.00    -0.490 NA
ATOM      8  C   LIG    1       -1.310   2.116   0.020  0.00  0.00    +0.130 A 
ATOM      9  C   LIG    1       -1.379   3.460   0.033  0.00  0.00    -0.110 A 
ATOM     10  S   LIG    1       -3.079   3.923   0.039  0.00  0.00    +0.210 S 
BRANCH   8  11
ATOM     11  C   LIG    1       -0.017   1.390   0.010  0.00  0.00    -0.020 A 
ATOM     12  C   LIG    1        1.184   2.098   0.002  0.00  0.00    +0.020 A 
ATOM     13  C   LIG    1        2.384   1.416  -0.014  0.00  0.00    +0.010 A 
ATOM     14  C   LIG    1        2.396   0.033  -0.021  0.00  0.00    +0.010 A 
ATOM     15  C   LIG    1        1.208  -0.675  -0.013  0.00  0.00    +0.010 A 
ATOM     16  C   LIG    1        0.002  -0.004   0.002  0.00  0.00    +0.040 A 
ENDBRANCH   8  11
ENDBRANCH   4   6
ENDBRANCH   1   3
BRANCH   1  17
ATOM     17  S   LIG    1       -8.449   3.493   0.064  0.00  0.00    +0.090 S 
BRANCH  17  18
ATOM     18  C   LIG    1       -9.982   2.625   0.068  0.00  0.00    +0.140 A 
ATOM     19  N   LIG    1      -10.141   1.322   0.057  0.00  0.00    -0.290 NA
ATOM     20  N   LIG    1      -11.394   1.036   0.066  0.00  0.00    -0.280 NA
ATOM     21  C   LIG    1      -12.103   2.129   0.076  0.00  0.00    +0.230 A 
ATOM     22  N   LIG    1      -11.229   3.181   0.078  0.00  0.00    -0.450 N 
BRANCH  21  23
ATOM     23  C   LIG    1      -13.607   2.217   0.084  0.00  0.00    +0.030 C 
ATOM     24  C   LIG    1      -14.391   0.919   0.287  0.00  0.00    +0.070 C 
ATOM     25  C   LIG    1      -14.359   1.587  -1.090  0.00  0.00    +0.060 C 
ENDBRANCH  21  23
BRANCH  22  26
ATOM     26  C   LIG    1      -11.562   4.607   0.087  0.00  0.00    +0.370 C 
BRANCH  26  27
ATOM     27  C   LIG    1      -11.683   5.105  -1.330  0.00  0.00    -0.130 A 
ATOM     28  C   LIG    1      -10.574   5.610  -1.982  0.00  0.00    +0.040 A 
ATOM     29  C   LIG    1      -10.684   6.062  -3.284  0.00  0.00    +0.010 A 
ATOM     30  C   LIG    1      -11.905   6.018  -3.930  0.00  0.00    +0.030 A 
ATOM     31  C   LIG    1      -13.015   5.517  -3.276  0.00  0.00    +0.010 A 
ATOM     32  C   LIG    1      -12.904   5.061  -1.976  0.00  0.00    +0.030 A 
ENDBRANCH  26  27
ENDBRANCH  22  26
ENDBRANCH  17  18
ENDBRANCH   1  17
TORSDOF 8
