REMARK  Name = ZINCrD00000F5LrG.0
REMARK                            x       y       z     vdW  Elec       q    Type
REMARK                         _______ _______ _______ _____ _____    ______ ____
ROOT
ATOM      1  C   LIG    1       -0.202   7.699  -3.692  0.00  0.00    +0.070 C 
ATOM      2  C   LIG    1        1.164   7.855  -3.020  0.00  0.00    +0.180 C 
ENDROOT
BRANCH   2   3
ATOM      3  C   LIG    1        1.086   7.355  -1.601  0.00  0.00    +0.520 C 
ATOM      4  N   LIG    1        0.847   6.051  -1.358  0.00  0.00    -0.720 N 
ATOM      5  H   LIG    1        0.725   5.435  -2.097  0.00  0.00    +0.400 HD
ATOM      6  O   LIG    1        1.239   8.126  -0.677  0.00  0.00    -0.510 OA
BRANCH   4   7
ATOM      7  C   LIG    1        0.771   5.565   0.022  0.00  0.00    +0.340 C 
BRANCH   7   8
ATOM      8  C   LIG    1        0.496   4.083   0.018  0.00  0.00    -0.100 A 
ATOM      9  C   LIG    1       -0.808   3.624   0.028  0.00  0.00    +0.050 A 
ATOM     10  C   LIG    1       -1.065   2.265   0.019  0.00  0.00    +0.040 A 
ATOM     11  C   LIG    1       -0.016   1.361   0.009  0.00  0.00    +0.040 A 
ATOM     12  O   LIG    1        0.002  -0.004   0.002  0.00  0.00    -0.310 OA
ATOM     13  C   LIG    1        1.336  -0.373   0.399  0.00  0.00    +0.430 C 
ATOM     14  O   LIG    1        2.139   0.749  -0.014  0.00  0.00    -0.310 OA
ATOM     15  C   LIG    1        1.297   1.824  -0.001  0.00  0.00    +0.030 A 
ATOM     16  C   LIG    1        1.548   3.186   0.004  0.00  0.00    +0.060 A 
ENDBRANCH   7   8
ENDBRANCH   4   7
ENDBRANCH   2   3
BRANCH   2  17
ATOM     17  O   LIG    1        1.540   9.234  -3.019  0.00  0.00    -0.320 OA
BRANCH  17  18
ATOM     18  C   LIG    1        2.241   9.679  -4.083  0.00  0.00    +0.500 C 
ATOM     19  O   LIG    1        2.525   8.915  -4.986  0.00  0.00    -0.510 OA
BRANCH  18  20
ATOM     20  C   LIG    1        2.659  11.078  -4.149  0.00  0.00    -0.040 C 
ATOM     21  C   LIG    1        3.360  11.523  -5.213  0.00  0.00    +0.140 C 
BRANCH  21  22
ATOM     22  C   LIG    1        3.780  12.932  -5.280  0.00  0.00    -0.070 A 
ATOM     23  C   LIG    1        4.507  13.396  -6.381  0.00  0.00    +0.050 A 
ATOM     24  C   LIG    1        4.898  14.718  -6.437  0.00  0.00    +0.030 A 
ATOM     25  C   LIG    1        4.573  15.584  -5.408  0.00  0.00    +0.050 A 
ATOM     26  C   LIG    1        3.854  15.132  -4.314  0.00  0.00    -0.040 A 
ATOM     27 CL   LIG    1        3.451  16.228  -3.029  0.00  0.00    -0.060 Cl
ATOM     28  C   LIG    1        3.450  13.814  -4.246  0.00  0.00    +0.050 A 
ENDBRANCH  21  22
ENDBRANCH  18  20
ENDBRANCH  17  18
ENDBRANCH   2  17
TORSDOF 7
