REMARK  Name = ZINCrH000004sHLu.0
REMARK                            x       y       z     vdW  Elec       q    Type
REMARK                         _______ _______ _______ _____ _____    ______ ____
ROOT
ATOM      1  C   LIG    1        3.978  -1.808   8.234  0.00  0.00    +0.190 A 
ATOM      2  N   LIG    1        4.374  -1.948   6.994  0.00  0.00    -0.440 NA
ATOM      3  C   LIG    1        3.426  -1.348   6.240  0.00  0.00    +0.220 A 
ATOM      4  N   LIG    1        2.513  -0.892   7.057  0.00  0.00    -0.360 NA
ATOM      5  O   LIG    1        2.816  -1.148   8.204  0.00  0.00    +0.090 OA
ENDROOT
BRANCH   3   6
ATOM      6  C   LIG    1        3.418  -1.234   4.759  0.00  0.00    +0.230 A 
ATOM      7  C   LIG    1        2.364  -0.589   4.123  0.00  0.00    -0.020 A 
ATOM      8  C   LIG    1        2.372  -0.491   2.735  0.00  0.00    +0.180 A 
ATOM      9  C   LIG    1        3.439  -1.050   2.038  0.00  0.00    -0.100 A 
ATOM     10  C   LIG    1        4.454  -1.671   2.740  0.00  0.00    +0.310 A 
ATOM     11  N   LIG    1        4.419  -1.749   4.055  0.00  0.00    -0.470 NA
BRANCH   8  12
ATOM     12  O   LIG    1        1.360   0.131   2.077  0.00  0.00    -0.280 OA
BRANCH  12  13
ATOM     13  C   LIG    1        1.387   0.078   0.649  0.00  0.00    +0.140 C 
ATOM     14  C   LIG    1        0.005   0.267  -0.000  0.00  0.00    +0.050 C 
ATOM     15  C   LIG    1        0.299   1.777   0.003  0.00  0.00    +0.020 C 
ATOM     16  C   LIG    1        1.791   1.407  -0.009  0.00  0.00    +0.020 C 
ENDBRANCH  12  13
ENDBRANCH   8  12
ENDBRANCH   3   6
BRANCH   1  17
ATOM     17  C   LIG    1        4.694  -2.304   9.464  0.00  0.00    +0.130 C 
ATOM     18  C   LIG    1        5.023  -1.120  10.375  0.00  0.00    +0.060 C 
BRANCH  17  19
ATOM     19  C   LIG    1        3.796  -3.290  10.214  0.00  0.00    +0.130 C 
BRANCH  19  27
ATOM     20  C   LIG    1        5.552  -5.927  10.145  0.00  0.00    +0.150 C 
ATOM     21  C   LIG    1        5.331  -5.043  11.345  0.00  0.00    +0.090 A 
ATOM     22  N   LIG    1        5.835  -5.229  12.538  0.00  0.00    -0.300 NA
ATOM     23  N   LIG    1        5.386  -4.193  13.368  0.00  0.00    -0.370 N 
ATOM     24  C   LIG    1        4.604  -3.379  12.631  0.00  0.00    +0.100 A 
ATOM     25  C   LIG    1        3.907  -2.135  13.119  0.00  0.00    +0.140 C 
ATOM     26  C   LIG    1        5.711  -4.025  14.787  0.00  0.00    +0.360 C 
ATOM     27  C   LIG    1        4.556  -3.879  11.374  0.00  0.00    -0.240 A 
ENDBRANCH  19  27
ENDBRANCH  17  19
ENDBRANCH   1  17
TORSDOF 6
