REMARK  Name = ZINCrH000004qxRC.0
REMARK                            x       y       z     vdW  Elec       q    Type
REMARK                         _______ _______ _______ _____ _____    ______ ____
ROOT
ATOM      1  N   LIG    1       -2.196   4.605  -1.846  0.00  0.00    -0.600 N 
ATOM      2  C   LIG    1       -2.183   5.916  -1.536  0.00  0.00    +0.590 C 
ATOM      3  O   LIG    1       -2.778   6.713  -2.237  0.00  0.00    -0.530 OA
ATOM      4  C   LIG    1       -1.630   3.626  -0.913  0.00  0.00    +0.300 C 
ENDROOT
BRANCH   2   5
ATOM      5  C   LIG    1       -1.453   6.383  -0.352  0.00  0.00    -0.090 A 
ATOM      6  C   LIG    1       -0.852   5.607   0.600  0.00  0.00    +0.230 A 
ATOM      7  N   LIG    1       -0.301   6.420   1.501  0.00  0.00    -0.490 NA
ATOM      8  C   LIG    1       -0.519   7.666   1.164  0.00  0.00    +0.440 A 
ATOM      9  N   LIG    1       -1.234   7.696   0.023  0.00  0.00    -0.380 N 
BRANCH   9  10
ATOM     10  C   LIG    1       -1.670   8.842  -0.658  0.00  0.00    +0.100 A 
ATOM     11  C   LIG    1       -2.443   9.789  -0.000  0.00  0.00    +0.060 A 
ATOM     12  C   LIG    1       -2.871  10.917  -0.673  0.00  0.00    +0.010 A 
ATOM     13  C   LIG    1       -2.530  11.103  -2.002  0.00  0.00    +0.120 A 
ATOM     14  C   LIG    1       -1.763  10.156  -2.661  0.00  0.00    +0.010 A 
ATOM     15  F   LIG    1       -2.949  12.207  -2.658  0.00  0.00    -0.130 F 
ATOM     16  C   LIG    1       -1.329   9.030  -1.990  0.00  0.00    +0.090 A 
ENDBRANCH   9  10
ENDBRANCH   2   5
BRANCH   1  17
ATOM     17  C   LIG    1       -2.775   4.158  -3.115  0.00  0.00    +0.330 C 
BRANCH  17  18
ATOM     18  C   LIG    1       -1.688   4.140  -4.193  0.00  0.00    +0.190 C 
BRANCH  18  19
ATOM     19  O   LIG    1       -0.703   3.160  -3.860  0.00  0.00    -0.310 OA
BRANCH  19  25
ATOM     20  C   LIG    1        1.551   4.506  -7.975  0.00  0.00    +0.090 C 
ATOM     21  C   LIG    1        1.471   3.653  -6.735  0.00  0.00    -0.040 A 
ATOM     22  C   LIG    1        2.459   2.722  -6.473  0.00  0.00    -0.040 A 
ATOM     23  C   LIG    1        2.389   1.938  -5.337  0.00  0.00    -0.040 A 
ATOM     24  C   LIG    1        1.331   2.082  -4.460  0.00  0.00    -0.030 A 
ATOM     25  C   LIG    1        0.338   3.016  -4.721  0.00  0.00    +0.140 A 
ATOM     26  C   LIG    1        3.468   0.924  -5.054  0.00  0.00    +0.090 C 
ATOM     27  C   LIG    1        0.408   3.798  -5.865  0.00  0.00    -0.100 A 
ENDBRANCH  19  25
ENDBRANCH  18  19
ENDBRANCH  17  18
ENDBRANCH   1  17
TORSDOF 6
