REMARK  Name = ZINCrD000000CHzt.0
REMARK                            x       y       z     vdW  Elec       q    Type
REMARK                         _______ _______ _______ _____ _____    ______ ____
ROOT
ATOM      1  C   LIG    1        6.756   4.310   0.894  0.00  0.00    +0.600 C 
ATOM      2  N   LIG    1        5.956   3.612   0.064  0.00  0.00    -0.600 N 
ATOM      3  O   LIG    1        6.666   5.522   0.950  0.00  0.00    -0.520 OA
ENDROOT
BRANCH   1   6
ATOM      4  O   LIG    1        9.494   4.131   0.359  0.00  0.00    -0.510 OA
ATOM      5  C   LIG    1        9.105   3.575   1.372  0.00  0.00    +0.530 A 
ATOM      6  C   LIG    1        7.736   3.608   1.732  0.00  0.00    -0.350 A 
ATOM      7  C   LIG    1        7.337   2.954   2.906  0.00  0.00    +0.400 A 
ATOM      8  N   LIG    1        8.232   2.329   3.643  0.00  0.00    -0.540 NA
ATOM      9  C   LIG    1        9.523   2.298   3.304  0.00  0.00    +0.400 A 
ATOM     10  C   LIG    1       10.434   1.616   4.128  0.00  0.00    +0.030 A 
ATOM     11  C   LIG    1       11.754   1.581   3.787  0.00  0.00    +0.140 A 
ATOM     12  C   LIG    1       12.183   2.225   2.619  0.00  0.00    +0.000 A 
ATOM     13  C   LIG    1       11.291   2.877   1.838  0.00  0.00    +0.290 A 
ATOM     14  N   LIG    1        9.972   2.917   2.171  0.00  0.00    -0.420 N 
ENDBRANCH   1   6
BRANCH   2  15
ATOM     15  C   LIG    1        6.008   2.148   0.056  0.00  0.00    +0.220 C 
ATOM     16  C   LIG    1        5.468   1.608  -1.284  0.00  0.00    +0.020 C 
ATOM     17  C   LIG    1        4.696   0.323  -0.892  0.00  0.00    +0.020 C 
ATOM     18  C   LIG    1        4.032   0.719   0.450  0.00  0.00    +0.020 C 
ATOM     19  C   LIG    1        5.096   1.583   1.159  0.00  0.00    +0.000 C 
ENDBRANCH   2  15
BRANCH   2  20
ATOM     20  C   LIG    1        5.036   4.318  -0.831  0.00  0.00    +0.290 C 
BRANCH  20  21
ATOM     21  C   LIG    1        5.736   4.605  -2.160  0.00  0.00    +0.060 C 
BRANCH  21  22
ATOM     22  C   LIG    1        4.789   5.331  -3.081  0.00  0.00    -0.080 A 
ATOM     23  C   LIG    1        3.973   4.616  -3.937  0.00  0.00    +0.000 A 
ATOM     24  C   LIG    1        3.100   5.281  -4.777  0.00  0.00    +0.000 A 
ATOM     25  C   LIG    1        3.052   6.663  -4.769  0.00  0.00    +0.000 A 
ATOM     26  C   LIG    1        3.872   7.378  -3.917  0.00  0.00    +0.000 A 
ATOM     27  C   LIG    1        4.740   6.713  -3.073  0.00  0.00    +0.010 A 
ENDBRANCH  21  22
ENDBRANCH  20  21
ENDBRANCH   2  20
TORSDOF 5
