REMARK  Name = ZINCrg000000oE0A.0
REMARK                            x       y       z     vdW  Elec       q    Type
REMARK                         _______ _______ _______ _____ _____    ______ ____
ROOT
ATOM      1  C   LIG    1        1.391   1.959   4.376  0.00  0.00    +0.110 C 
ENDROOT
BRANCH   1   2
ATOM      2  C   LIG    1        0.791   2.144   3.006  0.00  0.00    +0.470 C 
ATOM      3  O   LIG    1        1.197   3.021   2.281  0.00  0.00    -0.500 OA
BRANCH   2   4
ATOM      4  O   LIG    1       -0.195   1.333   2.591  0.00  0.00    -0.330 OA
BRANCH   4   5
ATOM      5  C   LIG    1       -0.726   1.569   1.260  0.00  0.00    +0.180 C 
ATOM      6  C   LIG    1        0.065   0.745   0.242  0.00  0.00    +0.070 C 
BRANCH   5   7
ATOM      7  C   LIG    1       -2.176   1.161   1.218  0.00  0.00    +0.520 C 
ATOM      8  N   LIG    1       -2.965   1.581   0.209  0.00  0.00    -0.610 N 
ATOM      9  C   LIG    1       -2.413   2.361  -0.910  0.00  0.00    +0.250 C 
ATOM     10  C   LIG    1       -2.865   1.702  -2.223  0.00  0.00    +0.220 C 
ATOM     11  O   LIG    1       -4.285   1.539  -2.202  0.00  0.00    -0.380 OA
ATOM     12  C   LIG    1       -4.760   0.675  -1.167  0.00  0.00    +0.220 C 
ATOM     13  C   LIG    1       -4.405   1.277   0.197  0.00  0.00    +0.270 C 
ATOM     14  O   LIG    1       -2.633   0.456   2.092  0.00  0.00    -0.510 OA
ENDBRANCH   5   7
ENDBRANCH   4   5
ENDBRANCH   2   4
ENDBRANCH   1   2
BRANCH   1  15
ATOM     15  C   LIG    1        2.486   3.005   4.598  0.00  0.00    +0.360 C 
BRANCH  15  18
ATOM     16  N   LIG    1        4.386   2.120   7.547  0.00  0.00    -0.540 N 
ATOM     17  C   LIG    1        4.124   2.043   6.229  0.00  0.00    +0.680 A 
ATOM     18  N   LIG    1        3.070   2.826   5.929  0.00  0.00    -0.540 N 
ATOM     19  C   LIG    1        2.633   3.440   7.100  0.00  0.00    +0.090 A 
ATOM     20  C   LIG    1        1.611   4.333   7.382  0.00  0.00    +0.030 A 
ATOM     21  C   LIG    1        1.421   4.775   8.677  0.00  0.00    +0.020 A 
ATOM     22  C   LIG    1        2.246   4.330   9.694  0.00  0.00    +0.020 A 
ATOM     23  C   LIG    1        3.262   3.433   9.425  0.00  0.00    +0.030 A 
ATOM     24  O   LIG    1        4.745   1.368   5.429  0.00  0.00    -0.550 OA
ATOM     25  C   LIG    1        3.464   2.988   8.128  0.00  0.00    +0.090 A 
BRANCH  16  27
ATOM     26  C   LIG    1        6.722   2.274   8.255  0.00  0.00    +0.030 C 
ATOM     27  C   LIG    1        5.458   1.412   8.251  0.00  0.00    +0.310 C 
ENDBRANCH  16  27
ENDBRANCH  15  18
ENDBRANCH   1  15
TORSDOF 7
