REMARK  Name = ZINCrD000000Alay.0
REMARK                            x       y       z     vdW  Elec       q    Type
REMARK                         _______ _______ _______ _____ _____    ______ ____
ROOT
ATOM      1  N   LIG    1       -0.513   1.866   1.196  0.00  0.00    -0.520 NA
ATOM      2  C   LIG    1       -0.256   3.312   1.195  0.00  0.00    +0.180 C 
ATOM      3  C   LIG    1       -0.992   3.963   2.369  0.00  0.00    +0.050 C 
ATOM      4  C   LIG    1       -0.503   3.340   3.679  0.00  0.00    -0.020 C 
ATOM      5  C   LIG    1       -0.738   1.827   3.635  0.00  0.00    +0.060 C 
ATOM      6  C   LIG    1       -0.010   1.238   2.425  0.00  0.00    +0.180 C 
ENDROOT
BRANCH   4   7
ATOM      7  C   LIG    1       -1.266   3.934   4.835  0.00  0.00    +0.520 C 
ATOM      8  N   LIG    1       -1.208   5.260   5.071  0.00  0.00    -0.730 N 
ATOM      9  H   LIG    1       -0.675   5.832   4.496  0.00  0.00    +0.400 HD
ATOM     10  O   LIG    1       -1.932   3.219   5.554  0.00  0.00    -0.540 OA
BRANCH   8  11
ATOM     11  C   LIG    1       -1.949   5.838   6.195  0.00  0.00    +0.320 C 
BRANCH  11  12
ATOM     12  C   LIG    1       -1.717   7.326   6.237  0.00  0.00    -0.110 A 
ATOM     13  C   LIG    1       -0.666   7.841   6.973  0.00  0.00    +0.020 A 
ATOM     14  C   LIG    1       -0.450   9.206   7.008  0.00  0.00    +0.000 A 
ATOM     15  C   LIG    1       -1.292  10.057   6.316  0.00  0.00    +0.010 A 
ATOM     16  C   LIG    1       -2.346   9.542   5.585  0.00  0.00    +0.010 A 
ATOM     17  C   LIG    1       -2.558   8.177   5.545  0.00  0.00    +0.020 A 
ENDBRANCH  11  12
ENDBRANCH   8  11
ENDBRANCH   4   7
BRANCH   1  18
ATOM     18  C   LIG    1        0.064   1.228   0.005  0.00  0.00    +0.220 C 
BRANCH  18  20
ATOM     19  O   LIG    1       -1.551   2.529  -1.121  0.00  0.00    -0.490 OA
ATOM     20  C   LIG    1       -0.650   1.724  -1.226  0.00  0.00    +0.510 C 
ATOM     21  N   LIG    1       -0.288   1.272  -2.443  0.00  0.00    -0.680 N 
ATOM     22  H   LIG    1        0.480   0.688  -2.535  0.00  0.00    +0.410 HD
BRANCH  21  23
ATOM     23  C   LIG    1       -1.022   1.646  -3.575  0.00  0.00    +0.160 A 
ATOM     24  C   LIG    1       -2.392   1.847  -3.481  0.00  0.00    +0.020 A 
ATOM     25  C   LIG    1       -3.113   2.222  -4.598  0.00  0.00    +0.050 A 
ATOM     26  C   LIG    1       -2.473   2.387  -5.812  0.00  0.00    +0.010 A 
ATOM     27  C   LIG    1       -1.107   2.182  -5.911  0.00  0.00    -0.020 A 
ATOM     28 CL   LIG    1       -0.308   2.390  -7.438  0.00  0.00    -0.060 Cl
ATOM     29  C   LIG    1       -0.381   1.812  -4.795  0.00  0.00    +0.000 A 
ENDBRANCH  21  23
ENDBRANCH  18  20
ENDBRANCH   1  18
TORSDOF 6
