REMARK  Name = ZINCrD00000hQ5wI.0
REMARK                            x       y       z     vdW  Elec       q    Type
REMARK                         _______ _______ _______ _____ _____    ______ ____
ROOT
ATOM      1  C   LIG    1       -0.017   1.428   0.010  0.00  0.00    -0.100 C 
ATOM      2  C   LIG    1        1.153   2.123   0.003  0.00  0.00    +0.150 C 
ATOM      3  N   LIG    1        1.148   3.502   0.010  0.00  0.00    -0.660 N 
ATOM      4  H   LIG    1        1.947   3.983   0.277  0.00  0.00    +0.410 HD
ATOM      5  C   LIG    1        0.047   4.188  -0.348  0.00  0.00    +0.530 C 
ATOM      6  C   LIG    1       -1.202   3.461  -0.772  0.00  0.00    +0.110 C 
ATOM      7  O   LIG    1        0.061   5.400  -0.331  0.00  0.00    -0.500 OA
ATOM      8  C   LIG    1       -1.333   2.162   0.020  0.00  0.00    +0.140 C 
ENDROOT
BRANCH   8   9
ATOM      9  C   LIG    1       -1.718   2.483   1.441  0.00  0.00    -0.120 A 
ATOM     10  C   LIG    1       -0.889   3.264   2.223  0.00  0.00    +0.040 A 
ATOM     11  C   LIG    1       -1.245   3.564   3.525  0.00  0.00    +0.010 A 
ATOM     12  C   LIG    1       -2.425   3.072   4.050  0.00  0.00    +0.050 A 
ATOM     13  C   LIG    1       -3.254   2.285   3.272  0.00  0.00    -0.010 A 
ATOM     14  C   LIG    1       -2.901   1.990   1.966  0.00  0.00    +0.110 A 
ATOM     15  F   LIG    1       -3.710   1.220   1.205  0.00  0.00    -0.130 F 
ENDBRANCH   8   9
BRANCH   1  17
ATOM     16  N   LIG    1        0.018  -1.140  -0.004  0.00  0.00    -0.390 NA
ATOM     17  C   LIG    1        0.002  -0.004   0.002  0.00  0.00    +0.250 C 
ENDBRANCH   1  17
BRANCH   2  18
ATOM     18  S   LIG    1        2.686   1.254  -0.017  0.00  0.00    +0.050 S 
BRANCH  18  19
ATOM     19  C   LIG    1        3.838   2.650  -0.020  0.00  0.00    +0.070 C 
BRANCH  19  20
ATOM     20  C   LIG    1        5.254   2.133  -0.036  0.00  0.00    +0.540 C 
ATOM     21  N   LIG    1        6.287   2.998  -0.042  0.00  0.00    -0.720 N 
ATOM     22  H   LIG    1        6.120   3.954  -0.035  0.00  0.00    +0.400 HD
ATOM     23  O   LIG    1        5.463   0.939  -0.045  0.00  0.00    -0.510 OA
BRANCH  21  24
ATOM     24  C   LIG    1        7.663   2.496  -0.057  0.00  0.00    +0.230 C 
ATOM     25  C   LIG    1        8.113   2.195   1.374  0.00  0.00    +0.000 C 
ATOM     26  C   LIG    1        9.550   1.670   1.358  0.00  0.00    +0.020 C 
ATOM     27  C   LIG    1       10.472   2.726   0.745  0.00  0.00    +0.010 C 
ATOM     28  C   LIG    1       10.022   3.027  -0.686  0.00  0.00    +0.020 C 
ATOM     29  C   LIG    1        8.585   3.552  -0.670  0.00  0.00    +0.010 C 
ENDBRANCH  21  24
ENDBRANCH  19  20
ENDBRANCH  18  19
ENDBRANCH   2  18
TORSDOF 6
