REMARK  Name = ZINCrD000000CbE3.0
REMARK                            x       y       z     vdW  Elec       q    Type
REMARK                         _______ _______ _______ _____ _____    ______ ____
ROOT
ATOM      1  O   LIG    1        5.130  -2.580   3.029  0.00  0.00    -0.490 OA
ATOM      2  C   LIG    1        5.820  -1.588   2.895  0.00  0.00    +0.570 C 
ATOM      3  N   LIG    1        7.083  -1.576   3.367  0.00  0.00    -0.650 N 
ATOM      4  H   LIG    1        7.633  -0.784   3.260  0.00  0.00    +0.410 HD
ENDROOT
BRANCH   2   5
ATOM      5  C   LIG    1        5.275  -0.395   2.214  0.00  0.00    -0.100 A 
ATOM      6  C   LIG    1        6.065   0.745   2.058  0.00  0.00    +0.010 A 
ATOM      7  C   LIG    1        5.553   1.857   1.421  0.00  0.00    +0.050 A 
ATOM      8  C   LIG    1        4.261   1.846   0.931  0.00  0.00    +0.000 A 
ATOM      9  C   LIG    1        3.464   0.717   1.086  0.00  0.00    +0.160 A 
ATOM     10  C   LIG    1        3.968  -0.405   1.724  0.00  0.00    +0.080 A 
BRANCH   9  11
ATOM     11  N   LIG    1        2.154   0.712   0.592  0.00  0.00    -0.560 N 
ATOM     12  C   LIG    1        1.484   1.882   0.012  0.00  0.00    +0.260 C 
ATOM     13  C   LIG    1       -0.023   1.539   0.021  0.00  0.00    +0.060 C 
ATOM     14  C   LIG    1        0.005  -0.007  -0.007  0.00  0.00    +0.070 C 
ATOM     15  C   LIG    1        1.349  -0.364   0.589  0.00  0.00    +0.510 C 
ATOM     16  O   LIG    1        1.656  -1.462   1.003  0.00  0.00    -0.500 OA
ENDBRANCH   9  11
ENDBRANCH   2   5
BRANCH   3  17
ATOM     17  C   LIG    1        7.597  -2.701   4.010  0.00  0.00    +0.310 A 
ATOM     18  C   LIG    1        6.939  -3.871   4.234  0.00  0.00    -0.100 A 
ATOM     19  C   LIG    1        7.814  -4.733   4.901  0.00  0.00    +0.250 A 
ATOM     20  N   LIG    1        8.950  -4.111   5.083  0.00  0.00    -0.280 NA
ATOM     21  N   LIG    1        8.845  -2.828   4.532  0.00  0.00    -0.380 N 
BRANCH  21  22
ATOM     22  C   LIG    1        9.893  -1.804   4.520  0.00  0.00    +0.370 C 
BRANCH  22  23
ATOM     23  C   LIG    1        9.782  -0.957   5.761  0.00  0.00    -0.120 A 
ATOM     24  C   LIG    1        9.000   0.183   5.752  0.00  0.00    +0.010 A 
ATOM     25  C   LIG    1        8.894   0.958   6.892  0.00  0.00    +0.010 A 
ATOM     26  C   LIG    1        9.579   0.599   8.037  0.00  0.00    +0.020 A 
ATOM     27  C   LIG    1       10.366  -0.538   8.045  0.00  0.00    +0.010 A 
ATOM     28  C   LIG    1       10.467  -1.316   6.906  0.00  0.00    +0.040 A 
ENDBRANCH  22  23
ENDBRANCH  21  22
ENDBRANCH   3  17
TORSDOF 5
