REMARK  Name = ZINCpk000000oyfj.2
REMARK                            x       y       z     vdW  Elec       q    Type
REMARK                         _______ _______ _______ _____ _____    ______ ____
ROOT
ATOM      1  C   LIG    1        1.610  -2.603   1.413  0.00  0.00    +0.530 C 
ATOM      2  N   LIG    1        0.669  -2.736   2.369  0.00  0.00    -0.610 N 
ATOM      3  C   LIG    1       -0.730  -2.378   2.096  0.00  0.00    +0.260 C 
ATOM      4  C   LIG    1       -1.208  -1.391   3.160  0.00  0.00    +0.020 C 
ATOM      5  C   LIG    1       -0.971  -1.988   4.549  0.00  0.00    +0.000 C 
ATOM      6  C   LIG    1        0.526  -2.233   4.752  0.00  0.00    +0.020 C 
ATOM      7  C   LIG    1        1.022  -3.234   3.704  0.00  0.00    +0.280 C 
ATOM      8  O   LIG    1        2.776  -2.804   1.679  0.00  0.00    -0.510 OA
ENDROOT
BRANCH   1   9
ATOM      9  C   LIG    1        1.214  -2.207   0.015  0.00  0.00    +0.180 C 
BRANCH   9  10
ATOM     10  C   LIG    1        1.201  -0.704  -0.096  0.00  0.00    -0.090 A 
ATOM     11  C   LIG    1        2.392  -0.003  -0.136  0.00  0.00    +0.050 A 
ATOM     12  C   LIG    1        2.380   1.375  -0.239  0.00  0.00    +0.000 A 
ATOM     13  C   LIG    1        1.177   2.053  -0.302  0.00  0.00    +0.010 A 
ATOM     14  C   LIG    1       -0.015   1.353  -0.261  0.00  0.00    +0.000 A 
ATOM     15  C   LIG    1       -0.002  -0.026  -0.159  0.00  0.00    +0.010 A 
ENDBRANCH   9  10
BRANCH   9  16
ATOM     16  N   LIG    1        2.180  -2.760  -0.944  0.00  0.00    -0.520 NA
ATOM     17  C   LIG    1        1.940  -2.237  -2.295  0.00  0.00    +0.200 C 
BRANCH  16  19
ATOM     18  C   LIG    1        3.410  -4.770  -1.611  0.00  0.00    +0.040 C 
ATOM     19  C   LIG    1        2.149  -4.229  -0.934  0.00  0.00    +0.150 C 
ENDBRANCH  16  19
ENDBRANCH   9  16
ENDBRANCH   1   9
BRANCH   5  20
ATOM     20  C   LIG    1       -1.478  -1.015   5.615  0.00  0.00    +0.270 C 
BRANCH  20  21
ATOM     21  N   LIG    1       -2.931  -0.873   5.495  0.00  0.00    -1.120 NA
ATOM     22  H   LIG    1       -3.384  -1.180   4.694  0.00  0.00    +0.420 HD
BRANCH  21  23
ATOM     23  S   LIG    1       -3.801  -0.188   6.727  0.00  0.00    +2.620 S 
ATOM     24  O   LIG    1       -3.387  -0.900   7.886  0.00  0.00    -0.960 OA
ATOM     25  O   LIG    1       -5.147  -0.241   6.277  0.00  0.00    -0.960 OA
ATOM     26  C   LIG    1       -3.218   1.528   6.793  0.00  0.00    -0.280 C 
ENDBRANCH  21  23
ENDBRANCH  20  21
ENDBRANCH   5  20
TORSDOF 7
