REMARK  Name = ZINCqH0000004S7L.0
REMARK                            x       y       z     vdW  Elec       q    Type
REMARK                         _______ _______ _______ _____ _____    ______ ____
ROOT
ATOM      1  S   LIG    1        3.156   0.025   0.359  0.00  0.00    +0.090 S 
ENDROOT
BRANCH   1   3
ATOM      2  N   LIG    1        0.800   1.511   0.101  0.00  0.00    -0.450 N 
ATOM      3  C   LIG    1        1.427   0.299   0.158  0.00  0.00    +0.140 A 
ATOM      4  N   LIG    1        0.501  -0.625   0.034  0.00  0.00    -0.290 NA
ATOM      5  N   LIG    1       -0.654  -0.077  -0.095  0.00  0.00    -0.270 NA
ATOM      6  C   LIG    1       -0.537   1.229  -0.062  0.00  0.00    +0.230 A 
BRANCH   6   7
ATOM      7  C   LIG    1       -1.633   2.214  -0.183  0.00  0.00    -0.020 A 
ATOM      8  C   LIG    1       -2.867   1.827  -0.710  0.00  0.00    +0.070 A 
ATOM      9  C   LIG    1       -3.888   2.749  -0.815  0.00  0.00    +0.010 A 
ATOM     10  C   LIG    1       -3.687   4.057  -0.410  0.00  0.00    +0.030 A 
ATOM     11  C   LIG    1       -2.465   4.448   0.107  0.00  0.00    +0.010 A 
ATOM     12  C   LIG    1       -1.438   3.534   0.223  0.00  0.00    +0.010 A 
ENDBRANCH   6   7
BRANCH   2  14
ATOM     13  C   LIG    1        1.474   3.271   1.659  0.00  0.00    +0.050 C 
ATOM     14  C   LIG    1        1.421   2.834   0.194  0.00  0.00    +0.300 C 
ENDBRANCH   2  14
ENDBRANCH   1   3
BRANCH   1  15
ATOM     15  C   LIG    1        3.193  -1.784   0.338  0.00  0.00    +0.110 C 
BRANCH  15  16
ATOM     16  C   LIG    1        4.613  -2.260   0.499  0.00  0.00    +0.530 C 
ATOM     17  N   LIG    1        4.885  -3.580   0.513  0.00  0.00    -0.660 N 
ATOM     18  H   LIG    1        4.177  -4.222   0.349  0.00  0.00    +0.410 HD
ATOM     19  O   LIG    1        5.513  -1.455   0.618  0.00  0.00    -0.510 OA
BRANCH  17  20
ATOM     20  C   LIG    1        6.190  -4.024   0.763  0.00  0.00    +0.100 A 
ATOM     21  C   LIG    1        6.666  -5.168   0.136  0.00  0.00    +0.030 A 
ATOM     22  C   LIG    1        7.954  -5.602   0.379  0.00  0.00    -0.060 A 
ATOM     23  C   LIG    1        8.768  -4.903   1.258  0.00  0.00    +0.120 A 
ATOM     24  C   LIG    1        8.291  -3.764   1.889  0.00  0.00    +0.010 A 
ATOM     25  C   LIG    1        7.005  -3.325   1.643  0.00  0.00    +0.060 A 
BRANCH  23  26
ATOM     26  O   LIG    1       10.034  -5.335   1.501  0.00  0.00    -0.320 OA
ATOM     27  C   LIG    1       10.460  -6.514   0.817  0.00  0.00    +0.250 C 
ENDBRANCH  23  26
ENDBRANCH  17  20
ENDBRANCH  15  16
ENDBRANCH   1  15
TORSDOF 7
