REMARK  Name = ZINCkj000005l0AN.0
REMARK                            x       y       z     vdW  Elec       q    Type
REMARK                         _______ _______ _______ _____ _____    ______ ____
ROOT
ATOM      1  C   LIG    1        1.727   3.874  -6.626  0.00  0.00    +0.010 A 
ATOM      2  C   LIG    1        0.671   4.753  -6.856  0.00  0.00    +0.050 A 
ATOM      3  C   LIG    1       -0.389   4.806  -5.972  0.00  0.00    +0.040 A 
ATOM      4  C   LIG    1       -0.409   3.983  -4.862  0.00  0.00    +0.010 A 
ATOM      5  C   LIG    1        0.642   3.107  -4.622  0.00  0.00    +0.120 A 
ATOM      6  C   LIG    1        1.710   3.048  -5.505  0.00  0.00    +0.070 A 
ENDROOT
BRANCH   1  11
ATOM      7  C   LIG    1        4.785   4.706 -10.494  0.00  0.00    +0.380 C 
ATOM      8  N   LIG    1        4.212   4.169  -9.257  0.00  0.00    -0.380 N 
ATOM      9  C   LIG    1        4.747   3.220  -8.467  0.00  0.00    +0.480 A 
ATOM     10  N   LIG    1        3.936   3.017  -7.463  0.00  0.00    -0.540 NA
ATOM     11  C   LIG    1        2.867   3.817  -7.575  0.00  0.00    +0.260 A 
ATOM     12  N   LIG    1        2.993   4.539  -8.666  0.00  0.00    -0.300 NA
ENDBRANCH   1  11
BRANCH   5  13
ATOM     13  N   LIG    1        0.620   2.279  -3.494  0.00  0.00    -0.660 N 
ATOM     14  H   LIG    1       -0.224   1.943  -3.156  0.00  0.00    +0.420 HD
ATOM     15  C   LIG    1        1.773   1.949  -2.878  0.00  0.00    +0.500 C 
ATOM     16  O   LIG    1        2.820   2.434  -3.251  0.00  0.00    -0.510 OA
BRANCH  15  17
ATOM     17  C   LIG    1        1.760   0.976  -1.727  0.00  0.00    +0.140 C 
BRANCH  17  18
ATOM     18  C   LIG    1        3.162   0.886  -1.120  0.00  0.00    -0.040 C 
ATOM     19  C   LIG    1        3.286   1.044   0.397  0.00  0.00    +0.120 C 
ATOM     20  C   LIG    1        3.760   2.165  -0.531  0.00  0.00    +0.120 C 
BRANCH  18  21
ATOM     21  N   LIG    1        4.080  -0.049  -1.783  0.00  0.00    -0.600 N 
ATOM     22  H   LIG    1        3.667  -0.970  -1.801  0.00  0.00    +0.440 HD
ATOM     23  H   LIG    1        4.952  -0.081  -1.275  0.00  0.00    +0.440 HD
ATOM     24  H   LIG    1        4.252   0.261  -2.728  0.00  0.00    +0.440 HD
ENDBRANCH  18  21
ENDBRANCH  17  18
ENDBRANCH  15  17
ENDBRANCH   5  13
TORSDOF 5
