REMARK  Name = ZINCrD0000070RXf.0
REMARK                            x       y       z     vdW  Elec       q    Type
REMARK                         _______ _______ _______ _____ _____    ______ ____
ROOT
ATOM      1  C   LIG    1        0.362   6.740  -0.952  0.00  0.00    +0.150 A 
ATOM      2  N   LIG    1        0.158   7.967  -0.533  0.00  0.00    -0.290 NA
ATOM      3  N   LIG    1       -0.374   7.947   0.637  0.00  0.00    -0.260 NA
ATOM      4  C   LIG    1       -0.546   6.717   1.031  0.00  0.00    +0.210 A 
ATOM      5  N   LIG    1       -0.078   5.901   0.035  0.00  0.00    -0.420 N 
ENDROOT
BRANCH   5   6
ATOM      6  C   LIG    1       -0.059   4.499   0.027  0.00  0.00    +0.110 A 
ATOM      7  C   LIG    1        1.152   3.820   0.012  0.00  0.00    +0.050 A 
ATOM      8  C   LIG    1        1.168   2.439   0.004  0.00  0.00    +0.060 A 
ATOM      9  C   LIG    1       -0.021   1.732   0.012  0.00  0.00    -0.020 A 
ATOM     10  C   LIG    1       -1.230   2.406   0.021  0.00  0.00    +0.060 A 
ATOM     11 CL   LIG    1        0.002  -0.004   0.002  0.00  0.00    -0.050 Cl
ATOM     12  C   LIG    1       -1.251   3.787   0.034  0.00  0.00    +0.050 A 
ENDBRANCH   5   6
BRANCH   1  13
ATOM     13  S   LIG    1        1.067   6.263  -2.495  0.00  0.00    +0.090 S 
BRANCH  13  14
ATOM     14  C   LIG    1        1.378   7.894  -3.216  0.00  0.00    +0.110 C 
BRANCH  14  17
ATOM     15  N   LIG    1        2.319   8.818  -5.309  0.00  0.00    -0.720 N 
ATOM     16  H   LIG    1        2.149   9.705  -4.956  0.00  0.00    +0.410 HD
ATOM     17  C   LIG    1        1.999   7.731  -4.579  0.00  0.00    +0.530 C 
ATOM     18  O   LIG    1        2.211   6.621  -5.020  0.00  0.00    -0.520 OA
BRANCH  15  19
ATOM     19  C   LIG    1        2.922   8.659  -6.634  0.00  0.00    +0.310 C 
BRANCH  19  21
ATOM     20  C   LIG    1        4.384  10.334  -7.644  0.00  0.00    +0.050 C 
ATOM     21  C   LIG    1        3.181  10.017  -7.234  0.00  0.00    -0.060 C 
ENDBRANCH  19  21
ENDBRANCH  15  19
ENDBRANCH  14  17
ENDBRANCH  13  14
ENDBRANCH   1  13
BRANCH   4  22
ATOM     22  C   LIG    1       -1.146   6.274   2.340  0.00  0.00    +0.320 C 
BRANCH  22  23
ATOM     23  N   LIG    1       -0.083   6.143   3.346  0.00  0.00    -0.530 NA
ATOM     24  C   LIG    1        0.843   5.059   2.995  0.00  0.00    +0.150 C 
ATOM     25  C   LIG    1        2.013   5.046   3.982  0.00  0.00    +0.020 C 
ATOM     26  C   LIG    1        1.475   4.844   5.401  0.00  0.00    +0.010 C 
ATOM     27  C   LIG    1        0.476   5.959   5.724  0.00  0.00    +0.020 C 
ATOM     28  C   LIG    1       -0.649   5.945   4.687  0.00  0.00    +0.180 C 
ENDBRANCH  22  23
ENDBRANCH   4  22
TORSDOF 8
