REMARK  Name = ZINCpk00000xI1Rc.0
REMARK                            x       y       z     vdW  Elec       q    Type
REMARK                         _______ _______ _______ _____ _____    ______ ____
ROOT
ATOM      1  C   LIG    1        1.281  -0.641  -0.041  0.00  0.00    +0.240 C 
ENDROOT
BRANCH   1   2
ATOM      2  C   LIG    1        1.111  -1.952   0.681  0.00  0.00    +0.530 C 
ATOM      3  N   LIG    1        2.139  -2.477   1.377  0.00  0.00    -0.610 N 
ATOM      4  C   LIG    1        3.399  -1.735   1.541  0.00  0.00    +0.240 C 
ATOM      5  C   LIG    1        3.759  -1.724   3.035  0.00  0.00    +0.220 C 
ATOM      6  O   LIG    1        3.743  -3.065   3.531  0.00  0.00    -0.380 OA
ATOM      7  C   LIG    1        2.464  -3.701   3.459  0.00  0.00    +0.220 C 
ATOM      8  C   LIG    1        2.037  -3.810   1.991  0.00  0.00    +0.270 C 
ATOM      9  O   LIG    1        0.049  -2.537   0.636  0.00  0.00    -0.510 OA
ENDBRANCH   1   2
BRANCH   1  10
ATOM     10  C   LIG    1        2.154  -0.844  -1.252  0.00  0.00    -0.120 A 
ATOM     11  C   LIG    1        1.637  -1.444  -2.385  0.00  0.00    +0.040 A 
ATOM     12  C   LIG    1        2.437  -1.627  -3.497  0.00  0.00    +0.010 A 
ATOM     13  C   LIG    1        3.757  -1.217  -3.474  0.00  0.00    +0.020 A 
ATOM     14  C   LIG    1        4.276  -0.621  -2.340  0.00  0.00    +0.010 A 
ATOM     15  C   LIG    1        3.475  -0.435  -1.229  0.00  0.00    +0.030 A 
ENDBRANCH   1  10
BRANCH   1  16
ATOM     16  O   LIG    1       -0.019  -0.147  -0.459  0.00  0.00    -0.320 OA
BRANCH  16  17
ATOM     17  C   LIG    1       -0.169   1.190  -0.538  0.00  0.00    +0.550 C 
ATOM     18  O   LIG    1        0.761   1.923  -0.264  0.00  0.00    -0.510 OA
BRANCH  17  21
ATOM     19  C   LIG    1       -0.823   4.257  -0.816  0.00  0.00    +0.180 C 
ATOM     20  C   LIG    1       -1.757   3.106  -1.087  0.00  0.00    +0.170 A 
ATOM     21  C   LIG    1       -1.458   1.763  -0.961  0.00  0.00    -0.290 A 
ATOM     22  C   LIG    1       -2.619   1.042  -1.320  0.00  0.00    +0.310 A 
ATOM     23  N   LIG    1       -3.549   1.903  -1.629  0.00  0.00    -0.300 NA
ATOM     24  N   LIG    1       -3.033   3.197  -1.494  0.00  0.00    -0.360 N 
ATOM     25  C   LIG    1       -3.761   4.441  -1.754  0.00  0.00    +0.360 C 
ENDBRANCH  17  21
ENDBRANCH  16  17
ENDBRANCH   1  16
TORSDOF 5
