REMARK  Name = ZINCqH0000000tsg.0
REMARK                            x       y       z     vdW  Elec       q    Type
REMARK                         _______ _______ _______ _____ _____    ______ ____
ROOT
ATOM      1  N   LIG    1        0.002   0.000   0.030  0.00  0.00    -0.670 N 
ATOM      2  H   LIG    1        0.846  -0.472  -0.042  0.00  0.00    +0.410 HD
ATOM      3  C   LIG    1       -0.018   1.348   0.027  0.00  0.00    +0.600 C 
ATOM      4  O   LIG    1       -1.080   1.940   0.008  0.00  0.00    -0.530 OA
ENDROOT
BRANCH   1   8
ATOM      5  C   LIG    1       -3.563  -2.139   0.347  0.00  0.00    +0.120 A 
ATOM      6  C   LIG    1       -2.462  -2.713  -0.275  0.00  0.00    +0.010 A 
ATOM      7  C   LIG    1       -1.282  -2.005  -0.380  0.00  0.00    +0.000 A 
ATOM      8  C   LIG    1       -1.195  -0.718   0.136  0.00  0.00    +0.140 A 
ATOM      9  C   LIG    1       -2.295  -0.146   0.763  0.00  0.00    +0.040 A 
ATOM     10  C   LIG    1       -3.477  -0.852   0.864  0.00  0.00    +0.040 A 
BRANCH   5  13
ATOM     11  C   LIG    1       -7.229  -2.998   0.377  0.00  0.00    +0.110 C 
ATOM     12  C   LIG    1       -5.942  -2.214   0.368  0.00  0.00    +0.510 C 
ATOM     13  N   LIG    1       -4.761  -2.857   0.454  0.00  0.00    -0.670 N 
ATOM     14  H   LIG    1       -4.740  -3.817   0.590  0.00  0.00    +0.410 HD
ATOM     15  O   LIG    1       -5.970  -1.005   0.284  0.00  0.00    -0.520 OA
ENDBRANCH   5  13
ENDBRANCH   1   8
BRANCH   3  16
ATOM     16  C   LIG    1        1.247   2.104   0.042  0.00  0.00    -0.300 A 
ATOM     17  C   LIG    1        1.381   3.478   0.035  0.00  0.00    +0.330 A 
ATOM     18  N   LIG    1        2.695   3.754   0.057  0.00  0.00    -0.350 N 
ATOM     19  N   LIG    1        3.402   2.546   0.067  0.00  0.00    -0.270 NA
ATOM     20  C   LIG    1        2.550   1.558   0.058  0.00  0.00    +0.270 A 
BRANCH  18  21
ATOM     21  C   LIG    1        3.288   5.093   0.062  0.00  0.00    +0.390 C 
BRANCH  21  22
ATOM     22  C   LIG    1        4.223   5.224   1.237  0.00  0.00    -0.110 A 
ATOM     23  C   LIG    1        3.774   5.784   2.418  0.00  0.00    +0.040 A 
ATOM     24  C   LIG    1        4.630   5.899   3.498  0.00  0.00    +0.010 A 
ATOM     25  C   LIG    1        5.938   5.465   3.393  0.00  0.00    +0.050 A 
ATOM     26  C   LIG    1        6.390   4.910   2.210  0.00  0.00    +0.020 A 
ATOM     27  C   LIG    1        5.532   4.789   1.131  0.00  0.00    -0.000 A 
ATOM     28 CL   LIG    1        6.098   4.092  -0.355  0.00  0.00    -0.050 Cl
ENDBRANCH  21  22
ENDBRANCH  18  21
ENDBRANCH   3  16
TORSDOF 5
