REMARK  Name = ZINCpk00000y6tI0.0
REMARK                            x       y       z     vdW  Elec       q    Type
REMARK                         _______ _______ _______ _____ _____    ______ ____
ROOT
ATOM      1  N   LIG    1        8.500   2.143  -2.522  0.00  0.00    -0.630 N 
ATOM      2  C   LIG    1        8.068   0.944  -2.940  0.00  0.00    +0.700 C 
ATOM      3  N   LIG    1        7.397   0.253  -2.001  0.00  0.00    -0.740 N 
ATOM      4  H   LIG    1        6.966  -0.607  -2.124  0.00  0.00    +0.430 HD
ATOM      5  C   LIG    1        7.433   1.028  -0.763  0.00  0.00    +0.200 C 
ATOM      6  C   LIG    1        6.188   0.966   0.056  0.00  0.00    +0.300 C 
ATOM      7  N   LIG    1        5.350   2.147  -0.040  0.00  0.00    -0.570 N 
ATOM      8  C   LIG    1        5.929   3.477  -0.156  0.00  0.00    +0.290 C 
ATOM      9  C   LIG    1        7.014   3.519  -1.201  0.00  0.00    +0.020 C 
ATOM     10  O   LIG    1        8.264   0.521  -4.063  0.00  0.00    -0.570 OA
ATOM     11  C   LIG    1        8.001   2.376  -1.144  0.00  0.00    +0.240 C 
ENDROOT
BRANCH   7  12
ATOM     12  C   LIG    1        3.966   2.005  -0.026  0.00  0.00    +0.420 A 
ATOM     13  N   LIG    1        3.204   3.055  -0.223  0.00  0.00    -0.330 NA
ATOM     14  N   LIG    1        1.813   2.934  -0.213  0.00  0.00    -0.250 N 
ATOM     15  C   LIG    1        1.231   1.710   0.005  0.00  0.00    +0.140 A 
ATOM     16  C   LIG    1        2.049   0.584   0.215  0.00  0.00    +0.200 A 
ATOM     17  N   LIG    1       -0.079   1.895  -0.039  0.00  0.00    -0.240 NA
ATOM     18  N   LIG    1       -0.324   3.138  -0.266  0.00  0.00    -0.220 NA
ATOM     19  C   LIG    1        0.797   3.807  -0.379  0.00  0.00    +0.120 A 
ATOM     20  C   LIG    1        3.400   0.735   0.199  0.00  0.00    -0.010 A 
BRANCH  19  21
ATOM     21  C   LIG    1        0.928   5.284  -0.645  0.00  0.00    +0.530 C 
ATOM     22  F   LIG    1        1.635   5.483  -1.836  0.00  0.00    -0.180 F 
ATOM     23  F   LIG    1        1.617   5.889   0.412  0.00  0.00    -0.180 F 
ENDBRANCH  19  21
ENDBRANCH   7  12
BRANCH   1  25
ATOM     24  C   LIG    1       10.653   2.393  -3.656  0.00  0.00    +0.030 C 
ATOM     25  C   LIG    1        9.328   3.070  -3.299  0.00  0.00    +0.270 C 
ATOM     26  C   LIG    1        8.591   3.459  -4.582  0.00  0.00    +0.020 C 
ENDBRANCH   1  25
TORSDOF 3
