REMARK  Name = ZINCqH0000034V8N.0
REMARK                            x       y       z     vdW  Elec       q    Type
REMARK                         _______ _______ _______ _____ _____    ______ ____
ROOT
ATOM      1  N   LIG    1       -5.498   3.689   0.075  0.00  0.00    -0.710 N 
ATOM      2  H   LIG    1       -4.992   4.516   0.075  0.00  0.00    +0.400 HD
ATOM      3  C   LIG    1       -4.855   2.504   0.062  0.00  0.00    +0.590 C 
ATOM      4  O   LIG    1       -5.491   1.467   0.063  0.00  0.00    -0.490 OA
ENDROOT
BRANCH   3   5
ATOM      5  C   LIG    1       -3.387   2.466   0.047  0.00  0.00    +0.030 A 
ATOM      6  C   LIG    1       -2.629   1.335   0.034  0.00  0.00    -0.030 A 
ATOM      7  C   LIG    1       -1.232   1.761   0.017  0.00  0.00    -0.110 A 
ATOM      8  C   LIG    1       -0.013   1.076   0.008  0.00  0.00    +0.080 A 
ATOM      9  C   LIG    1        1.159   1.777   0.001  0.00  0.00    -0.010 A 
ATOM     10  C   LIG    1        1.151   3.166   0.008  0.00  0.00    +0.050 A 
ATOM     11  C   LIG    1       -0.037   3.862   0.023  0.00  0.00    -0.010 A 
ATOM     12  C   LIG    1       -1.245   3.170   0.030  0.00  0.00    +0.130 A 
ATOM     13 CL   LIG    1       -3.212  -0.300   0.030  0.00  0.00    -0.000 Cl
ATOM     14  N   LIG    1       -2.559   3.573   0.045  0.00  0.00    -0.580 N 
ATOM     15  H   LIG    1       -2.860   4.495   0.053  0.00  0.00    +0.420 HD
ENDBRANCH   3   5
BRANCH   1  16
ATOM     16  C   LIG    1       -6.963   3.727   0.090  0.00  0.00    +0.360 C 
BRANCH  16  17
ATOM     17  C   LIG    1       -7.425   5.024   0.703  0.00  0.00    -0.110 A 
ATOM     18  C   LIG    1       -6.604   6.134   0.671  0.00  0.00    +0.020 A 
ATOM     19  C   LIG    1       -7.030   7.326   1.233  0.00  0.00    +0.100 A 
ATOM     20  C   LIG    1       -8.277   7.404   1.828  0.00  0.00    +0.040 A 
ATOM     21  C   LIG    1       -9.098   6.293   1.860  0.00  0.00    +0.040 A 
ATOM     22  F   LIG    1       -6.227   8.412   1.202  0.00  0.00    -0.130 F 
ATOM     23  C   LIG    1       -8.675   5.103   1.293  0.00  0.00    +0.130 A 
ATOM     24  F   LIG    1       -9.481   4.019   1.319  0.00  0.00    -0.120 F 
ENDBRANCH  16  17
BRANCH  16  25
ATOM     25  C   LIG    1       -7.482   3.624  -1.321  0.00  0.00    +0.450 C 
ATOM     26  O   LIG    1       -6.709   3.529  -2.244  0.00  0.00    -0.490 OA
BRANCH  25  28
ATOM     27  C   LIG    1       -9.233   3.536  -2.935  0.00  0.00    +0.280 C 
ATOM     28  O   LIG    1       -8.805   3.638  -1.551  0.00  0.00    -0.350 OA
ENDBRANCH  25  28
ENDBRANCH  16  25
ENDBRANCH   1  16
TORSDOF 5
