REMARK  Name = ZINCrD00000F5LHS.0
REMARK                            x       y       z     vdW  Elec       q    Type
REMARK                         _______ _______ _______ _____ _____    ______ ____
ROOT
ATOM      1  C   LIG    1        1.164   1.921   1.013  0.00  0.00    +0.220 C 
ENDROOT
BRANCH   1   2
ATOM      2  N   LIG    1        2.277   0.997   0.758  0.00  0.00    -0.520 NA
ATOM      3  C   LIG    1        2.605   0.222   1.964  0.00  0.00    +0.190 C 
ATOM      4  C   LIG    1        3.713  -0.781   1.636  0.00  0.00    +0.190 C 
ATOM      5  N   LIG    1        4.893  -0.060   1.140  0.00  0.00    -0.530 NA
ATOM      6  C   LIG    1        4.565   0.715  -0.065  0.00  0.00    +0.180 C 
ATOM      7  C   LIG    1        3.458   1.718   0.262  0.00  0.00    +0.190 C 
BRANCH   5   8
ATOM      8  C   LIG    1        6.006  -0.984   0.885  0.00  0.00    +0.230 C 
BRANCH   8   9
ATOM      9  C   LIG    1        7.301  -0.213   0.847  0.00  0.00    -0.070 A 
ATOM     10  C   LIG    1        7.923   0.033  -0.362  0.00  0.00    +0.030 A 
ATOM     11  C   LIG    1        9.108   0.745  -0.398  0.00  0.00    +0.010 A 
ATOM     12  C   LIG    1        9.676   1.201   0.777  0.00  0.00    +0.020 A 
ATOM     13  C   LIG    1        9.057   0.951   1.987  0.00  0.00    +0.020 A 
ATOM     14  C   LIG    1        7.869   0.244   2.023  0.00  0.00    -0.010 A 
ATOM     15 CL   LIG    1        7.091  -0.071   3.543  0.00  0.00    -0.060 Cl
ENDBRANCH   8   9
ENDBRANCH   5   8
ENDBRANCH   1   2
BRANCH   1  17
ATOM     16  O   LIG    1       -0.063  -0.080   1.262  0.00  0.00    -0.480 OA
ATOM     17  C   LIG    1       -0.092   1.133   1.281  0.00  0.00    +0.530 C 
ATOM     18  N   LIG    1       -1.249   1.775   1.537  0.00  0.00    -0.590 N 
ATOM     19  H   LIG    1       -1.272   2.744   1.552  0.00  0.00    +0.380 HD
BRANCH  18  20
ATOM     20  N   LIG    1       -2.418   1.042   1.780  0.00  0.00    -0.180 NA
ATOM     21  C   LIG    1       -3.532   1.660   2.027  0.00  0.00    +0.210 C 
BRANCH  21  22
ATOM     22  C   LIG    1       -4.762   0.888   2.283  0.00  0.00    -0.030 A 
ATOM     23  C   LIG    1       -5.963   1.550   2.548  0.00  0.00    +0.050 A 
ATOM     24  C   LIG    1       -7.110   0.822   2.787  0.00  0.00    +0.020 A 
ATOM     25  C   LIG    1       -7.074  -0.561   2.764  0.00  0.00    +0.030 A 
ATOM     26  C   LIG    1       -5.888  -1.224   2.502  0.00  0.00    +0.040 A 
ATOM     27  C   LIG    1       -4.734  -0.509   2.256  0.00  0.00    -0.070 A 
ATOM     28 BR   LIG    1       -3.116  -1.417   1.890  0.00  0.00    +0.010 Br
ENDBRANCH  21  22
ENDBRANCH  18  20
ENDBRANCH   1  17
TORSDOF 6
