REMARK  Name = ZINCqH00000510gT.0
REMARK                            x       y       z     vdW  Elec       q    Type
REMARK                         _______ _______ _______ _____ _____    ______ ____
ROOT
ATOM      1  O   LIG    1        7.221   5.380   0.199  0.00  0.00    -0.300 OA
ENDROOT
BRANCH   1   2
ATOM      2  C   LIG    1        8.406   6.024   0.037  0.00  0.00    +0.150 A 
ATOM      3  C   LIG    1        9.584   5.431   0.470  0.00  0.00    -0.070 A 
ATOM      4  C   LIG    1       10.790   6.084   0.300  0.00  0.00    +0.080 A 
ATOM      5  C   LIG    1       10.826   7.332  -0.290  0.00  0.00    -0.020 A 
ATOM      6  C   LIG    1        9.650   7.932  -0.720  0.00  0.00    +0.140 A 
ATOM      7  C   LIG    1        8.440   7.277  -0.556  0.00  0.00    -0.020 A 
BRANCH   6   8
ATOM      8  O   LIG    1        9.686   9.161  -1.300  0.00  0.00    -0.230 OA
BRANCH   8   9
ATOM      9  C   LIG    1        9.163  10.204  -0.613  0.00  0.00    +0.500 A 
ATOM     10  N   LIG    1        8.741  10.014   0.627  0.00  0.00    -0.550 NA
ATOM     11  C   LIG    1        8.230  11.012   1.329  0.00  0.00    +0.360 A 
ATOM     12  C   LIG    1        8.128  12.265   0.745  0.00  0.00    -0.100 A 
ATOM     13  C   LIG    1        8.574  12.427  -0.557  0.00  0.00    +0.370 A 
ATOM     14  N   LIG    1        9.080  11.387  -1.200  0.00  0.00    -0.520 NA
ENDBRANCH   8   9
ENDBRANCH   6   8
ENDBRANCH   1   2
BRANCH   1  15
ATOM     15  C   LIG    1        7.262   4.092   0.817  0.00  0.00    +0.230 C 
BRANCH  15  16
ATOM     16  C   LIG    1        5.843   3.527   0.913  0.00  0.00    +0.230 C 
BRANCH  16  17
ATOM     17  O   LIG    1        5.331   3.300  -0.402  0.00  0.00    -0.310 OA
BRANCH  17  21
ATOM     18  C   LIG    1        1.510   1.770  -0.686  0.00  0.00    -0.130 A 
ATOM     19  C   LIG    1        2.064   2.019   0.557  0.00  0.00    +0.070 A 
ATOM     20  C   LIG    1        3.345   2.526   0.655  0.00  0.00    -0.080 A 
ATOM     21  C   LIG    1        4.073   2.795  -0.495  0.00  0.00    +0.140 A 
ATOM     22  C   LIG    1        3.514   2.550  -1.741  0.00  0.00    -0.020 A 
ATOM     23  C   LIG    1        2.234   2.037  -1.833  0.00  0.00    +0.070 A 
BRANCH  18  24
ATOM     24  C   LIG    1        0.115   1.212  -0.789  0.00  0.00    +0.260 C 
BRANCH  24  26
ATOM     25  N   LIG    1        0.220  -1.394  -0.807  0.00  0.00    -0.430 NA
ATOM     26  C   LIG    1        0.174  -0.259  -0.799  0.00  0.00    +0.210 C 
ENDBRANCH  24  26
ENDBRANCH  18  24
ENDBRANCH  17  21
ENDBRANCH  16  17
ENDBRANCH  15  16
ENDBRANCH   1  15
TORSDOF 9
