REMARK  Name = ZINCc70000001EB1.0
REMARK                            x       y       z     vdW  Elec       q    Type
REMARK                         _______ _______ _______ _____ _____    ______ ____
ROOT
ATOM      1  C   LIG    1        3.608   0.656  -0.028  0.00  0.00    +0.160 C 
ATOM      2  C   LIG    1        2.101   0.648  -0.015  0.00  0.00    +0.110 A 
ATOM      3  N   LIG    1        1.341  -0.417  -0.013  0.00  0.00    -0.290 NA
ATOM      4  N   LIG    1        0.002  -0.004   0.002  0.00  0.00    -0.380 N 
ATOM      5  C   LIG    1       -0.016   1.348   0.009  0.00  0.00    +0.340 A 
ATOM      6  C   LIG    1       -1.171  -0.882   0.009  0.00  0.00    +0.360 C 
ATOM      7  C   LIG    1        1.276   1.777  -0.001  0.00  0.00    -0.160 A 
ENDROOT
BRANCH   5   8
ATOM      8  N   LIG    1       -1.150   2.155   0.019  0.00  0.00    -1.040 N 
ATOM      9  H   LIG    1       -2.033   1.752   0.022  0.00  0.00    +0.430 HD
BRANCH   8  10
ATOM     10  S   LIG    1       -0.993   3.804   0.028  0.00  0.00    +2.610 S 
ATOM     11  O   LIG    1       -0.093   4.065   1.096  0.00  0.00    -0.930 OA
ATOM     12  O   LIG    1       -2.330   4.283   0.062  0.00  0.00    -0.940 OA
ATOM     13  C   LIG    1       -0.219   4.193  -1.566  0.00  0.00    -0.260 C 
ENDBRANCH   8  10
ENDBRANCH   5   8
TORSDOF 2
