REMARK  Name = ZINCrD000000D6B4.0
REMARK                            x       y       z     vdW  Elec       q    Type
REMARK                         _______ _______ _______ _____ _____    ______ ____
ROOT
ATOM      1  C   LIG    1        1.086   5.786   4.562  0.00  0.00    +0.320 C 
ENDROOT
BRANCH   1   5
ATOM      2  C   LIG    1        2.808   4.902   1.466  0.00  0.00    -0.590 A 
ATOM      3  C   LIG    1        3.856   4.872   2.309  0.00  0.00    +0.090 A 
ATOM      4  C   LIG    1        3.360   5.205   3.591  0.00  0.00    -0.040 A 
ATOM      5  C   LIG    1        2.038   5.411   3.455  0.00  0.00    +0.050 A 
ATOM      6  O   LIG    1        1.709   5.227   2.166  0.00  0.00    -0.130 OA
BRANCH   2   8
ATOM      7  O   LIG    1        4.203   4.816  -0.675  0.00  0.00    -0.930 OA
ATOM      8  S   LIG    1        2.867   4.566  -0.263  0.00  0.00    +2.740 S 
ATOM      9  O   LIG    1        1.742   5.218  -0.837  0.00  0.00    -0.930 OA
BRANCH   8  10
ATOM     10  N   LIG    1        2.614   2.941  -0.455  0.00  0.00    -1.010 NA
ATOM     11  C   LIG    1        1.307   2.292  -0.632  0.00  0.00    +0.270 C 
ATOM     12  C   LIG    1        1.565   0.780  -0.798  0.00  0.00    +0.030 C 
ATOM     13  C   LIG    1        3.042   0.729  -1.272  0.00  0.00    +0.040 C 
ATOM     14  C   LIG    1        3.663   1.905  -0.478  0.00  0.00    +0.270 C 
ENDBRANCH   8  10
ENDBRANCH   2   8
ENDBRANCH   1   5
BRANCH   1  15
ATOM     15  N   LIG    1        1.012   7.249   4.670  0.00  0.00    -0.520 NA
BRANCH  15  16
ATOM     16  C   LIG    1        0.249   7.651   5.859  0.00  0.00    +0.190 C 
BRANCH  16  17
ATOM     17  C   LIG    1        1.111   7.456   7.109  0.00  0.00    +0.160 C 
ATOM     18  C   LIG    1        0.380   8.019   8.343  0.00  0.00    +0.010 C 
ATOM     19  C   LIG    1        0.258   6.806   9.297  0.00  0.00    +0.010 C 
ATOM     20  C   LIG    1        1.372   5.866   8.772  0.00  0.00    +0.200 C 
ATOM     21  O   LIG    1        1.327   6.054   7.339  0.00  0.00    -0.380 OA
ENDBRANCH  16  17
ENDBRANCH  15  16
BRANCH  15  22
ATOM     22  C   LIG    1        0.439   7.838   3.453  0.00  0.00    +0.270 C 
BRANCH  22  23
ATOM     23  C   LIG    1        0.731   9.317   3.425  0.00  0.00    -0.170 A 
ATOM     24  C   LIG    1        1.858   9.870   2.974  0.00  0.00    +0.030 A 
ATOM     25  C   LIG    1        1.900  11.251   3.048  0.00  0.00    +0.010 A 
ATOM     26  C   LIG    1        0.807  11.820   3.558  0.00  0.00    -0.050 A 
ATOM     27  S   LIG    1       -0.365  10.577   3.975  0.00  0.00    +0.090 S 
ENDBRANCH  22  23
ENDBRANCH  15  22
ENDBRANCH   1  15
TORSDOF 8
