REMARK  Name = ZINCvU00000006pH.0
REMARK                            x       y       z     vdW  Elec       q    Type
REMARK                         _______ _______ _______ _____ _____    ______ ____
ROOT
ATOM      1  C   LIG    1        4.061   0.154  -1.561  0.00  0.00    +0.190 A 
ATOM      2  C   LIG    1        4.806  -0.267  -0.462  0.00  0.00    -0.090 A 
ATOM      3  C   LIG    1        5.984  -0.933  -0.639  0.00  0.00    +0.140 A 
ATOM      4  C   LIG    1        6.447  -1.195  -1.933  0.00  0.00    -0.190 A 
ATOM      5  C   LIG    1        5.699  -0.772  -3.048  0.00  0.00    +0.190 A 
ATOM      6  O   LIG    1        6.149  -1.027  -4.295  0.00  0.00    -0.270 OA
ATOM      7  C   LIG    1        7.303  -1.680  -4.503  0.00  0.00    +0.520 A 
ATOM      8  C   LIG    1        8.103  -2.132  -3.433  0.00  0.00    -0.220 A 
ATOM      9  O   LIG    1        7.670  -1.887  -5.646  0.00  0.00    -0.460 OA
ATOM     10  C   LIG    1        7.707  -1.908  -2.153  0.00  0.00    +0.040 A 
ATOM     11  C   LIG    1        8.543  -2.381  -0.991  0.00  0.00    +0.130 C 
ATOM     12  C   LIG    1        4.502  -0.102  -2.850  0.00  0.00    -0.020 A 
ENDROOT
BRANCH   1  13
ATOM     13  O   LIG    1        2.891   0.815  -1.369  0.00  0.00    -0.300 OA
BRANCH  13  14
ATOM     14  C   LIG    1        2.489   1.042  -0.016  0.00  0.00    +0.250 C 
BRANCH  14  18
ATOM     15  C   LIG    1       -1.234   3.144   0.030  0.00  0.00    -0.110 A 
ATOM     16  C   LIG    1       -1.217   1.748   0.017  0.00  0.00    +0.080 A 
ATOM     17  C   LIG    1       -0.013   1.076   0.008  0.00  0.00    +0.030 A 
ATOM     18  C   LIG    1        1.177   1.782   0.000  0.00  0.00    -0.070 A 
ATOM     19  C   LIG    1        1.167   3.166   0.007  0.00  0.00    +0.040 A 
ATOM     20  C   LIG    1       -0.030   3.850   0.022  0.00  0.00    +0.080 A 
BRANCH  15  21
ATOM     21  C   LIG    1       -2.521   3.870   0.045  0.00  0.00    +0.510 C 
ATOM     22  O   LIG    1       -2.532   5.085   0.052  0.00  0.00    -0.500 OA
BRANCH  21  24
ATOM     23  C   LIG    1       -4.906   3.964   0.068  0.00  0.00    +0.290 C 
ATOM     24  O   LIG    1       -3.681   3.185   0.053  0.00  0.00    -0.350 OA
ENDBRANCH  21  24
ENDBRANCH  15  21
ENDBRANCH  14  18
ENDBRANCH  13  14
ENDBRANCH   1  13
BRANCH   8  25
ATOM     25  C   LIG    1        9.392  -2.862  -3.709  0.00  0.00    +0.160 C 
BRANCH  25  26
ATOM     26  C   LIG    1        9.104  -4.326  -3.923  0.00  0.00    -0.080 A 
ATOM     27  C   LIG    1        9.116  -5.197  -2.849  0.00  0.00    +0.000 A 
ATOM     28  C   LIG    1        8.848  -6.538  -3.044  0.00  0.00    +0.000 A 
ATOM     29  C   LIG    1        8.577  -7.012  -4.314  0.00  0.00    +0.000 A 
ATOM     30  C   LIG    1        8.570  -6.142  -5.389  0.00  0.00    +0.000 A 
ATOM     31  C   LIG    1        8.834  -4.799  -5.193  0.00  0.00    +0.020 A 
ENDBRANCH  25  26
ENDBRANCH   8  25
TORSDOF 7
