REMARK  Name = ZINCrg000000qKSo.0
REMARK                            x       y       z     vdW  Elec       q    Type
REMARK                         _______ _______ _______ _____ _____    ______ ____
ROOT
ATOM      1  C   LIG    1       -0.663   4.317  -4.290  0.00  0.00    +0.070 C 
ENDROOT
BRANCH   1   5
ATOM      2  C   LIG    1       -2.191   1.327  -1.646  0.00  0.00    +0.220 A 
ATOM      3  C   LIG    1       -2.929   1.717  -2.755  0.00  0.00    -0.080 A 
ATOM      4  C   LIG    1       -2.432   2.684  -3.608  0.00  0.00    +0.120 A 
ATOM      5  C   LIG    1       -1.202   3.262  -3.357  0.00  0.00    -0.140 A 
ATOM      6  C   LIG    1       -0.468   2.880  -2.250  0.00  0.00    +0.170 A 
ATOM      7  C   LIG    1       -0.957   1.909  -1.397  0.00  0.00    -0.710 A 
BRANCH   7   8
ATOM      8  S   LIG    1       -0.017   1.417   0.010  0.00  0.00    +2.710 S 
ATOM      9  O   LIG    1        1.162   2.210   0.003  0.00  0.00    -0.960 OA
ATOM     10  O   LIG    1        0.002  -0.004   0.002  0.00  0.00    -0.950 OA
BRANCH   8  11
ATOM     11  N   LIG    1       -0.875   1.865   1.354  0.00  0.00    -1.240 NA
ATOM     12  H   LIG    1       -1.516   1.253   1.747  0.00  0.00    +0.420 HD
ATOM     13  H   LIG    1       -0.736   2.741   1.747  0.00  0.00    +0.420 HD
ENDBRANCH   8  11
ENDBRANCH   7   8
BRANCH   2  15
ATOM     14  C   LIG    1       -3.954  -0.180  -1.124  0.00  0.00    +0.250 C 
ATOM     15  O   LIG    1       -2.677   0.376  -0.806  0.00  0.00    -0.310 OA
ENDBRANCH   2  15
ENDBRANCH   1   5
BRANCH   1  16
ATOM     16  C   LIG    1       -1.122   5.698  -3.817  0.00  0.00    +0.280 C 
BRANCH  16  17
ATOM     17  N   LIG    1       -0.598   6.723  -4.723  0.00  0.00    -0.750 N 
ATOM     18  H   LIG    1       -0.051   6.465  -5.482  0.00  0.00    +0.400 HD
ATOM     19  C   LIG    1       -0.876   8.023  -4.503  0.00  0.00    +0.720 C 
ATOM     20  N   LIG    1       -0.394   8.966  -5.337  0.00  0.00    -0.640 N 
ATOM     21  C   LIG    1        0.444   8.716  -6.520  0.00  0.00    +0.240 C 
ATOM     22  C   LIG    1        0.774  10.089  -7.147  0.00  0.00    +0.050 C 
ATOM     23  C   LIG    1        0.556  11.065  -5.971  0.00  0.00    -0.110 C 
ATOM     24  C   LIG    1        1.796  11.127  -5.090  0.00  0.00    +0.040 C 
ATOM     25  C   LIG    1        1.560  12.137  -3.961  0.00  0.00    -0.010 C 
ATOM     26  C   LIG    1        1.179  13.488  -4.572  0.00  0.00    +0.210 C 
ATOM     27  O   LIG    1        0.008  13.337  -5.377  0.00  0.00    -0.380 OA
ATOM     28  C   LIG    1        0.174  12.445  -6.484  0.00  0.00    +0.240 C 
ATOM     29  C   LIG    1       -0.625  10.418  -5.217  0.00  0.00    +0.290 C 
ATOM     30  O   LIG    1       -1.562   8.345  -3.552  0.00  0.00    -0.590 OA
ENDBRANCH  16  17
ENDBRANCH   1  16
TORSDOF 6
