REMARK  Name = ZINCah0000001Cgz.0
REMARK                            x       y       z     vdW  Elec       q    Type
REMARK                         _______ _______ _______ _____ _____    ______ ____
ROOT
ATOM      1  C   LIG    1       -2.313   2.243   2.633  0.00  0.00    -0.050 A 
ATOM      2  C   LIG    1       -1.119   2.262   3.325  0.00  0.00    +0.060 A 
ATOM      3  C   LIG    1       -0.126   1.836   2.438  0.00  0.00    -0.060 A 
ATOM      4  C   LIG    1       -0.718   1.572   1.248  0.00  0.00    +0.070 A 
ATOM      5  C   LIG    1       -0.013   1.086   0.008  0.00  0.00    +0.150 C 
ATOM      6  N   LIG    1       -2.041   1.820   1.351  0.00  0.00    -0.520 N 
ATOM      7  H   LIG    1       -2.692   1.715   0.640  0.00  0.00    +0.420 HD
ENDROOT
BRANCH   1   8
ATOM      8  C   LIG    1       -3.627   2.612   3.163  0.00  0.00    +0.540 C 
ATOM      9  O   LIG    1       -3.737   2.978   4.318  0.00  0.00    -0.500 OA
BRANCH   8  11
ATOM     10  C   LIG    1       -5.987   2.927   2.962  0.00  0.00    +0.280 C 
ATOM     11  O   LIG    1       -4.717   2.546   2.370  0.00  0.00    -0.370 OA
ENDBRANCH   8  11
ENDBRANCH   1   8
TORSDOF 2
