REMARK  Name = ZINCrD0000075939.0
REMARK                            x       y       z     vdW  Elec       q    Type
REMARK                         _______ _______ _______ _____ _____    ______ ____
ROOT
ATOM      1  C   LIG    1        0.023  -4.356  -3.716  0.00  0.00    +0.280 C 
ENDROOT
BRANCH   1   2
ATOM      2  N   LIG    1        0.016  -3.164  -2.864  0.00  0.00    -0.730 N 
ATOM      3  H   LIG    1        0.001  -2.281  -3.265  0.00  0.00    +0.400 HD
ATOM      4  C   LIG    1        0.030  -3.295  -1.522  0.00  0.00    +0.590 C 
ATOM      5  O   LIG    1        0.049  -4.401  -1.019  0.00  0.00    -0.520 OA
BRANCH   4   6
ATOM      6  C   LIG    1        0.023  -2.095  -0.665  0.00  0.00    -0.250 A 
ATOM      7  C   LIG    1       -0.003  -0.783  -1.092  0.00  0.00    +0.310 A 
ATOM      8  N   LIG    1        0.002  -0.004   0.002  0.00  0.00    -0.340 N 
ATOM      9  N   LIG    1        0.024  -0.828   1.133  0.00  0.00    -0.230 NA
ATOM     10  C   LIG    1       -0.018   1.461   0.010  0.00  0.00    +0.380 C 
ATOM     11  C   LIG    1        0.036  -2.074   0.748  0.00  0.00    +0.040 A 
BRANCH  11  12
ATOM     12  C   LIG    1        0.061  -3.280   1.651  0.00  0.00    +0.560 C 
ATOM     13  F   LIG    1        1.264  -3.971   1.474  0.00  0.00    -0.160 F 
ATOM     14  F   LIG    1       -1.011  -4.121   1.336  0.00  0.00    -0.150 F 
ATOM     15  F   LIG    1       -0.047  -2.867   2.984  0.00  0.00    -0.170 F 
ENDBRANCH  11  12
ENDBRANCH   4   6
ENDBRANCH   1   2
BRANCH   1  16
ATOM     16  C   LIG    1        0.004  -3.932  -5.186  0.00  0.00    +0.130 C 
BRANCH  16  19
ATOM     17  C   LIG    1        2.536  -5.394  -6.292  0.00  0.00    +0.190 C 
ATOM     18  C   LIG    1        1.102  -5.786  -6.537  0.00  0.00    -0.030 A 
ATOM     19  C   LIG    1        0.011  -5.158  -6.062  0.00  0.00    -0.010 A 
ATOM     20  N   LIG    1       -1.070  -5.814  -6.512  0.00  0.00    -0.460 NA
ATOM     21  C   LIG    1       -0.671  -6.827  -7.243  0.00  0.00    +0.230 A 
ATOM     22  O   LIG    1        0.673  -6.832  -7.271  0.00  0.00    -0.190 OA
BRANCH  21  23
ATOM     23  C   LIG    1       -1.552  -7.801  -7.923  0.00  0.00    -0.020 A 
ATOM     24  C   LIG    1       -2.938  -7.690  -7.810  0.00  0.00    +0.070 A 
ATOM     25  C   LIG    1       -3.755  -8.599  -8.450  0.00  0.00    +0.010 A 
ATOM     26  C   LIG    1       -3.201  -9.626  -9.194  0.00  0.00    +0.030 A 
ATOM     27  C   LIG    1       -1.827  -9.745  -9.306  0.00  0.00    +0.010 A 
ATOM     28  C   LIG    1       -1.000  -8.839  -8.675  0.00  0.00    +0.040 A 
ENDBRANCH  21  23
ENDBRANCH  16  19
ENDBRANCH   1  16
TORSDOF 6
