REMARK  Name = ZINCrg00000B5hEi.0
REMARK                            x       y       z     vdW  Elec       q    Type
REMARK                         _______ _______ _______ _____ _____    ______ ____
ROOT
ATOM      1  N   LIG    1       -2.513  -0.263  -0.165  0.00  0.00    -0.320 N 
ATOM      2  N   LIG    1       -3.387  -1.313   0.162  0.00  0.00    -0.300 NA
ATOM      3  C   LIG    1       -2.660  -2.394   0.280  0.00  0.00    +0.290 A 
ATOM      4  N   LIG    1       -1.385  -2.097   0.044  0.00  0.00    -0.500 NA
ATOM      5  C   LIG    1       -1.267  -0.812  -0.223  0.00  0.00    +0.390 A 
ENDROOT
BRANCH   5   6
ATOM      6  C   LIG    1       -0.012  -0.097  -0.534  0.00  0.00    -0.100 A 
ATOM      7  C   LIG    1       -0.001   0.943  -1.463  0.00  0.00    +0.390 A 
ATOM      8  N   LIG    1        1.113   1.587  -1.747  0.00  0.00    -0.460 NA
ATOM      9  C   LIG    1        2.263   1.280  -1.169  0.00  0.00    +0.320 A 
ATOM     10  O   LIG    1        3.394   1.964  -1.484  0.00  0.00    -0.280 OA
ATOM     11  C   LIG    1        4.351   2.142  -0.437  0.00  0.00    +0.320 C 
ATOM     12  C   LIG    1        4.574   0.832   0.275  0.00  0.00    +0.490 C 
ATOM     13  N   LIG    1        3.561  -0.057   0.372  0.00  0.00    -0.660 N 
ATOM     14  H   LIG    1        3.682  -0.894   0.848  0.00  0.00    +0.420 HD
ATOM     15  O   LIG    1        5.657   0.577   0.758  0.00  0.00    -0.500 OA
ATOM     16  C   LIG    1        2.332   0.250  -0.227  0.00  0.00    +0.040 A 
ATOM     17  C   LIG    1        1.187  -0.453   0.101  0.00  0.00    +0.140 A 
ENDBRANCH   5   6
BRANCH   1  23
ATOM     18  C   LIG    1       -5.356   0.818  -0.347  0.00  0.00    +0.380 C 
ATOM     19  N   LIG    1       -4.103   1.567  -0.470  0.00  0.00    -0.360 N 
ATOM     20  N   LIG    1       -3.964   2.946  -0.696  0.00  0.00    -0.290 NA
ATOM     21  C   LIG    1       -2.683   3.197  -0.744  0.00  0.00    +0.460 A 
ATOM     22  N   LIG    1       -2.009   2.063  -0.557  0.00  0.00    -0.540 NA
ATOM     23  C   LIG    1       -2.852   1.069  -0.387  0.00  0.00    +0.510 A 
ENDBRANCH   1  23
BRANCH   3  24
ATOM     24  C   LIG    1       -3.187  -3.763   0.624  0.00  0.00    +0.110 C 
ATOM     25  C   LIG    1       -4.651  -3.870   1.055  0.00  0.00    +0.120 C 
ATOM     26  C   LIG    1       -4.218  -4.382  -0.321  0.00  0.00    -0.210 C 
ATOM     27  C   LIG    1       -4.379  -5.637  -1.181  0.00  0.00    +0.080 C 
ATOM     28  C   LIG    1       -4.656  -4.257  -1.782  0.00  0.00    +0.060 C 
ENDBRANCH   3  24
TORSDOF 3
