REMARK  Name = ZINCvU00000005PG.0
REMARK                            x       y       z     vdW  Elec       q    Type
REMARK                         _______ _______ _______ _____ _____    ______ ____
ROOT
ATOM      1  C   LIG    1       -0.358   0.023  -0.084  0.00  0.00    +0.170 C 
ATOM      2  C   LIG    1       -0.176   1.518  -0.028  0.00  0.00    +0.100 A 
ATOM      3  N   LIG    1       -1.138   2.405   0.003  0.00  0.00    -0.270 NA
ATOM      4  N   LIG    1       -0.562   3.680   0.056  0.00  0.00    -0.360 N 
ATOM      5  C   LIG    1        0.790   3.526   0.047  0.00  0.00    +0.320 A 
ATOM      6  C   LIG    1        1.048   2.191  -0.004  0.00  0.00    -0.080 A 
ENDROOT
BRANCH   4   7
ATOM      7  C   LIG    1       -1.255   4.898   0.103  0.00  0.00    +0.200 A 
ATOM      8  C   LIG    1       -0.945   5.910  -0.794  0.00  0.00    +0.000 A 
ATOM      9  C   LIG    1       -1.629   7.109  -0.745  0.00  0.00    +0.090 A 
ATOM     10  C   LIG    1       -2.622   7.301   0.198  0.00  0.00    +0.030 A 
ATOM     11  C   LIG    1       -2.933   6.295   1.094  0.00  0.00    +0.090 A 
ATOM     12  C   LIG    1       -2.256   5.092   1.046  0.00  0.00    -0.180 A 
BRANCH  12  13
ATOM     13  C   LIG    1       -2.600   3.993   2.018  0.00  0.00    +0.510 C 
ATOM     14  F   LIG    1       -1.473   3.679   2.784  0.00  0.00    -0.180 F 
ATOM     15  F   LIG    1       -3.016   2.859   1.312  0.00  0.00    -0.150 F 
ATOM     16  F   LIG    1       -3.632   4.422   2.860  0.00  0.00    -0.180 F 
ENDBRANCH  12  13
ENDBRANCH   4   7
BRANCH   5  17
ATOM     17  N   LIG    1        1.737   4.549   0.084  0.00  0.00    -0.650 N 
ATOM     18  H   LIG    1        1.454   5.475   0.027  0.00  0.00    +0.410 HD
ATOM     19  C   LIG    1        3.046   4.251   0.201  0.00  0.00    +0.520 C 
ATOM     20  O   LIG    1        3.401   3.094   0.273  0.00  0.00    -0.490 OA
BRANCH  19  21
ATOM     21  C   LIG    1        4.070   5.357   0.241  0.00  0.00    +0.090 C 
ATOM     22  C   LIG    1        3.790   6.267   1.439  0.00  0.00    +0.060 C 
BRANCH  21  23
ATOM     23  C   LIG    1        5.448   4.761   0.375  0.00  0.00    -0.170 A 
ATOM     24  C   LIG    1        5.888   3.985   1.377  0.00  0.00    +0.250 A 
ATOM     25  N   LIG    1        7.192   3.632   1.156  0.00  0.00    -0.480 N 
ATOM     26  C   LIG    1        7.633   4.187  -0.024  0.00  0.00    +0.100 A 
ATOM     27  C   LIG    1        8.845   4.149  -0.706  0.00  0.00    -0.010 A 
ATOM     28  C   LIG    1        8.980   4.825  -1.899  0.00  0.00    +0.020 A 
ATOM     29  C   LIG    1        7.918   5.545  -2.429  0.00  0.00    -0.020 A 
ATOM     30  C   LIG    1        6.719   5.595  -1.776  0.00  0.00    +0.040 A 
ATOM     31  C   LIG    1        7.998   2.790   2.043  0.00  0.00    +0.310 C 
ATOM     32  C   LIG    1        6.558   4.913  -0.569  0.00  0.00    -0.090 A 
ENDBRANCH  21  23
ENDBRANCH  19  21
ENDBRANCH   5  17
TORSDOF 5
