REMARK  Name = ZINCrH00000tj15g.0
REMARK                            x       y       z     vdW  Elec       q    Type
REMARK                         _______ _______ _______ _____ _____    ______ ____
ROOT
ATOM      1  N   LIG    1        2.417   6.394  -0.237  0.00  0.00    -0.300 N 
ATOM      2  N   LIG    1        1.251   5.620  -0.283  0.00  0.00    -0.230 NA
ATOM      3  C   LIG    1        1.550   4.385   0.076  0.00  0.00    +0.150 A 
ATOM      4  C   LIG    1        2.925   4.324   0.357  0.00  0.00    +0.010 A 
ATOM      5  C   LIG    1        3.448   5.582   0.157  0.00  0.00    +0.030 A 
ENDROOT
BRANCH   1  10
ATOM      6  C   LIG    1        2.804  11.915  -1.484  0.00  0.00    +0.100 C 
ATOM      7  C   LIG    1        2.701  10.449  -1.153  0.00  0.00    -0.060 A 
ATOM      8  C   LIG    1        3.541   9.541  -1.771  0.00  0.00    +0.040 A 
ATOM      9  C   LIG    1        3.450   8.197  -1.470  0.00  0.00    +0.020 A 
ATOM     10  C   LIG    1        2.512   7.756  -0.545  0.00  0.00    +0.120 A 
ATOM     11  C   LIG    1        1.666   8.670   0.071  0.00  0.00    +0.050 A 
ATOM     12  C   LIG    1        1.767  10.014  -0.231  0.00  0.00    +0.040 A 
ENDBRANCH   1  10
BRANCH   3  13
ATOM     13  C   LIG    1        0.599   3.256   0.163  0.00  0.00    +0.040 A 
ATOM     14  C   LIG    1       -0.732   3.312  -0.108  0.00  0.00    +0.000 A 
ATOM     15  C   LIG    1       -1.243   2.015   0.100  0.00  0.00    -0.060 A 
ATOM     16  C   LIG    1       -0.212   1.242   0.490  0.00  0.00    +0.190 A 
ATOM     17  O   LIG    1        0.900   1.995   0.524  0.00  0.00    -0.160 OA
ENDBRANCH   3  13
BRANCH   5  18
ATOM     18  C   LIG    1        4.853   5.981   0.334  0.00  0.00    +0.590 C 
ATOM     19  N   LIG    1        5.198   7.282   0.264  0.00  0.00    -0.730 N 
ATOM     20  H   LIG    1        4.512   7.962   0.179  0.00  0.00    +0.400 HD
ATOM     21  O   LIG    1        5.703   5.137   0.543  0.00  0.00    -0.510 OA
BRANCH  19  22
ATOM     22  C   LIG    1        6.610   7.669   0.317  0.00  0.00    +0.340 C 
BRANCH  22  23
ATOM     23  C   LIG    1        6.724   9.169   0.221  0.00  0.00    -0.160 A 
ATOM     24  C   LIG    1        6.849   9.786  -1.014  0.00  0.00    +0.090 A 
ATOM     25  C   LIG    1        6.945  11.168  -1.055  0.00  0.00    -0.030 A 
ATOM     26  C   LIG    1        6.925  11.880   0.129  0.00  0.00    +0.270 A 
ATOM     27  N   LIG    1        6.809  11.259   1.287  0.00  0.00    -0.480 NA
ATOM     28  C   LIG    1        6.710   9.947   1.363  0.00  0.00    +0.280 A 
ENDBRANCH  22  23
ENDBRANCH  19  22
ENDBRANCH   5  18
TORSDOF 5
