REMARK  Name = ZINCvU0000000Ez0.0
REMARK                            x       y       z     vdW  Elec       q    Type
REMARK                         _______ _______ _______ _____ _____    ______ ____
ROOT
ATOM      1  N   LIG    1       -0.095   1.793  -4.816  0.00  0.00    -0.680 N 
ATOM      2  H   LIG    1        0.716   1.275  -4.941  0.00  0.00    +0.410 HD
ATOM      3  C   LIG    1       -0.608   1.951  -3.579  0.00  0.00    +0.510 C 
ATOM      4  O   LIG    1       -1.573   2.666  -3.411  0.00  0.00    -0.490 OA
ENDROOT
BRANCH   1   9
ATOM      5  C   LIG    1       -1.992   4.179  -6.886  0.00  0.00    -0.010 A 
ATOM      6  C   LIG    1       -1.990   3.516  -8.112  0.00  0.00    +0.010 A 
ATOM      7  C   LIG    1       -1.362   2.292  -8.234  0.00  0.00    +0.030 A 
ATOM      8  C   LIG    1       -0.730   1.723  -7.145  0.00  0.00    -0.010 A 
ATOM      9  C   LIG    1       -0.731   2.375  -5.917  0.00  0.00    +0.140 A 
ATOM     10  C   LIG    1       -1.359   3.604  -5.786  0.00  0.00    +0.060 A 
BRANCH   5  14
ATOM     11  C   LIG    1       -3.461   8.216  -4.435  0.00  0.00    +0.180 C 
ATOM     12  C   LIG    1       -3.317   7.305  -5.627  0.00  0.00    +0.060 A 
ATOM     13  N   LIG    1       -2.701   6.174  -5.615  0.00  0.00    -0.460 NA
ATOM     14  C   LIG    1       -2.665   5.494  -6.752  0.00  0.00    +0.110 A 
ATOM     15  C   LIG    1       -3.290   6.106  -7.779  0.00  0.00    -0.080 A 
ATOM     16  S   LIG    1       -3.946   7.628  -7.182  0.00  0.00    +0.130 S 
ENDBRANCH   5  14
ENDBRANCH   1   9
BRANCH   3  17
ATOM     17  C   LIG    1        0.017   1.240  -2.407  0.00  0.00    +0.220 C 
BRANCH  17  18
ATOM     18  N   LIG    1       -0.721   1.574  -1.182  0.00  0.00    -0.520 NA
ATOM     19  C   LIG    1       -0.007   1.095   0.009  0.00  0.00    +0.180 C 
ATOM     20  C   LIG    1       -0.727   1.585   1.268  0.00  0.00    +0.060 C 
ATOM     21  C   LIG    1       -2.164   1.059   1.266  0.00  0.00    +0.080 C 
ATOM     22  C   LIG    1       -2.870   1.532  -0.008  0.00  0.00    +0.060 C 
ATOM     23  C   LIG    1       -2.089   1.043  -1.230  0.00  0.00    +0.180 C 
BRANCH  21  24
ATOM     24  C   LIG    1       -2.896   1.588   2.473  0.00  0.00    +0.100 A 
ATOM     25  N   LIG    1       -3.066   2.830   2.724  0.00  0.00    -0.460 NA
ATOM     26  C   LIG    1       -3.745   3.159   3.840  0.00  0.00    +0.080 A 
ATOM     27  C   LIG    1       -4.077   4.431   4.349  0.00  0.00    +0.080 A 
ATOM     28  C   LIG    1       -4.773   4.546   5.514  0.00  0.00    +0.030 A 
ATOM     29  C   LIG    1       -5.169   3.419   6.220  0.00  0.00    +0.040 A 
ATOM     30  C   LIG    1       -4.859   2.164   5.745  0.00  0.00    +0.060 A 
ATOM     31  C   LIG    1       -4.147   2.026   4.556  0.00  0.00    -0.180 A 
ATOM     32  S   LIG    1       -3.594   0.603   3.679  0.00  0.00    +0.090 S 
ENDBRANCH  21  24
ENDBRANCH  17  18
ENDBRANCH   3  17
TORSDOF 5
