REMARK  Name = ZINCrD000000Atbk.0
REMARK                            x       y       z     vdW  Elec       q    Type
REMARK                         _______ _______ _______ _____ _____    ______ ____
ROOT
ATOM      1  C   LIG    1        0.245   1.056   2.739  0.00  0.00    +0.190 A 
ATOM      2  N   LIG    1        1.212   0.200   2.506  0.00  0.00    -0.460 NA
ATOM      3  C   LIG    1        1.700  -0.260   3.675  0.00  0.00    +0.070 A 
ATOM      4  C   LIG    1        0.986   0.341   4.693  0.00  0.00    +0.040 A 
ATOM      5  N   LIG    1        0.066   1.174   4.084  0.00  0.00    -0.540 N 
ATOM      6  H   LIG    1       -0.586   1.736   4.531  0.00  0.00    +0.430 HD
ENDROOT
BRANCH   4   7
ATOM      7  C   LIG    1        1.169   0.135   6.143  0.00  0.00    -0.020 A 
ATOM      8  C   LIG    1        2.450   0.168   6.700  0.00  0.00    +0.050 A 
ATOM      9  C   LIG    1        2.613  -0.020   8.057  0.00  0.00    +0.020 A 
ATOM     10  C   LIG    1        1.513  -0.251   8.864  0.00  0.00    +0.020 A 
ATOM     11  C   LIG    1        0.242  -0.290   8.318  0.00  0.00    +0.010 A 
ATOM     12  C   LIG    1        0.063  -0.099   6.964  0.00  0.00    +0.010 A 
ENDBRANCH   4   7
BRANCH   3  13
ATOM     13  C   LIG    1        2.800  -1.238   3.838  0.00  0.00    -0.010 A 
ATOM     14  C   LIG    1        3.941  -1.149   3.041  0.00  0.00    +0.030 A 
ATOM     15  C   LIG    1        4.965  -2.059   3.201  0.00  0.00    +0.000 A 
ATOM     16  C   LIG    1        4.857  -3.066   4.144  0.00  0.00    +0.000 A 
ATOM     17  C   LIG    1        3.726  -3.164   4.934  0.00  0.00    +0.000 A 
ATOM     18  C   LIG    1        2.697  -2.256   4.787  0.00  0.00    +0.020 A 
ENDBRANCH   3  13
BRANCH   1  19
ATOM     19  S   LIG    1       -0.679   1.911   1.507  0.00  0.00    +0.050 S 
BRANCH  19  20
ATOM     20  C   LIG    1        0.108   1.259   0.014  0.00  0.00    +0.160 C 
BRANCH  20  22
ATOM     21  O   LIG    1       -1.443   2.666  -1.073  0.00  0.00    -0.480 OA
ATOM     22  C   LIG    1       -0.539   1.869  -1.203  0.00  0.00    +0.570 C 
ATOM     23  N   LIG    1       -0.112   1.529  -2.435  0.00  0.00    -0.580 N 
ATOM     24  C   LIG    1       -0.660   2.044  -3.699  0.00  0.00    +0.280 C 
ATOM     25  C   LIG    1        0.182   1.340  -4.781  0.00  0.00    +0.280 C 
ATOM     26  N   LIG    1        1.109   0.496  -4.012  0.00  0.00    -0.730 N 
ATOM     27  H   LIG    1        1.782  -0.090  -4.391  0.00  0.00    +0.440 HD
ATOM     28  C   LIG    1        0.874   0.663  -2.704  0.00  0.00    +0.700 C 
ATOM     29  O   LIG    1        1.500   0.083  -1.839  0.00  0.00    -0.540 OA
ENDBRANCH  20  22
ENDBRANCH  19  20
ENDBRANCH   1  19
TORSDOF 5
