REMARK  Name = ZINCAx0000000kcw.0
REMARK                            x       y       z     vdW  Elec       q    Type
REMARK                         _______ _______ _______ _____ _____    ______ ____
ROOT
ATOM      1  O   LIG    1       -7.722   0.887   5.195  0.00  0.00    -0.570 OA
ATOM      2  C   LIG    1       -8.317   0.731   4.146  0.00  0.00    +0.700 C 
ATOM      3  N   LIG    1       -9.652   0.547   4.149  0.00  0.00    -0.690 N 
ATOM      4  H   LIG    1      -10.137   0.499   3.311  0.00  0.00    +0.410 HD
ATOM      5  N   LIG    1       -7.641   0.741   2.980  0.00  0.00    -0.740 N 
ATOM      6  H   LIG    1       -8.115   0.616   2.143  0.00  0.00    +0.400 HD
ENDROOT
BRANCH   3   7
ATOM      7  C   LIG    1      -10.339   0.425   5.363  0.00  0.00    +0.160 A 
ATOM      8  C   LIG    1      -11.635   0.908   5.480  0.00  0.00    -0.010 A 
ATOM      9  C   LIG    1      -12.311   0.786   6.678  0.00  0.00    +0.030 A 
ATOM     10  C   LIG    1      -11.697   0.184   7.761  0.00  0.00    +0.020 A 
ATOM     11  C   LIG    1      -10.405  -0.298   7.648  0.00  0.00    -0.110 A 
ATOM     12  C   LIG    1       -9.727  -0.183   6.451  0.00  0.00    +0.050 A 
BRANCH  11  13
ATOM     13  C   LIG    1       -9.740  -0.953   8.831  0.00  0.00    +0.420 C 
BRANCH  13  14
ATOM     14  N   LIG    1      -10.017  -2.392   8.812  0.00  0.00    -0.430 N 
ATOM     15  N   LIG    1      -11.105  -3.033   9.419  0.00  0.00    -0.280 NA
ATOM     16  C   LIG    1      -11.001  -4.319   9.177  0.00  0.00    +0.290 A 
ATOM     17  C   LIG    1      -11.812  -5.423   9.544  0.00  0.00    +0.040 A 
ATOM     18  C   LIG    1      -11.458  -6.669   9.146  0.00  0.00    +0.110 A 
ATOM     19  C   LIG    1      -10.292  -6.854   8.376  0.00  0.00    -0.020 A 
ATOM     20  C   LIG    1       -9.526  -5.805   8.030  0.00  0.00    +0.300 A 
ATOM     21  N   LIG    1       -9.864  -4.531   8.420  0.00  0.00    -0.480 N 
ATOM     22  C   LIG    1       -9.275  -3.338   8.201  0.00  0.00    +0.640 A 
ATOM     23  O   LIG    1       -8.251  -3.149   7.567  0.00  0.00    -0.530 OA
ENDBRANCH  13  14
ENDBRANCH  11  13
ENDBRANCH   3   7
BRANCH   5  24
ATOM     24  C   LIG    1       -6.189   0.940   2.977  0.00  0.00    +0.280 C 
BRANCH  24  25
ATOM     25  C   LIG    1       -5.674   0.909   1.537  0.00  0.00    +0.030 C 
BRANCH  25  26
ATOM     26  C   LIG    1       -4.158   1.117   1.533  0.00  0.00    +0.030 C 
BRANCH  26  27
ATOM     27  C   LIG    1       -3.642   1.086   0.093  0.00  0.00    +0.310 C 
BRANCH  27  28
ATOM     28  N   LIG    1       -2.191   1.285   0.090  0.00  0.00    -0.580 N 
ATOM     29  C   LIG    1       -1.588   2.485   0.016  0.00  0.00    +0.580 C 
ATOM     30  C   LIG    1       -0.124   2.279   0.035  0.00  0.00    -0.140 A 
ATOM     31  C   LIG    1        0.973   3.124  -0.017  0.00  0.00    +0.100 A 
ATOM     32  C   LIG    1        2.252   2.592   0.030  0.00  0.00    +0.050 A 
ATOM     33  C   LIG    1        2.440   1.226   0.127  0.00  0.00    +0.050 A 
ATOM     34  C   LIG    1        1.352   0.369   0.180  0.00  0.00    +0.100 A 
ATOM     35  C   LIG    1        0.068   0.886   0.134  0.00  0.00    -0.140 A 
ATOM     36  O   LIG    1       -2.152   3.558  -0.062  0.00  0.00    -0.460 OA
ATOM     37  C   LIG    1       -1.286   0.293   0.166  0.00  0.00    +0.570 C 
ATOM     38  O   LIG    1       -1.539  -0.892   0.247  0.00  0.00    -0.460 OA
ENDBRANCH  27  28
ENDBRANCH  26  27
ENDBRANCH  25  26
ENDBRANCH  24  25
ENDBRANCH   5  24
TORSDOF 8
