REMARK  Name = ZINCvU0000000Ecv.0
REMARK                            x       y       z     vdW  Elec       q    Type
REMARK                         _______ _______ _______ _____ _____    ______ ____
ROOT
ATOM      1  C   LIG    1       -1.734   0.945  -1.851  0.00  0.00    +0.170 A 
ATOM      2  N   LIG    1       -2.082   1.725  -2.849  0.00  0.00    -0.280 NA
ATOM      3  N   LIG    1       -1.357   2.786  -2.854  0.00  0.00    -0.240 NA
ATOM      4  C   LIG    1       -0.503   2.752  -1.855  0.00  0.00    +0.260 A 
ATOM      5  N   LIG    1       -0.721   1.571  -1.179  0.00  0.00    -0.450 N 
ENDROOT
BRANCH   4   6
ATOM      6  C   LIG    1        0.496   3.778  -1.521  0.00  0.00    +0.070 A 
ATOM      7  C   LIG    1        0.909   4.788  -2.338  0.00  0.00    +0.040 A 
ATOM      8  C   LIG    1        1.865   5.529  -1.616  0.00  0.00    +0.020 A 
ATOM      9  C   LIG    1        1.995   4.938  -0.411  0.00  0.00    -0.020 A 
ATOM     10 BR   LIG    1        3.153   5.503   0.974  0.00  0.00    +0.070 Br
ATOM     11  O   LIG    1        1.168   3.881  -0.357  0.00  0.00    -0.160 OA
ENDBRANCH   4   6
BRANCH   1  12
ATOM     12  S   LIG    1       -2.443  -0.618  -1.450  0.00  0.00    +0.050 S 
BRANCH  12  13
ATOM     13  C   LIG    1       -3.680  -0.748  -2.765  0.00  0.00    +0.200 C 
BRANCH  13  20
ATOM     14  C   LIG    1       -7.696  -5.928  -1.796  0.00  0.00    +0.170 C 
ATOM     15  C   LIG    1       -6.298  -5.698  -2.308  0.00  0.00    +0.090 A 
ATOM     16  C   LIG    1       -5.554  -6.715  -2.706  0.00  0.00    -0.010 A 
ATOM     17  S   LIG    1       -4.014  -6.004  -3.218  0.00  0.00    +0.190 S 
ATOM     18  C   LIG    1       -4.505  -4.342  -2.846  0.00  0.00    +0.320 A 
ATOM     19  N   LIG    1       -3.865  -3.194  -2.965  0.00  0.00    -0.500 NA
ATOM     20  C   LIG    1       -4.433  -2.045  -2.620  0.00  0.00    +0.220 A 
ATOM     21  C   LIG    1       -5.718  -2.054  -2.122  0.00  0.00    -0.110 A 
ATOM     22  C   LIG    1       -6.396  -3.269  -2.002  0.00  0.00    +0.530 A 
ATOM     23  O   LIG    1       -7.537  -3.294  -1.566  0.00  0.00    -0.510 OA
ATOM     24  N   LIG    1       -5.777  -4.429  -2.368  0.00  0.00    -0.460 N 
ENDBRANCH  13  20
ENDBRANCH  12  13
ENDBRANCH   1  12
BRANCH   5  25
ATOM     25  C   LIG    1       -0.013   1.086   0.008  0.00  0.00    +0.370 C 
BRANCH  25  26
ATOM     26  C   LIG    1       -0.718   1.572   1.248  0.00  0.00    -0.130 A 
ATOM     27  C   LIG    1       -0.360   2.779   1.819  0.00  0.00    +0.030 A 
ATOM     28  C   LIG    1       -1.010   3.227   2.953  0.00  0.00    +0.010 A 
ATOM     29  C   LIG    1       -2.012   2.463   3.523  0.00  0.00    +0.030 A 
ATOM     30  C   LIG    1       -2.366   1.254   2.955  0.00  0.00    +0.010 A 
ATOM     31  C   LIG    1       -1.719   0.808   1.818  0.00  0.00    +0.040 A 
ENDBRANCH  25  26
ENDBRANCH   5  25
TORSDOF 6
