REMARK  Name = ZINCpe000000Y1tj.0
REMARK                            x       y       z     vdW  Elec       q    Type
REMARK                         _______ _______ _______ _____ _____    ______ ____
ROOT
ATOM      1  N   LIG    1        3.576   3.733  -0.116  0.00  0.00    -0.590 N 
ATOM      2  C   LIG    1        2.619   4.854  -0.089  0.00  0.00    +0.280 C 
ATOM      3  C   LIG    1        3.381   6.010   0.606  0.00  0.00    +0.070 C 
ATOM      4  C   LIG    1        4.818   5.811   0.055  0.00  0.00    +0.040 C 
ATOM      5  C   LIG    1        4.940   4.276  -0.040  0.00  0.00    +0.350 C 
ENDROOT
BRANCH   1   9
ATOM      6  C   LIG    1        5.082  -0.807  -0.294  0.00  0.00    +0.200 C 
ATOM      7  C   LIG    1        3.949   0.185  -0.280  0.00  0.00    +0.410 A 
ATOM      8  N   LIG    1        4.213   1.460  -0.208  0.00  0.00    -0.520 NA
ATOM      9  C   LIG    1        3.244   2.387  -0.193  0.00  0.00    +0.420 A 
ATOM     10  C   LIG    1        1.928   2.013  -0.253  0.00  0.00    -0.070 A 
ATOM     11  C   LIG    1        1.627   0.641  -0.330  0.00  0.00    +0.260 A 
ATOM     12  N   LIG    1        0.510  -0.060  -0.400  0.00  0.00    -0.310 NA
ATOM     13  N   LIG    1        0.793  -1.315  -0.454  0.00  0.00    -0.240 NA
ATOM     14  C   LIG    1        2.087  -1.493  -0.422  0.00  0.00    +0.350 A 
ATOM     15  N   LIG    1        2.668  -0.262  -0.342  0.00  0.00    -0.450 N 
ENDBRANCH   1   9
BRANCH   5  16
ATOM     16  C   LIG    1        5.710   3.901  -1.280  0.00  0.00    +0.280 A 
ATOM     17  N   LIG    1        5.415   4.262  -2.488  0.00  0.00    -0.270 NA
ATOM     18  N   LIG    1        6.369   3.711  -3.353  0.00  0.00    -0.550 N 
ATOM     19  H   LIG    1        6.399   3.815  -4.317  0.00  0.00    +0.460 HD
ATOM     20  C   LIG    1        7.239   3.009  -2.597  0.00  0.00    +0.650 A 
ATOM     21  O   LIG    1        8.207   2.389  -3.000  0.00  0.00    -0.550 OA
ATOM     22  N   LIG    1        6.843   3.126  -1.314  0.00  0.00    -0.540 N 
ATOM     23  C   LIG    1        7.506   2.525  -0.154  0.00  0.00    +0.350 C 
ENDBRANCH   5  16
BRANCH   4  24
ATOM     24  C   LIG    1        5.854   6.378   1.027  0.00  0.00    -0.040 C 
ATOM     25  C   LIG    1        6.651   7.603   0.575  0.00  0.00    +0.030 C 
ATOM     26  C   LIG    1        7.330   6.234   0.651  0.00  0.00    +0.010 C 
ENDBRANCH   4  24
TORSDOF 3
