REMARK  Name = ZINCpe000000Y8gP.0
REMARK                            x       y       z     vdW  Elec       q    Type
REMARK                         _______ _______ _______ _____ _____    ______ ____
ROOT
ATOM      1  C   LIG    1        2.426  -0.284   2.824  0.00  0.00    +0.610 C 
ATOM      2  N   LIG    1        1.359   0.132   2.113  0.00  0.00    -0.710 N 
ATOM      3  H   LIG    1        0.569   0.459   2.570  0.00  0.00    +0.400 HD
ATOM      4  O   LIG    1        3.417  -0.695   2.251  0.00  0.00    -0.530 OA
ENDROOT
BRANCH   1  15
ATOM      5  C   LIG    1        1.407  -2.613   4.729  0.00  0.00    +0.160 C 
ATOM      6  C   LIG    1        1.940  -1.270   5.158  0.00  0.00    +0.110 A 
ATOM      7  N   LIG    1        2.070  -0.855   6.389  0.00  0.00    -0.290 NA
ATOM      8  N   LIG    1        2.591   0.441   6.376  0.00  0.00    -0.350 N 
ATOM      9  C   LIG    1        2.784   0.806   5.095  0.00  0.00    +0.130 A 
ATOM     10  C   LIG    1        3.337   2.140   4.659  0.00  0.00    +0.120 C 
ATOM     11  C   LIG    1        3.988   2.810   5.877  0.00  0.00    +0.030 C 
ATOM     12  C   LIG    1        3.021   2.742   7.063  0.00  0.00    +0.050 C 
ATOM     13  C   LIG    1        2.890   1.290   7.534  0.00  0.00    +0.250 C 
ATOM     14  C   LIG    1        1.756   1.180   8.556  0.00  0.00    +0.050 C 
ATOM     15  C   LIG    1        2.391  -0.242   4.298  0.00  0.00    -0.290 A 
ENDBRANCH   1  15
BRANCH   2  16
ATOM     16  C   LIG    1        1.394   0.090   0.649  0.00  0.00    +0.230 C 
ATOM     17  C   LIG    1        0.002  -0.004   0.002  0.00  0.00    +0.050 C 
ATOM     18  C   LIG    1       -0.019   1.534   0.011  0.00  0.00    +0.000 C 
ATOM     19  C   LIG    1        1.518   1.476  -0.004  0.00  0.00    +0.020 C 
BRANCH  18  20
ATOM     20  C   LIG    1       -0.622   2.145  -1.256  0.00  0.00    +0.230 C 
ATOM     21  N   LIG    1       -0.562   3.616  -1.200  0.00  0.00    -0.720 N 
ATOM     22  H   LIG    1       -0.991   4.189  -0.544  0.00  0.00    +0.440 HD
ATOM     23  C   LIG    1        0.203   4.010  -2.233  0.00  0.00    +0.700 C 
ATOM     24  N   LIG    1        0.652   2.980  -2.959  0.00  0.00    -0.680 N 
ATOM     25  H   LIG    1        1.217   3.070  -3.742  0.00  0.00    +0.430 HD
ATOM     26  O   LIG    1        0.458   5.173  -2.481  0.00  0.00    -0.540 OA
ATOM     27  C   LIG    1        0.219   1.798  -2.468  0.00  0.00    +0.530 C 
ATOM     28  O   LIG    1        0.454   0.691  -2.904  0.00  0.00    -0.460 OA
ENDBRANCH  18  20
ENDBRANCH   2  16
TORSDOF 3
