REMARK  Name = ZINCb70000002CUi.0
REMARK                            x       y       z     vdW  Elec       q    Type
REMARK                         _______ _______ _______ _____ _____    ______ ____
ROOT
ATOM      1  C   LIG    1        2.339   1.370  -0.014  0.00  0.00    -0.270 A 
ATOM      2  C   LIG    1        2.372   0.014  -0.021  0.00  0.00    +0.350 A 
ATOM      3  N   LIG    1        1.196  -0.678  -0.013  0.00  0.00    -0.410 N 
ATOM      4  C   LIG    1        0.906  -2.015  -0.017  0.00  0.00    +0.120 A 
ATOM      5  C   LIG    1       -0.439  -2.129  -0.004  0.00  0.00    +0.270 A 
ATOM      6  N   LIG    1       -0.971  -0.903   0.007  0.00  0.00    -0.450 NA
ATOM      7  C   LIG    1        0.002  -0.004   0.002  0.00  0.00    +0.370 A 
ATOM      8  N   LIG    1       -0.016   1.337   0.009  0.00  0.00    -0.410 NA
ATOM      9  C   LIG    1        1.100   2.026   0.002  0.00  0.00    +0.360 A 
ENDROOT
BRANCH   1  10
ATOM     10  C   LIG    1        3.621   2.163  -0.023  0.00  0.00    +0.370 C 
BRANCH  10  11
ATOM     11  N   LIG    1        3.960   2.530  -1.404  0.00  0.00    -0.640 N 
ATOM     12  H   LIG    1        3.216   3.088  -1.796  0.00  0.00    +0.440 HD
ATOM     13  H   LIG    1        4.078   1.693  -1.955  0.00  0.00    +0.430 HD
ATOM     14  H   LIG    1        4.818   3.061  -1.410  0.00  0.00    +0.440 HD
ENDBRANCH  10  11
ENDBRANCH   1  10
TORSDOF 2
