REMARK  Name = ZINCqH00000089q2.0
REMARK                            x       y       z     vdW  Elec       q    Type
REMARK                         _______ _______ _______ _____ _____    ______ ____
ROOT
ATOM      1  S   LIG    1       -2.645   0.840  -0.566  0.00  0.00    +2.440 S 
ATOM      2  O   LIG    1       -2.798  -0.217   0.371  0.00  0.00    -0.900 OA
ATOM      3  O   LIG    1       -2.400   0.527  -1.930  0.00  0.00    -0.920 OA
ENDROOT
BRANCH   1   5
ATOM      4  C   LIG    1       -1.646   2.404   1.444  0.00  0.00    +0.120 C 
ATOM      5  C   LIG    1       -1.330   1.944   0.019  0.00  0.00    -0.470 C 
BRANCH   5   6
ATOM      6  C   LIG    1       -0.014   1.209   0.009  0.00  0.00    +0.550 C 
ATOM      7  N   LIG    1        1.143   1.898   0.001  0.00  0.00    -0.600 N 
ATOM      8  C   LIG    1        1.140   3.368   0.003  0.00  0.00    +0.270 C 
ATOM      9  C   LIG    1        2.010   3.857   1.170  0.00  0.00    -0.030 C 
ATOM     10  C   LIG    1        3.403   3.233   1.057  0.00  0.00    +0.030 C 
ATOM     11  C   LIG    1        3.290   1.709   1.147  0.00  0.00    -0.020 C 
ATOM     12  C   LIG    1        2.634   1.323   2.474  0.00  0.00    +0.030 C 
ATOM     13  C   LIG    1        2.128   5.381   1.113  0.00  0.00    +0.030 C 
ATOM     14  C   LIG    1        2.433   1.195  -0.015  0.00  0.00    +0.280 C 
ATOM     15  O   LIG    1        0.002  -0.004   0.002  0.00  0.00    -0.520 OA
ENDBRANCH   5   6
ENDBRANCH   1   5
BRANCH   1  16
ATOM     16  C   LIG    1       -4.104   1.913  -0.471  0.00  0.00    -0.290 C 
BRANCH  16  17
ATOM     17  C   LIG    1       -5.320   1.149  -0.929  0.00  0.00    -0.100 A 
ATOM     18  C   LIG    1       -5.686   1.166  -2.262  0.00  0.00    +0.030 A 
ATOM     19  C   LIG    1       -6.799   0.462  -2.682  0.00  0.00    +0.010 A 
ATOM     20  C   LIG    1       -7.550  -0.253  -1.768  0.00  0.00    -0.060 A 
ATOM     21  C   LIG    1       -7.187  -0.266  -0.435  0.00  0.00    +0.020 A 
ATOM     22  C   LIG    1       -6.072   0.435  -0.015  0.00  0.00    +0.030 A 
BRANCH  20  23
ATOM     23  C   LIG    1       -8.765  -1.018  -2.226  0.00  0.00    -0.030 C 
ATOM     24  C   LIG    1       -8.582  -2.503  -1.908  0.00  0.00    +0.040 C 
ATOM     25  C   LIG    1       -8.942  -0.838  -3.735  0.00  0.00    +0.030 C 
ATOM     26  C   LIG    1      -10.004  -0.489  -1.500  0.00  0.00    +0.040 C 
ENDBRANCH  20  23
ENDBRANCH  16  17
ENDBRANCH   1  16
TORSDOF 5
