REMARK  Name = ZINCrD000000A5Yk.0
REMARK                            x       y       z     vdW  Elec       q    Type
REMARK                         _______ _______ _______ _____ _____    ______ ____
ROOT
ATOM      1  C   LIG    1        1.304  -0.732  -0.014  0.00  0.00    +0.500 C 
ATOM      2  N   LIG    1        1.325  -2.077   0.081  0.00  0.00    -0.600 N 
ATOM      3  C   LIG    1        0.073  -2.845   0.096  0.00  0.00    +0.290 C 
ATOM      4  C   LIG    1        0.058  -3.747   1.329  0.00  0.00    +0.050 C 
ATOM      5  C   LIG    1        1.328  -4.596   1.353  0.00  0.00    +0.150 C 
ATOM      6  O   LIG    1        1.384  -5.425   0.180  0.00  0.00    -0.340 OA
ATOM      7  C   LIG    1        2.053  -6.626   0.609  0.00  0.00    +0.270 C 
ATOM      8  C   LIG    1        1.747  -6.770   2.081  0.00  0.00    -0.130 A 
ATOM      9  C   LIG    1        1.831  -7.834   2.954  0.00  0.00    +0.040 A 
ATOM     10  C   LIG    1        1.475  -7.669   4.281  0.00  0.00    +0.020 A 
ATOM     11  C   LIG    1        1.036  -6.439   4.731  0.00  0.00    +0.010 A 
ATOM     12  C   LIG    1        0.951  -5.371   3.856  0.00  0.00    +0.030 A 
ATOM     13  C   LIG    1        2.564  -3.701   1.415  0.00  0.00    +0.020 C 
ATOM     14  C   LIG    1        1.306  -5.535   2.533  0.00  0.00    -0.120 A 
ATOM     15  C   LIG    1        2.601  -2.799   0.176  0.00  0.00    +0.290 C 
ATOM     16  O   LIG    1        2.344  -0.115  -0.117  0.00  0.00    -0.510 OA
ENDROOT
BRANCH   1  18
ATOM     17  O   LIG    1       -0.630   0.142  -1.019  0.00  0.00    -0.430 OA
ATOM     18  C   LIG    1        0.002  -0.004   0.009  0.00  0.00    +0.430 C 
BRANCH  18  19
ATOM     19  C   LIG    1       -0.512   0.535   1.267  0.00  0.00    -0.270 A 
ATOM     20  C   LIG    1        0.085   0.454   2.511  0.00  0.00    +0.330 A 
ATOM     21  N   LIG    1       -0.690   1.068   3.423  0.00  0.00    -0.560 N 
ATOM     22  H   LIG    1       -0.478   1.140   4.367  0.00  0.00    +0.420 HD
ATOM     23  C   LIG    1       -1.827   1.582   2.833  0.00  0.00    +0.070 A 
ATOM     24  C   LIG    1       -2.917   2.289   3.330  0.00  0.00    +0.000 A 
ATOM     25  C   LIG    1       -3.929   2.681   2.479  0.00  0.00    +0.030 A 
ATOM     26  C   LIG    1       -3.873   2.377   1.128  0.00  0.00    +0.000 A 
ATOM     27  C   LIG    1       -2.801   1.677   0.616  0.00  0.00    +0.060 A 
ATOM     28  C   LIG    1       -1.770   1.282   1.463  0.00  0.00    -0.050 A 
ENDBRANCH  18  19
ENDBRANCH   1  18
TORSDOF 2
