REMARK  Name = ZINCqH0000037SaQ.0
REMARK                            x       y       z     vdW  Elec       q    Type
REMARK                         _______ _______ _______ _____ _____    ______ ____
ROOT
ATOM      1  N   LIG    1       -1.291   1.847   0.026  0.00  0.00    -0.690 N 
ATOM      2  H   LIG    1       -1.319   2.755   0.367  0.00  0.00    +0.410 HD
ATOM      3  C   LIG    1       -0.156   1.365  -0.517  0.00  0.00    +0.710 C 
ATOM      4  N   LIG    1        0.970   2.106  -0.493  0.00  0.00    -0.620 N 
ATOM      5  C   LIG    1        0.951   3.480   0.027  0.00  0.00    +0.270 C 
ATOM      6  C   LIG    1        2.028   3.613   1.108  0.00  0.00    +0.030 C 
ATOM      7  C   LIG    1        3.378   3.176   0.535  0.00  0.00    +0.020 C 
ATOM      8  C   LIG    1        3.302   1.709   0.106  0.00  0.00    +0.220 C 
ATOM      9  C   LIG    1        2.241   1.553  -0.982  0.00  0.00    +0.290 C 
ATOM     10  O   LIG    1       -0.148   0.265  -1.033  0.00  0.00    -0.560 OA
ENDROOT
BRANCH   1  14
ATOM     11  C   LIG    1       -6.187   1.413  -0.071  0.00  0.00    +0.100 C 
ATOM     12  C   LIG    1       -4.816   0.801   0.055  0.00  0.00    -0.060 A 
ATOM     13  C   LIG    1       -3.694   1.603  -0.017  0.00  0.00    +0.020 A 
ATOM     14  C   LIG    1       -2.430   1.038   0.099  0.00  0.00    +0.170 A 
ATOM     15  C   LIG    1       -2.300  -0.332   0.282  0.00  0.00    +0.070 A 
ATOM     16  C   LIG    1       -3.426  -1.128   0.359  0.00  0.00    -0.160 A 
ATOM     17  C   LIG    1       -4.683  -0.563   0.243  0.00  0.00    +0.050 A 
BRANCH  16  18
ATOM     18  C   LIG    1       -3.286  -2.614   0.564  0.00  0.00    +0.510 C 
ATOM     19  F   LIG    1       -4.400  -3.097   1.259  0.00  0.00    -0.180 F 
ATOM     20  F   LIG    1       -2.126  -2.876   1.302  0.00  0.00    -0.170 F 
ATOM     21  F   LIG    1       -3.200  -3.250  -0.679  0.00  0.00    -0.170 F 
ENDBRANCH  16  18
ENDBRANCH   1  14
BRANCH   8  22
ATOM     22  N   LIG    1        4.604   1.284  -0.414  0.00  0.00    -0.730 N 
ATOM     23  H   LIG    1        5.217   1.939  -0.782  0.00  0.00    +0.400 HD
ATOM     24  C   LIG    1        4.949  -0.019  -0.381  0.00  0.00    +0.520 C 
ATOM     25  O   LIG    1        4.183  -0.838   0.079  0.00  0.00    -0.530 OA
BRANCH  24  26
ATOM     26  C   LIG    1        6.288  -0.457  -0.916  0.00  0.00    -0.010 C 
ATOM     27  C   LIG    1        6.393  -0.084  -2.396  0.00  0.00    +0.040 C 
ATOM     28  C   LIG    1        6.429  -1.972  -0.761  0.00  0.00    +0.040 C 
ENDBRANCH  24  26
ENDBRANCH   8  22
TORSDOF 4
