REMARK  Name = ZINCpk000000mYRq.0
REMARK                            x       y       z     vdW  Elec       q    Type
REMARK                         _______ _______ _______ _____ _____    ______ ____
ROOT
ATOM      1  S   LIG    1       -2.692   0.859   0.026  0.00  0.00    +2.690 S 
ATOM      2  O   LIG    1       -1.680   1.853  -0.032  0.00  0.00    -0.940 OA
ATOM      3  O   LIG    1       -2.511  -0.465  -0.458  0.00  0.00    -0.940 OA
ENDROOT
BRANCH   1   4
ATOM      4  C   LIG    1       -4.085   1.515  -0.830  0.00  0.00    -0.660 A 
ATOM      5  C   LIG    1       -4.986   0.662  -1.440  0.00  0.00    +0.150 A 
ATOM      6  C   LIG    1       -6.078   1.174  -2.118  0.00  0.00    +0.040 A 
ATOM      7  C   LIG    1       -6.273   2.540  -2.183  0.00  0.00    +0.080 A 
ATOM      8  C   LIG    1       -5.372   3.399  -1.568  0.00  0.00    +0.110 A 
ATOM      9  C   LIG    1       -4.278   2.882  -0.888  0.00  0.00    +0.160 A 
BRANCH   8  10
ATOM     10  N   LIG    1       -5.568   4.786  -1.633  0.00  0.00    -0.330 N 
ATOM     11  C   LIG    1       -6.573   5.445  -2.249  0.00  0.00    +0.470 A 
ATOM     12  N   LIG    1       -6.371   6.723  -2.064  0.00  0.00    -0.320 NA
ATOM     13  N   LIG    1       -5.307   6.918  -1.372  0.00  0.00    -0.030 NA
ATOM     14  N   LIG    1       -4.763   5.790  -1.066  0.00  0.00    -0.070 NA
ENDBRANCH   8  10
ENDBRANCH   1   4
BRANCH   1  15
ATOM     15  N   LIG    1       -3.119   0.718   1.620  0.00  0.00    -1.050 N 
ATOM     16  H   LIG    1       -3.131  -0.154   2.044  0.00  0.00    +0.430 HD
BRANCH  15  20
ATOM     17  C   LIG    1       -4.139   4.114   3.811  0.00  0.00    +0.140 A 
ATOM     18  C   LIG    1       -4.929   2.975   3.889  0.00  0.00    +0.030 A 
ATOM     19  C   LIG    1       -4.592   1.850   3.163  0.00  0.00    +0.030 A 
ATOM     20  C   LIG    1       -3.462   1.858   2.356  0.00  0.00    +0.120 A 
ATOM     21  C   LIG    1       -2.668   2.996   2.283  0.00  0.00    +0.030 A 
ATOM     22  C   LIG    1       -3.010   4.122   3.004  0.00  0.00    +0.020 A 
BRANCH  17  25
ATOM     23  C   LIG    1       -5.544   6.352   6.495  0.00  0.00    +0.110 C 
ATOM     24  C   LIG    1       -5.068   5.128   5.755  0.00  0.00    +0.510 C 
ATOM     25  N   LIG    1       -4.482   5.256   4.548  0.00  0.00    -0.680 N 
ATOM     26  H   LIG    1       -4.298   6.138   4.190  0.00  0.00    +0.410 HD
ATOM     27  O   LIG    1       -5.212   4.028   6.246  0.00  0.00    -0.530 OA
ENDBRANCH  17  25
ENDBRANCH  15  20
ENDBRANCH   1  15
TORSDOF 5
