REMARK  Name = ZINCqH0000000vAA.0
REMARK                            x       y       z     vdW  Elec       q    Type
REMARK                         _______ _______ _______ _____ _____    ______ ____
ROOT
ATOM      1  N   LIG    1        3.607   2.081   0.140  0.00  0.00    -0.740 N 
ATOM      2  H   LIG    1        3.586   3.051   0.129  0.00  0.00    +0.400 HD
ENDROOT
BRANCH   1   3
ATOM      3  C   LIG    1        2.415   1.357   0.209  0.00  0.00    +0.240 A 
ATOM      4  C   LIG    1        2.444  -0.032   0.224  0.00  0.00    -0.060 A 
ATOM      5  C   LIG    1        1.264  -0.748   0.293  0.00  0.00    +0.090 A 
ATOM      6  C   LIG    1        0.053  -0.086   0.346  0.00  0.00    -0.050 A 
ATOM      7  C   LIG    1        0.017   1.302   0.331  0.00  0.00    +0.170 A 
ATOM      8  C   LIG    1        1.199   2.025   0.263  0.00  0.00    -0.050 A 
BRANCH   7   9
ATOM      9  N   LIG    1       -1.214   1.973   0.380  0.00  0.00    -0.330 N 
ATOM     10  N   LIG    1       -1.499   3.189   1.025  0.00  0.00    -0.080 NA
ATOM     11  N   LIG    1       -2.746   3.437   0.812  0.00  0.00    -0.030 NA
ATOM     12  N   LIG    1       -3.271   2.499   0.110  0.00  0.00    -0.330 NA
ATOM     13  C   LIG    1       -2.381   1.586  -0.179  0.00  0.00    +0.250 A 
ATOM     14  C   LIG    1       -2.615   0.334  -0.984  0.00  0.00    +0.220 C 
ENDBRANCH   7   9
ENDBRANCH   1   3
BRANCH   1  15
ATOM     15  C   LIG    1        4.890   1.376   0.084  0.00  0.00    +0.310 C 
BRANCH  15  20
ATOM     16  C   LIG    1        7.626   3.782   1.111  0.00  0.00    -0.170 A 
ATOM     17  C   LIG    1        8.079   4.227  -0.135  0.00  0.00    -0.030 A 
ATOM     18  C   LIG    1        7.496   3.745  -1.288  0.00  0.00    +0.000 A 
ATOM     19  C   LIG    1        6.470   2.820  -1.215  0.00  0.00    -0.040 A 
ATOM     20  C   LIG    1        6.012   2.379   0.015  0.00  0.00    -0.120 A 
ATOM     21  C   LIG    1        5.843   2.294  -2.480  0.00  0.00    +0.100 C 
ATOM     22  C   LIG    1        9.201   5.230  -0.217  0.00  0.00    +0.100 C 
ATOM     23  C   LIG    1        6.585   2.851   1.177  0.00  0.00    -0.020 A 
ATOM     24  C   LIG    1        6.089   2.365   2.515  0.00  0.00    +0.100 C 
BRANCH  16  26
ATOM     25  C   LIG    1        9.486   3.637   2.892  0.00  0.00    +0.080 C 
ATOM     26  C   LIG    1        8.243   4.291   2.347  0.00  0.00    +0.410 C 
ATOM     27  O   LIG    1        7.751   5.236   2.925  0.00  0.00    -0.450 OA
ENDBRANCH  16  26
ENDBRANCH  15  20
ENDBRANCH   1  15
TORSDOF 5
