REMARK  Name = ZINCtV00000tRSAs.0
REMARK                            x       y       z     vdW  Elec       q    Type
REMARK                         _______ _______ _______ _____ _____    ______ ____
ROOT
ATOM      1  C   LIG    1        5.391   3.819   1.898  0.00  0.00    +0.290 C 
ATOM      2  C   LIG    1        4.835   2.812   2.905  0.00  0.00    +0.030 C 
ATOM      3  C   LIG    1        4.157   1.669   2.139  0.00  0.00    +0.260 C 
ATOM      4  N   LIG    1        3.023   2.236   1.396  0.00  0.00    -0.610 N 
ATOM      5  C   LIG    1        3.207   3.433   0.691  0.00  0.00    +0.200 A 
ATOM      6  C   LIG    1        2.243   3.834  -0.225  0.00  0.00    -0.130 A 
ATOM      7  C   LIG    1        2.402   5.015  -0.923  0.00  0.00    +0.040 A 
ATOM      8  C   LIG    1        3.519   5.800  -0.705  0.00  0.00    -0.030 A 
ATOM      9  C   LIG    1        4.478   5.404   0.208  0.00  0.00    +0.060 A 
ATOM     10  C   LIG    1        1.026   2.978  -0.461  0.00  0.00    +0.070 C 
ATOM     11  C   LIG    1        1.828   1.613   1.389  0.00  0.00    +0.610 C 
ATOM     12  O   LIG    1        1.730   0.492   0.930  0.00  0.00    -0.470 OA
ATOM     13  C   LIG    1        5.151   1.037   1.163  0.00  0.00    +0.030 C 
ATOM     14  C   LIG    1        4.327   4.221   0.912  0.00  0.00    -0.150 A 
ENDROOT
BRANCH  11  15
ATOM     15  C   LIG    1        0.637   2.293   1.941  0.00  0.00    -0.110 A 
ATOM     16  C   LIG    1        0.767   3.528   2.578  0.00  0.00    +0.060 A 
ATOM     17  C   LIG    1       -0.347   4.159   3.091  0.00  0.00    +0.040 A 
ATOM     18  C   LIG    1       -1.594   3.570   2.975  0.00  0.00    +0.010 A 
ATOM     19  C   LIG    1       -1.732   2.347   2.339  0.00  0.00    +0.100 A 
ATOM     20  F   LIG    1       -2.954   1.781   2.224  0.00  0.00    -0.130 F 
ATOM     21  C   LIG    1       -0.623   1.703   1.826  0.00  0.00    +0.040 A 
ENDBRANCH  11  15
BRANCH   1  22
ATOM     22  N   LIG    1        5.862   5.008   2.613  0.00  0.00    -0.740 N 
ATOM     23  H   LIG    1        5.488   5.232   3.479  0.00  0.00    +0.400 HD
BRANCH  22  30
ATOM     24  C   LIG    1        6.717   7.297   4.069  0.00  0.00    +0.090 C 
ATOM     25  C   LIG    1        7.297   6.946   2.724  0.00  0.00    -0.160 A 
ATOM     26  C   LIG    1        8.273   7.744   2.161  0.00  0.00    +0.050 A 
ATOM     27  C   LIG    1        8.805   7.422   0.926  0.00  0.00    -0.050 A 
ATOM     28  C   LIG    1        8.362   6.300   0.250  0.00  0.00    +0.040 A 
ATOM     29  C   LIG    1        7.390   5.494   0.809  0.00  0.00    -0.080 A 
ATOM     30  C   LIG    1        6.849   5.818   2.047  0.00  0.00    +0.220 A 
ENDBRANCH  22  30
ENDBRANCH   1  22
TORSDOF 3
