REMARK  Name = ZINCrD00000iewhp.0
REMARK                            x       y       z     vdW  Elec       q    Type
REMARK                         _______ _______ _______ _____ _____    ______ ____
ROOT
ATOM      1  C   LIG    1        4.795   1.047  -3.035  0.00  0.00    -0.280 A 
ATOM      2  C   LIG    1        6.037   0.694  -3.405  0.00  0.00    +0.180 A 
ATOM      3  C   LIG    1        6.270   0.750  -4.781  0.00  0.00    -0.180 A 
ATOM      4  C   LIG    1        5.151   1.166  -5.499  0.00  0.00    -0.110 A 
ATOM      5  C   LIG    1        5.251   1.272  -6.968  0.00  0.00    -0.080 A 
ATOM      6  C   LIG    1        4.149   1.685  -7.721  0.00  0.00    +0.070 A 
ATOM      7  C   LIG    1        4.257   1.779  -9.091  0.00  0.00    +0.000 A 
ATOM      8  C   LIG    1        5.451   1.465  -9.722  0.00  0.00    +0.080 A 
ATOM      9  C   LIG    1        6.546   1.056  -8.991  0.00  0.00    -0.020 A 
ATOM     10  C   LIG    1        6.458   0.954  -7.606  0.00  0.00    +0.190 A 
ATOM     11  N   LIG    1        7.552   0.544  -6.866  0.00  0.00    -0.630 N 
ATOM     12  H   LIG    1        8.378   0.329  -7.327  0.00  0.00    +0.420 HD
ATOM     13  C   LIG    1        7.504   0.435  -5.532  0.00  0.00    +0.580 A 
ATOM     14  O   LIG    1        8.495   0.070  -4.926  0.00  0.00    -0.520 OA
ATOM     15  S   LIG    1        3.841   1.469  -4.446  0.00  0.00    +0.270 S 
ENDROOT
BRANCH   1  17
ATOM     16  O   LIG    1        5.044   0.755  -0.740  0.00  0.00    -0.510 OA
ATOM     17  C   LIG    1        4.305   1.071  -1.653  0.00  0.00    +0.600 C 
ATOM     18  N   LIG    1        3.035   1.443  -1.394  0.00  0.00    -0.720 N 
ATOM     19  H   LIG    1        2.446   1.695  -2.122  0.00  0.00    +0.400 HD
BRANCH  18  20
ATOM     20  C   LIG    1        2.546   1.466  -0.013  0.00  0.00    +0.400 C 
BRANCH  20  21
ATOM     21  C   LIG    1        1.107   1.914   0.002  0.00  0.00    +0.080 A 
ATOM     22  N   LIG    1        0.690   3.154   0.012  0.00  0.00    -0.240 NA
ATOM     23  N   LIG    1       -0.711   3.144   0.025  0.00  0.00    -0.440 N 
ATOM     24  C   LIG    1       -1.117   1.857   0.017  0.00  0.00    +0.270 A 
ATOM     25  C   LIG    1       -0.013   1.076   0.008  0.00  0.00    -0.060 A 
BRANCH  23  26
ATOM     26  C   LIG    1       -1.581   4.322   0.039  0.00  0.00    +0.700 C 
ATOM     27  F   LIG    1       -2.296   4.360   1.241  0.00  0.00    -0.150 F 
ATOM     28  F   LIG    1       -2.477   4.254  -1.034  0.00  0.00    -0.150 F 
ATOM     29  F   LIG    1       -0.803   5.479  -0.077  0.00  0.00    -0.130 F 
ENDBRANCH  23  26
ENDBRANCH  20  21
ENDBRANCH  18  20
ENDBRANCH   1  17
TORSDOF 4
