REMARK  Name = ZINCrg00000J0UKY.0
REMARK                            x       y       z     vdW  Elec       q    Type
REMARK                         _______ _______ _______ _____ _____    ______ ____
ROOT
ATOM      1  O   LIG    1        3.632   1.770  -0.024  0.00  0.00    -0.340 OA
ENDROOT
BRANCH   1   2
ATOM      2  C   LIG    1        2.477   1.076  -0.016  0.00  0.00    +0.510 C 
ATOM      3  O   LIG    1        2.498  -0.138  -0.024  0.00  0.00    -0.490 OA
BRANCH   2   4
ATOM      4  C   LIG    1        1.185   1.792   0.000  0.00  0.00    -0.100 A 
ATOM      5  C   LIG    1        1.158   3.188   0.008  0.00  0.00    +0.100 A 
ATOM      6  C   LIG    1       -0.051   3.854   0.023  0.00  0.00    +0.050 A 
ATOM      7  C   LIG    1       -1.237   3.144   0.031  0.00  0.00    +0.060 A 
ATOM      8  C   LIG    1       -1.220   1.754   0.017  0.00  0.00    +0.120 A 
ATOM      9  C   LIG    1       -0.013   1.076   0.008  0.00  0.00    +0.120 A 
BRANCH   8  10
ATOM     10  N   LIG    1       -2.427   1.039   0.019  0.00  0.00    -0.330 N 
ATOM     11  C   LIG    1       -3.680   1.543   0.028  0.00  0.00    +0.470 A 
ATOM     12  N   LIG    1       -4.506   0.530   0.026  0.00  0.00    -0.330 NA
ATOM     13  N   LIG    1       -3.861  -0.580   0.017  0.00  0.00    -0.030 NA
ATOM     14  N   LIG    1       -2.591  -0.358   0.006  0.00  0.00    -0.070 NA
ENDBRANCH   8  10
ENDBRANCH   2   4
ENDBRANCH   1   2
BRANCH   1  15
ATOM     15  C   LIG    1        4.863   1.001  -0.040  0.00  0.00    +0.340 C 
BRANCH  15  21
ATOM     16  C   LIG    1        9.222   5.279  -1.377  0.00  0.00    +0.120 A 
ATOM     17  N   LIG    1        9.196   4.593  -0.289  0.00  0.00    -0.230 NA
ATOM     18  N   LIG    1        8.180   3.664  -0.090  0.00  0.00    -0.370 N 
ATOM     19  C   LIG    1        7.995   2.855   0.993  0.00  0.00    +0.540 A 
ATOM     20  C   LIG    1        6.909   1.980   1.026  0.00  0.00    -0.080 A 
ATOM     21  C   LIG    1        6.042   1.940  -0.046  0.00  0.00    +0.200 A 
ATOM     22  N   LIG    1        6.256   2.743  -1.081  0.00  0.00    -0.480 NA
ATOM     23  O   LIG    1        8.775   2.900   1.932  0.00  0.00    -0.490 OA
ATOM     24  C   LIG    1        7.282   3.573  -1.107  0.00  0.00    +0.310 A 
ATOM     25  S   LIG    1        7.821   4.745  -2.321  0.00  0.00    +0.140 S 
BRANCH  16  27
ATOM     26  C   LIG    1       11.275   6.468  -0.653  0.00  0.00    +0.070 C 
ATOM     27  C   LIG    1       10.236   6.324  -1.767  0.00  0.00    +0.180 C 
ENDBRANCH  16  27
ENDBRANCH  15  21
ENDBRANCH   1  15
TORSDOF 6
