REMARK  Name = ZINCqH0000035ETd.0
REMARK                            x       y       z     vdW  Elec       q    Type
REMARK                         _______ _______ _______ _____ _____    ______ ____
ROOT
ATOM      1  C   LIG    1       -5.344   3.370   4.758  0.00  0.00    +0.370 C 
ATOM      2  C   LIG    1       -5.757   2.254   5.720  0.00  0.00    +0.060 C 
ENDROOT
BRANCH   1   6
ATOM      3  C   LIG    1       -0.624   2.252   3.554  0.00  0.00    +0.150 A 
ATOM      4  C   LIG    1       -2.000   2.471   3.549  0.00  0.00    +0.030 A 
ATOM      5  O   LIG    1       -2.875   2.893   4.485  0.00  0.00    -0.150 OA
ATOM      6  C   LIG    1       -4.123   2.942   3.986  0.00  0.00    +0.020 A 
ATOM      7  C   LIG    1       -4.122   2.555   2.703  0.00  0.00    -0.160 A 
ATOM      8  C   LIG    1       -5.314   2.468   1.784  0.00  0.00    +0.120 C 
ATOM      9  C   LIG    1       -2.729   2.233   2.373  0.00  0.00    -0.090 A 
ATOM     10  C   LIG    1       -2.078   1.787   1.223  0.00  0.00    +0.020 A 
ATOM     11  C   LIG    1       -0.718   1.572   1.248  0.00  0.00    -0.060 A 
ATOM     12  C   LIG    1       -0.013   1.086   0.008  0.00  0.00    +0.100 C 
ATOM     13  C   LIG    1        0.006   1.805   2.407  0.00  0.00    -0.050 A 
BRANCH   3  15
ATOM     14  C   LIG    1        1.503   2.232   4.617  0.00  0.00    +0.250 C 
ATOM     15  O   LIG    1        0.097   2.478   4.684  0.00  0.00    -0.310 OA
ENDBRANCH   3  15
ENDBRANCH   1   6
BRANCH   1  16
ATOM     16  N   LIG    1       -5.040   4.584   5.520  0.00  0.00    -0.580 N 
ATOM     17  C   LIG    1       -4.090   4.663   6.459  0.00  0.00    +0.700 C 
ATOM     18  N   LIG    1       -4.010   5.889   7.007  0.00  0.00    -0.730 N 
ATOM     19  H   LIG    1       -3.396   6.175   7.701  0.00  0.00    +0.440 HD
ATOM     20  C   LIG    1       -5.042   6.712   6.351  0.00  0.00    +0.230 C 
ATOM     21  O   LIG    1       -3.377   3.733   6.779  0.00  0.00    -0.510 OA
ATOM     22  C   LIG    1       -5.686   5.757   5.367  0.00  0.00    +0.530 C 
ATOM     23  O   LIG    1       -6.594   5.997   4.600  0.00  0.00    -0.460 OA
BRANCH  20  24
ATOM     24  C   LIG    1       -4.402   7.892   5.617  0.00  0.00    +0.080 C 
BRANCH  24  25
ATOM     25  C   LIG    1       -3.870   8.900   6.637  0.00  0.00    +0.080 C 
BRANCH  25  26
ATOM     26  S   LIG    1       -3.112  10.299   5.766  0.00  0.00    -0.250 S 
ATOM     27  C   LIG    1       -2.550  11.367   7.121  0.00  0.00    +0.140 C 
ENDBRANCH  25  26
ENDBRANCH  24  25
ENDBRANCH  20  24
ENDBRANCH   1  16
TORSDOF 6
