REMARK  Name = ZINCrH000004ncuQ.0
REMARK                            x       y       z     vdW  Elec       q    Type
REMARK                         _______ _______ _______ _____ _____    ______ ____
ROOT
ATOM      1  C   LIG    1       -0.179   5.908  -1.349  0.00  0.00    +0.530 C 
ATOM      2  N   LIG    1        1.022   5.855  -1.958  0.00  0.00    -0.720 N 
ATOM      3  H   LIG    1        1.777   5.446  -1.507  0.00  0.00    +0.410 HD
ATOM      4  O   LIG    1       -1.123   6.419  -1.913  0.00  0.00    -0.530 OA
ENDROOT
BRANCH   1  11
ATOM      5  C   LIG    1        1.178   1.787   0.000  0.00  0.00    +0.130 A 
ATOM      6  C   LIG    1       -0.013   1.076   0.008  0.00  0.00    -0.070 A 
ATOM      7  C   LIG    1       -1.217   1.751   0.017  0.00  0.00    +0.060 A 
ATOM      8  C   LIG    1       -1.241   3.136   0.031  0.00  0.00    -0.120 A 
ATOM      9  C   LIG    1       -2.412   4.095   0.046  0.00  0.00    +0.080 C 
ATOM     10  C   LIG    1       -1.819   5.450   0.488  0.00  0.00    +0.070 C 
ATOM     11  C   LIG    1       -0.349   5.332   0.033  0.00  0.00    +0.040 C 
ATOM     12  C   LIG    1       -0.055   3.847   0.023  0.00  0.00    -0.060 A 
ATOM     13  C   LIG    1        1.154   3.173   0.008  0.00  0.00    +0.000 A 
BRANCH   5  15
ATOM     14  C   LIG    1        2.314  -0.301  -0.021  0.00  0.00    +0.250 C 
ATOM     15  O   LIG    1        2.366   1.127  -0.014  0.00  0.00    -0.320 OA
ENDBRANCH   5  15
ENDBRANCH   1  11
BRANCH   2  16
ATOM     16  C   LIG    1        1.187   6.415  -3.302  0.00  0.00    +0.250 C 
BRANCH  16  17
ATOM     17  C   LIG    1        2.635   6.226  -3.759  0.00  0.00    +0.260 C 
BRANCH  17  18
ATOM     18  C   LIG    1        2.804   6.801  -5.141  0.00  0.00    -0.110 A 
ATOM     19  C   LIG    1        3.258   8.075  -5.301  0.00  0.00    +0.020 A 
ATOM     20  C   LIG    1        3.427   8.623  -6.571  0.00  0.00    +0.010 A 
ATOM     21  C   LIG    1        3.132   7.904  -7.689  0.00  0.00    +0.030 A 
ATOM     22  C   LIG    1        2.656   6.588  -7.564  0.00  0.00    -0.050 A 
ATOM     23  C   LIG    1        2.342   5.815  -8.695  0.00  0.00    +0.030 A 
ATOM     24  C   LIG    1        1.884   4.543  -8.535  0.00  0.00    +0.010 A 
ATOM     25  C   LIG    1        1.721   3.993  -7.266  0.00  0.00    +0.010 A 
ATOM     26  C   LIG    1        2.014   4.712  -6.147  0.00  0.00    +0.020 A 
ATOM     27  C   LIG    1        2.490   6.029  -6.272  0.00  0.00    -0.040 A 
ENDBRANCH  17  18
BRANCH  17  28
ATOM     28  O   LIG    1        3.512   6.897  -2.852  0.00  0.00    -0.550 OA
ATOM     29  H   LIG    1        3.356   7.849  -2.786  0.00  0.00    +0.380 HD
ENDBRANCH  17  28
ENDBRANCH  16  17
ENDBRANCH   2  16
TORSDOF 6
