REMARK  Name = ZINCrH000004jcOr.0
REMARK                            x       y       z     vdW  Elec       q    Type
REMARK                         _______ _______ _______ _____ _____    ______ ____
ROOT
ATOM      1  N   LIG    1        3.401   3.254  -0.924  0.00  0.00    -0.720 N 
ATOM      2  H   LIG    1        3.055   2.735  -1.667  0.00  0.00    +0.400 HD
ATOM      3  C   LIG    1        4.732   3.378  -0.751  0.00  0.00    +0.600 C 
ATOM      4  O   LIG    1        5.167   4.028   0.180  0.00  0.00    -0.550 OA
ENDROOT
BRANCH   1  10
ATOM      5  C   LIG    1       -1.237   3.131   0.029  0.00  0.00    -0.110 A 
ATOM      6  C   LIG    1       -1.219   1.751   0.017  0.00  0.00    +0.050 A 
ATOM      7  C   LIG    1       -0.013   1.076   0.008  0.00  0.00    -0.020 A 
ATOM      8  C   LIG    1        1.174   1.783   0.000  0.00  0.00    +0.040 A 
ATOM      9  C   LIG    1        1.163   3.168   0.008  0.00  0.00    -0.180 A 
ATOM     10  C   LIG    1        2.478   3.904   0.009  0.00  0.00    +0.300 C 
ATOM     11  C   LIG    1        2.257   5.356  -0.421  0.00  0.00    -0.000 C 
ATOM     12  C   LIG    1        1.077   5.922   0.381  0.00  0.00    +0.240 C 
ATOM     13  O   LIG    1       -0.101   5.203   0.016  0.00  0.00    -0.310 OA
ATOM     14  C   LIG    1       -0.043   3.846   0.019  0.00  0.00    +0.150 A 
BRANCH   5  16
ATOM     15  C   LIG    1       -2.952   4.229  -1.386  0.00  0.00    +0.030 C 
ATOM     16  C   LIG    1       -2.553   3.865   0.045  0.00  0.00    +0.070 C 
ENDBRANCH   5  16
ENDBRANCH   1  10
BRANCH   3  17
ATOM     17  C   LIG    1        5.662   2.724  -1.690  0.00  0.00    -0.300 A 
ATOM     18  C   LIG    1        7.041   2.762  -1.639  0.00  0.00    +0.320 A 
ATOM     19  N   LIG    1        7.501   2.041  -2.673  0.00  0.00    -0.350 N 
ATOM     20  N   LIG    1        6.407   1.540  -3.388  0.00  0.00    -0.280 NA
ATOM     21  C   LIG    1        5.308   1.935  -2.808  0.00  0.00    +0.270 A 
BRANCH  19  22
ATOM     22  C   LIG    1        8.912   1.816  -2.999  0.00  0.00    +0.380 C 
BRANCH  22  23
ATOM     23  C   LIG    1        9.177   0.335  -3.088  0.00  0.00    -0.120 A 
ATOM     24  C   LIG    1        9.570  -0.365  -1.962  0.00  0.00    +0.020 A 
ATOM     25  C   LIG    1        9.810  -1.724  -2.042  0.00  0.00    +0.010 A 
ATOM     26  C   LIG    1        9.665  -2.381  -3.250  0.00  0.00    +0.010 A 
ATOM     27  C   LIG    1        9.276  -1.681  -4.376  0.00  0.00    +0.010 A 
ATOM     28  C   LIG    1        9.033  -0.322  -4.295  0.00  0.00    +0.050 A 
ENDBRANCH  22  23
ENDBRANCH  19  22
ENDBRANCH   3  17
TORSDOF 5
