REMARK  Name = ZINCpk00000ebcGX.0
REMARK                            x       y       z     vdW  Elec       q    Type
REMARK                         _______ _______ _______ _____ _____    ______ ____
ROOT
ATOM      1  C   LIG    1       -0.722  -0.701  -0.896  0.00  0.00    +0.520 C 
ATOM      2  N   LIG    1        0.002  -0.004   0.002  0.00  0.00    -0.620 N 
ATOM      3  C   LIG    1       -0.018   1.467   0.010  0.00  0.00    +0.300 C 
ATOM      4  C   LIG    1        1.428   1.973  -0.001  0.00  0.00    +0.200 C 
ATOM      5  N   LIG    1        2.168   1.356   1.108  0.00  0.00    -0.480 N 
ATOM      6  C   LIG    1        2.246  -0.103   0.950  0.00  0.00    +0.210 C 
ATOM      7  C   LIG    1        0.833  -0.694   1.000  0.00  0.00    +0.280 C 
ATOM      8  O   LIG    1       -1.403  -0.115  -1.712  0.00  0.00    -0.520 OA
ENDROOT
BRANCH   5   9
ATOM      9  C   LIG    1        3.437   1.912   1.230  0.00  0.00    +0.310 A 
ATOM     10  C   LIG    1        3.574   3.287   1.389  0.00  0.00    -0.050 A 
ATOM     11  C   LIG    1        4.842   3.826   1.511  0.00  0.00    +0.090 A 
ATOM     12  C   LIG    1        5.934   2.970   1.469  0.00  0.00    -0.060 A 
ATOM     13  C   LIG    1        5.724   1.614   1.309  0.00  0.00    +0.290 A 
ATOM     14  N   LIG    1        4.503   1.127   1.201  0.00  0.00    -0.520 NA
ENDBRANCH   5   9
BRANCH   1  15
ATOM     15  C   LIG    1       -0.687  -2.207  -0.886  0.00  0.00    +0.220 C 
BRANCH  15  16
ATOM     16  N   LIG    1       -1.554  -2.724  -1.954  0.00  0.00    -0.520 NA
ATOM     17  C   LIG    1       -2.963  -2.406  -1.688  0.00  0.00    +0.200 C 
BRANCH  16  18
ATOM     18  C   LIG    1       -1.366  -4.170  -2.131  0.00  0.00    +0.280 C 
BRANCH  18  25
ATOM     19  C   LIG    1       -4.423  -5.220  -2.404  0.00  0.00    +0.160 C 
ATOM     20  C   LIG    1       -3.408  -5.079  -3.509  0.00  0.00    +0.030 A 
ATOM     21  N   LIG    1       -3.584  -5.352  -4.769  0.00  0.00    -0.370 NA
ATOM     22  O   LIG    1       -2.583  -5.142  -5.414  0.00  0.00    +0.100 OA
ATOM     23  C   LIG    1       -1.587  -4.684  -4.643  0.00  0.00    -0.010 A 
ATOM     24  C   LIG    1       -0.196  -4.313  -5.090  0.00  0.00    +0.190 C 
ATOM     25  C   LIG    1       -2.077  -4.620  -3.381  0.00  0.00    -0.200 A 
ENDBRANCH  18  25
ENDBRANCH  16  18
ENDBRANCH  15  16
ENDBRANCH   1  15
TORSDOF 5
