REMARK  Name = ZINCrD00000hQ4C2.0
REMARK                            x       y       z     vdW  Elec       q    Type
REMARK                         _______ _______ _______ _____ _____    ______ ____
ROOT
ATOM      1  C   LIG    1       -2.906  -0.096   5.833  0.00  0.00    +0.550 C 
ATOM      2  N   LIG    1       -1.788  -0.486   5.189  0.00  0.00    -0.600 N 
ATOM      3  O   LIG    1       -3.079   1.080   6.092  0.00  0.00    -0.540 OA
ENDROOT
BRANCH   2   4
ATOM      4  C   LIG    1       -1.625  -1.885   4.787  0.00  0.00    +0.240 C 
ATOM      5  C   LIG    1       -2.827  -2.317   3.944  0.00  0.00    +0.010 C 
ATOM      6  C   LIG    1       -2.637  -3.769   3.496  0.00  0.00    +0.290 C 
ATOM      7  N   LIG    1       -2.402  -4.603   4.683  0.00  0.00    -0.620 N 
ATOM      8  C   LIG    1       -1.327  -4.224   5.611  0.00  0.00    +0.280 C 
ATOM      9  C   LIG    1       -3.158  -5.694   4.917  0.00  0.00    +0.510 C 
ATOM     10  O   LIG    1       -3.982  -6.047   4.100  0.00  0.00    -0.540 OA
ATOM     11  C   LIG    1       -2.980  -6.474   6.194  0.00  0.00    +0.080 C 
ATOM     12  C   LIG    1       -1.532  -2.767   6.034  0.00  0.00    +0.020 C 
ENDBRANCH   2   4
BRANCH   1  14
ATOM     13  C   LIG    1       -5.061  -0.698   6.772  0.00  0.00    +0.140 C 
ATOM     14  C   LIG    1       -3.916  -1.092   6.223  0.00  0.00    -0.100 C 
ENDBRANCH   1  14
BRANCH   2  15
ATOM     15  C   LIG    1       -0.736   0.489   4.891  0.00  0.00    +0.330 C 
BRANCH  15  16
ATOM     16  C   LIG    1       -0.994   1.110   3.542  0.00  0.00    -0.140 A 
ATOM     17  C   LIG    1       -1.762   2.255   3.443  0.00  0.00    +0.070 A 
ATOM     18  C   LIG    1       -1.999   2.821   2.207  0.00  0.00    -0.020 A 
ATOM     19  C   LIG    1       -1.467   2.244   1.059  0.00  0.00    +0.140 A 
ATOM     20  O   LIG    1       -1.726   2.828  -0.140  0.00  0.00    -0.310 OA
ATOM     21  C   LIG    1       -0.899   2.471  -1.248  0.00  0.00    +0.110 C 
ATOM     22  C   LIG    1       -0.814   0.941  -1.315  0.00  0.00    +0.010 C 
ATOM     23  C   LIG    1       -0.096   0.444  -0.057  0.00  0.00    +0.080 C 
ATOM     24  C   LIG    1       -1.512   3.010  -2.543  0.00  0.00    +0.080 C 
ATOM     25  C   LIG    1        0.501   3.057  -1.057  0.00  0.00    +0.030 C 
ATOM     26  C   LIG    1       -0.697   1.099   1.161  0.00  0.00    -0.160 A 
ATOM     27  C   LIG    1       -0.463   0.534   2.404  0.00  0.00    +0.050 A 
ENDBRANCH  15  16
ENDBRANCH   2  15
TORSDOF 4
