REMARK  Name = ZINCtV00001bB3QX.0
REMARK                            x       y       z     vdW  Elec       q    Type
REMARK                         _______ _______ _______ _____ _____    ______ ____
ROOT
ATOM      1  C   LIG    1       -2.355   5.595  -0.400  0.00  0.00    -0.140 C 
ATOM      2  C   LIG    1       -1.400   6.285   0.315  0.00  0.00    +0.270 C 
ENDROOT
BRANCH   2   3
ATOM      3  C   LIG    1       -1.533   7.730   0.510  0.00  0.00    -0.140 A 
ATOM      4  C   LIG    1       -0.392   8.521   0.710  0.00  0.00    +0.130 A 
ATOM      5  C   LIG    1       -0.522   9.879   0.887  0.00  0.00    -0.060 A 
ATOM      6  C   LIG    1       -1.782  10.467   0.879  0.00  0.00    +0.170 A 
ATOM      7  C   LIG    1       -2.920   9.686   0.688  0.00  0.00    -0.070 A 
ATOM      8 CL   LIG    1       -4.489  10.429   0.680  0.00  0.00    -0.040 Cl
ATOM      9  C   LIG    1       -2.801   8.328   0.504  0.00  0.00    +0.110 A 
BRANCH   6  10
ATOM     10  O   LIG    1       -1.905  11.806   1.060  0.00  0.00    -0.290 OA
BRANCH  10  11
ATOM     11  C   LIG    1       -0.698  12.548   1.251  0.00  0.00    +0.260 C 
BRANCH  11  12
ATOM     12  C   LIG    1       -1.029  14.007   1.434  0.00  0.00    -0.100 A 
ATOM     13  C   LIG    1       -1.090  14.844   0.336  0.00  0.00    +0.030 A 
ATOM     14  C   LIG    1       -1.398  16.181   0.503  0.00  0.00    +0.010 A 
ATOM     15  C   LIG    1       -1.634  16.683   1.769  0.00  0.00    +0.020 A 
ATOM     16  C   LIG    1       -1.568  15.847   2.868  0.00  0.00    +0.010 A 
ATOM     17  C   LIG    1       -1.265  14.508   2.700  0.00  0.00    +0.030 A 
ENDBRANCH  11  12
ENDBRANCH  10  11
ENDBRANCH   6  10
ENDBRANCH   2   3
BRANCH   1  18
ATOM     18  C   LIG    1       -2.318   4.126  -0.449  0.00  0.00    +0.580 C 
ATOM     19  N   LIG    1       -3.252   3.451  -1.149  0.00  0.00    -0.670 N 
ATOM     20  H   LIG    1       -3.901   3.935  -1.683  0.00  0.00    +0.410 HD
ATOM     21  O   LIG    1       -1.444   3.519   0.141  0.00  0.00    -0.500 OA
BRANCH  19  22
ATOM     22  C   LIG    1       -3.286   2.054  -1.104  0.00  0.00    +0.180 A 
ATOM     23  C   LIG    1       -2.751   1.379  -0.015  0.00  0.00    +0.030 A 
ATOM     24  C   LIG    1       -2.786  -0.001   0.027  0.00  0.00    +0.060 A 
ATOM     25  C   LIG    1       -3.353  -0.711  -1.016  0.00  0.00    +0.000 A 
ATOM     26  C   LIG    1       -3.886  -0.043  -2.102  0.00  0.00    +0.070 A 
ATOM     27  C   LIG    1       -3.856   1.337  -2.150  0.00  0.00    -0.140 A 
ATOM     28  I   LIG    1       -4.664   2.349  -3.796  0.00  0.00    -0.040 I 
ENDBRANCH  19  22
ENDBRANCH   1  18
BRANCH   1  30
ATOM     29  N   LIG    1       -4.200   6.876  -1.645  0.00  0.00    -0.390 NA
ATOM     30  C   LIG    1       -3.384   6.310  -1.094  0.00  0.00    +0.230 C 
ENDBRANCH   1  30
TORSDOF 7
