REMARK  Name = ZINCrg000000qDRa.0
REMARK                            x       y       z     vdW  Elec       q    Type
REMARK                         _______ _______ _______ _____ _____    ______ ____
ROOT
ATOM      1  N   LIG    1       -1.974   2.548   3.429  0.00  0.00    -0.650 N 
ATOM      2  H   LIG    1       -1.972   1.590   3.277  0.00  0.00    +0.420 HD
ATOM      3  C   LIG    1       -2.508   3.050   4.560  0.00  0.00    +0.500 C 
ATOM      4  O   LIG    1       -2.602   4.250   4.706  0.00  0.00    -0.500 OA
ENDROOT
BRANCH   1  12
ATOM      5  C   LIG    1       -1.341   3.015   1.139  0.00  0.00    +0.110 A 
ATOM      6  C   LIG    1       -0.800   3.873   0.196  0.00  0.00    -0.030 A 
ATOM      7  C   LIG    1       -0.338   5.120   0.580  0.00  0.00    -0.010 A 
ATOM      8  C   LIG    1       -0.413   5.511   1.905  0.00  0.00    -0.090 A 
ATOM      9  C   LIG    1       -0.951   4.659   2.851  0.00  0.00    +0.080 A 
ATOM     10  C   LIG    1        0.093   6.870   2.317  0.00  0.00    +0.100 C 
ATOM     11 CL   LIG    1        0.339   6.195  -0.604  0.00  0.00    -0.060 Cl
ATOM     12  C   LIG    1       -1.422   3.411   2.472  0.00  0.00    +0.130 A 
BRANCH   5  14
ATOM     13  C   LIG    1       -1.685   1.453  -0.621  0.00  0.00    +0.260 C 
ATOM     14  O   LIG    1       -1.795   1.789   0.763  0.00  0.00    -0.320 OA
ENDBRANCH   5  14
ENDBRANCH   1  12
BRANCH   3  15
ATOM     15  C   LIG    1       -2.987   2.119   5.644  0.00  0.00    +0.370 C 
BRANCH  15  16
ATOM     16  N   LIG    1       -3.521   2.903   6.761  0.00  0.00    -0.400 N 
ATOM     17  C   LIG    1       -2.855   3.269   7.873  0.00  0.00    +0.510 A 
ATOM     18  N   LIG    1       -3.644   3.965   8.651  0.00  0.00    -0.490 NA
ATOM     19  C   LIG    1       -4.851   4.074   8.090  0.00  0.00    +0.320 A 
ATOM     20  N   LIG    1       -6.036   4.683   8.471  0.00  0.00    -0.510 N 
ATOM     21  C   LIG    1       -6.114   5.398   9.747  0.00  0.00    +0.350 C 
ATOM     22  C   LIG    1       -7.116   4.619   7.670  0.00  0.00    +0.710 A 
ATOM     23  O   LIG    1       -8.147   5.160   8.020  0.00  0.00    -0.530 OA
ATOM     24  N   LIG    1       -7.083   3.972   6.492  0.00  0.00    -0.550 N 
ATOM     25  C   LIG    1       -8.287   3.932   5.657  0.00  0.00    +0.350 C 
ATOM     26  C   LIG    1       -5.959   3.359   6.067  0.00  0.00    +0.600 A 
ATOM     27  O   LIG    1       -5.942   2.776   4.997  0.00  0.00    -0.510 OA
ATOM     28  C   LIG    1       -4.803   3.402   6.875  0.00  0.00    -0.140 A 
ENDBRANCH  15  16
ENDBRANCH   3  15
TORSDOF 4
