REMARK  Name = ZINCvU0000000I3y.0
REMARK                            x       y       z     vdW  Elec       q    Type
REMARK                         _______ _______ _______ _____ _____    ______ ____
ROOT
ATOM      1  C   LIG    1       -0.559   1.985   1.356  0.00  0.00    +0.510 C 
ATOM      2  N   LIG    1       -0.671   3.306   1.597  0.00  0.00    -0.640 N 
ATOM      3  H   LIG    1       -0.417   3.947   0.914  0.00  0.00    +0.420 HD
ATOM      4  O   LIG    1       -0.876   1.184   2.210  0.00  0.00    -0.450 OA
ENDROOT
BRANCH   2   5
ATOM      5  C   LIG    1       -1.149   3.751   2.824  0.00  0.00    +0.270 A 
ATOM      6  N   LIG    1       -1.514   2.982   3.802  0.00  0.00    -0.470 NA
ATOM      7  C   LIG    1       -1.944   3.575   4.899  0.00  0.00    +0.250 A 
ATOM      8  C   LIG    1       -1.944   4.909   4.846  0.00  0.00    -0.230 A 
ATOM      9  S   LIG    1       -1.335   5.392   3.265  0.00  0.00    +0.120 S 
BRANCH   8  10
ATOM     10  C   LIG    1       -2.382   5.838   5.949  0.00  0.00    +0.190 C 
BRANCH  10  11
ATOM     11  C   LIG    1       -1.202   6.168   6.826  0.00  0.00    -0.090 A 
ATOM     12  C   LIG    1       -0.918   5.380   7.926  0.00  0.00    +0.050 A 
ATOM     13  C   LIG    1        0.167   5.678   8.728  0.00  0.00    -0.010 A 
ATOM     14  C   LIG    1        0.963   6.773   8.437  0.00  0.00    +0.100 A 
ATOM     15  C   LIG    1        0.674   7.565   7.338  0.00  0.00    -0.010 A 
ATOM     16  F   LIG    1        2.020   7.069   9.224  0.00  0.00    -0.140 F 
ATOM     17  C   LIG    1       -0.408   7.261   6.534  0.00  0.00    +0.050 A 
ENDBRANCH  10  11
ENDBRANCH   8  10
ENDBRANCH   2   5
BRANCH   1  18
ATOM     18  C   LIG    1       -0.041   1.502   0.026  0.00  0.00    +0.130 C 
BRANCH  18  22
ATOM     19  C   LIG    1        0.035  -2.771  -0.011  0.00  0.00    +0.160 A 
ATOM     20  C   LIG    1       -1.099  -2.091  -0.436  0.00  0.00    +0.020 A 
ATOM     21  C   LIG    1       -1.121  -0.710  -0.422  0.00  0.00    +0.050 A 
ATOM     22  C   LIG    1       -0.014  -0.004   0.013  0.00  0.00    -0.090 A 
ATOM     23  C   LIG    1        1.118  -0.678   0.433  0.00  0.00    +0.050 A 
ATOM     24  C   LIG    1        1.144  -2.059   0.427  0.00  0.00    -0.010 A 
BRANCH  19  26
ATOM     25  C   LIG    1       -0.609  -4.847  -0.977  0.00  0.00    +0.650 C 
ATOM     26  N   LIG    1        0.060  -4.170  -0.023  0.00  0.00    -0.650 N 
ATOM     27  H   LIG    1        0.559  -4.652   0.654  0.00  0.00    +0.420 HD
ATOM     28  O   LIG    1       -1.153  -4.245  -1.882  0.00  0.00    -0.550 OA
BRANCH  25  29
ATOM     29  O   LIG    1       -0.674  -6.191  -0.929  0.00  0.00    -0.360 OA
BRANCH  29  31
ATOM     30  C   LIG    1       -0.772  -6.522  -3.339  0.00  0.00    +0.030 C 
ATOM     31  C   LIG    1       -1.411  -6.854  -1.990  0.00  0.00    +0.140 C 
ATOM     32  C   LIG    1       -2.863  -6.372  -1.980  0.00  0.00    +0.030 C 
ATOM     33  C   LIG    1       -1.375  -8.368  -1.766  0.00  0.00    +0.080 C 
ENDBRANCH  29  31
ENDBRANCH  25  29
ENDBRANCH  19  26
ENDBRANCH  18  22
ENDBRANCH   1  18
TORSDOF 8
