REMARK  Name = ZINCnE000008JhIy.0
REMARK                            x       y       z     vdW  Elec       q    Type
REMARK                         _______ _______ _______ _____ _____    ______ ____
ROOT
ATOM      1  C   LIG    1       -2.502   3.861   0.046  0.00  0.00    +0.270 C 
ATOM      2  C   LIG    1       -3.685   3.162  -0.050  0.00  0.00    -0.130 C 
ATOM      3  N   LIG    1       -4.943   3.676  -0.139  0.00  0.00    -0.420 NA
ATOM      4  C   LIG    1       -5.802   2.696  -0.217  0.00  0.00    +0.290 C 
ATOM      5  O   LIG    1       -5.190   1.497  -0.177  0.00  0.00    -0.290 OA
ATOM      6  C   LIG    1       -3.858   1.693  -0.073  0.00  0.00    +0.470 C 
ATOM      7  O   LIG    1       -2.989   0.846  -0.011  0.00  0.00    -0.400 OA
ENDROOT
BRANCH   4   8
ATOM      8  C   LIG    1       -7.262   2.880  -0.329  0.00  0.00    -0.000 A 
ATOM      9  C   LIG    1       -8.105   1.768  -0.401  0.00  0.00    +0.060 A 
ATOM     10  C   LIG    1       -9.469   1.947  -0.504  0.00  0.00    +0.030 A 
ATOM     11  C   LIG    1      -10.003   3.223  -0.537  0.00  0.00    +0.050 A 
ATOM     12  C   LIG    1       -9.174   4.329  -0.466  0.00  0.00    +0.040 A 
ATOM     13  C   LIG    1       -7.808   4.166  -0.356  0.00  0.00    -0.050 A 
ATOM     14 BR   LIG    1       -6.678   5.679  -0.252  0.00  0.00    -0.000 Br
ENDBRANCH   4   8
BRANCH   1  18
ATOM     15  C   LIG    1        1.193   1.814  -0.212  0.00  0.00    -0.090 A 
ATOM     16  C   LIG    1        0.117   1.416  -1.012  0.00  0.00    +0.030 A 
ATOM     17  C   LIG    1       -1.075   2.079  -0.933  0.00  0.00    +0.050 A 
ATOM     18  C   LIG    1       -1.222   3.152  -0.043  0.00  0.00    -0.140 A 
ATOM     19  C   LIG    1       -0.142   3.550   0.757  0.00  0.00    +0.030 A 
ATOM     20  C   LIG    1        1.050   2.888   0.672  0.00  0.00    +0.030 A 
BRANCH  15  22
ATOM     21  O   LIG    1        2.607   0.161  -1.075  0.00  0.00    -0.680 OA
ATOM     22  C   LIG    1        2.481   1.100  -0.302  0.00  0.00    +0.520 C 
ATOM     23  O   LIG    1        3.423   1.448   0.396  0.00  0.00    -0.680 OA
ENDBRANCH  15  22
ENDBRANCH   1  18
TORSDOF 3
