REMARK  Name = ZINCtV000002BwGe.0
REMARK                            x       y       z     vdW  Elec       q    Type
REMARK                         _______ _______ _______ _____ _____    ______ ____
ROOT
ATOM      1  N   LIG    1        2.244   3.886  -0.028  0.00  0.00    -0.480 N 
ATOM      2  C   LIG    1        3.410   3.222   0.098  0.00  0.00    +0.520 C 
ATOM      3  O   LIG    1        4.450   3.836   0.206  0.00  0.00    -0.450 OA
ENDROOT
BRANCH   1   4
ATOM      4  C   LIG    1        2.242   5.270  -0.125  0.00  0.00    +0.340 A 
ATOM      5  N   LIG    1        3.297   6.003  -0.206  0.00  0.00    -0.470 NA
ATOM      6  C   LIG    1        3.134   7.337  -0.295  0.00  0.00    +0.110 A 
ATOM      7  C   LIG    1        4.118   8.344  -0.394  0.00  0.00    +0.070 A 
ATOM      8  C   LIG    1        3.755   9.664  -0.478  0.00  0.00    +0.040 A 
ATOM      9  C   LIG    1        2.418  10.032  -0.466  0.00  0.00    +0.030 A 
ATOM     10  C   LIG    1        1.440   9.067  -0.370  0.00  0.00    +0.060 A 
ATOM     11  C   LIG    1        1.789   7.722  -0.285  0.00  0.00    -0.180 A 
ATOM     12  S   LIG    1        0.797   6.271  -0.163  0.00  0.00    +0.080 S 
ENDBRANCH   1   4
BRANCH   1  17
ATOM     13  C   LIG    1       -0.905   2.429  -1.256  0.00  0.00    +0.150 A 
ATOM     14  C   LIG    1       -1.352   1.775  -0.117  0.00  0.00    -0.050 A 
ATOM     15  C   LIG    1       -0.612   1.831   1.049  0.00  0.00    +0.080 A 
ATOM     16  C   LIG    1        0.580   2.528   1.080  0.00  0.00    -0.010 A 
ATOM     17  C   LIG    1        1.035   3.180  -0.059  0.00  0.00    +0.140 A 
ATOM     18  C   LIG    1        0.291   3.129  -1.229  0.00  0.00    +0.000 A 
BRANCH  13  20
ATOM     19  C   LIG    1       -2.859   1.637  -2.357  0.00  0.00    +0.240 C 
ATOM     20  O   LIG    1       -1.637   2.377  -2.401  0.00  0.00    -0.310 OA
ENDBRANCH  13  20
ENDBRANCH   1  17
BRANCH   2  21
ATOM     21  C   LIG    1        3.421   1.715   0.102  0.00  0.00    +0.080 C 
BRANCH  21  22
ATOM     22  C   LIG    1        4.868   1.216   0.101  0.00  0.00    +0.050 C 
ATOM     23  C   LIG    1        5.547   1.621  -1.209  0.00  0.00    +0.030 C 
BRANCH  22  24
ATOM     24  C   LIG    1        4.881  -0.286   0.230  0.00  0.00    -0.080 A 
ATOM     25  C   LIG    1        4.253  -1.067  -0.723  0.00  0.00    +0.010 A 
ATOM     26  C   LIG    1        4.269  -2.444  -0.607  0.00  0.00    +0.000 A 
ATOM     27  C   LIG    1        4.906  -3.040   0.465  0.00  0.00    +0.000 A 
ATOM     28  C   LIG    1        5.529  -2.259   1.420  0.00  0.00    +0.000 A 
ATOM     29  C   LIG    1        5.517  -0.882   1.303  0.00  0.00    +0.010 A 
ENDBRANCH  22  24
ENDBRANCH  21  22
ENDBRANCH   2  21
TORSDOF 6
