REMARK  Name = ZINCpk00000kOmUu.0
REMARK                            x       y       z     vdW  Elec       q    Type
REMARK                         _______ _______ _______ _____ _____    ______ ____
ROOT
ATOM      1  C   LIG    1        0.461   6.301  -3.009  0.00  0.00    +0.620 C 
ATOM      2  N   LIG    1        1.241   5.740  -2.064  0.00  0.00    -0.710 N 
ATOM      3  H   LIG    1        2.137   5.444  -2.287  0.00  0.00    +0.410 HD
ATOM      4  O   LIG    1       -0.663   6.673  -2.728  0.00  0.00    -0.510 OA
ENDROOT
BRANCH   1   7
ATOM      5  C   LIG    1       -1.107   7.551  -5.414  0.00  0.00    +0.180 C 
ATOM      6  C   LIG    1        0.298   7.006  -5.433  0.00  0.00    +0.090 A 
ATOM      7  C   LIG    1        0.968   6.465  -4.376  0.00  0.00    -0.130 A 
ATOM      8  O   LIG    1        2.189   6.101  -4.834  0.00  0.00    -0.190 OA
ATOM      9  C   LIG    1        2.249   6.422  -6.130  0.00  0.00    +0.230 A 
ATOM     10  N   LIG    1        1.117   6.967  -6.489  0.00  0.00    -0.480 NA
BRANCH   9  11
ATOM     11  C   LIG    1        3.433   6.193  -7.033  0.00  0.00    +0.210 C 
BRANCH  11  12
ATOM     12  C   LIG    1        4.350   7.417  -6.992  0.00  0.00    -0.050 C 
ATOM     13  C   LIG    1        4.533   8.206  -8.290  0.00  0.00    +0.030 C 
ATOM     14  C   LIG    1        5.673   7.334  -7.757  0.00  0.00    +0.030 C 
ENDBRANCH  11  12
ENDBRANCH   9  11
ENDBRANCH   1   7
BRANCH   2  15
ATOM     15  C   LIG    1        0.735   5.577  -0.699  0.00  0.00    +0.260 C 
ATOM     16  C   LIG    1        1.052   6.828   0.142  0.00  0.00    +0.170 C 
ATOM     17  N   LIG    1        1.940   6.397   1.243  0.00  0.00    -0.520 NA
ATOM     18  C   LIG    1        1.656   4.955   1.452  0.00  0.00    +0.190 C 
ATOM     19  C   LIG    1        1.677   7.169   2.465  0.00  0.00    +0.180 C 
ATOM     20  C   LIG    1        1.470   4.417   0.011  0.00  0.00    +0.080 C 
BRANCH  20  21
ATOM     21  C   LIG    1        0.623   3.170   0.012  0.00  0.00    -0.020 A 
ATOM     22  C   LIG    1       -0.722   3.114   0.024  0.00  0.00    +0.160 A 
ATOM     23  N   LIG    1       -1.083   1.822   0.017  0.00  0.00    -0.490 NA
ATOM     24  C   LIG    1       -0.013   1.076   0.008  0.00  0.00    +0.400 A 
ATOM     25  N   LIG    1        1.074   1.878   0.002  0.00  0.00    -0.460 N 
ATOM     26  C   LIG    1        2.474   1.445  -0.013  0.00  0.00    +0.330 C 
ENDBRANCH  20  21
ENDBRANCH   2  15
TORSDOF 5
