REMARK  Name = ZINCvU00000006jf.0
REMARK                            x       y       z     vdW  Elec       q    Type
REMARK                         _______ _______ _______ _____ _____    ______ ____
ROOT
ATOM      1  N   LIG    1       -2.071  -1.183   0.826  0.00  0.00    -0.670 N 
ATOM      2  H   LIG    1       -2.924  -0.904   1.195  0.00  0.00    +0.410 HD
ATOM      3  C   LIG    1       -1.968  -2.364   0.185  0.00  0.00    +0.530 C 
ATOM      4  O   LIG    1       -0.886  -2.751  -0.203  0.00  0.00    -0.490 OA
ENDROOT
BRANCH   1   9
ATOM      5  C   LIG    1        0.036   1.836   1.031  0.00  0.00    -0.110 A 
ATOM      6  C   LIG    1        1.292   1.261   1.228  0.00  0.00    +0.050 A 
ATOM      7  C   LIG    1        1.420  -0.112   1.290  0.00  0.00    +0.040 A 
ATOM      8  C   LIG    1        0.308  -0.922   1.157  0.00  0.00    +0.050 A 
ATOM      9  C   LIG    1       -0.948  -0.359   0.960  0.00  0.00    +0.140 A 
ATOM     10  C   LIG    1       -1.087   1.019   0.897  0.00  0.00    +0.020 A 
BRANCH   5  12
ATOM     11  N   LIG    1       -0.947   3.863   0.071  0.00  0.00    -0.610 N 
ATOM     12  C   LIG    1       -0.105   3.306   0.964  0.00  0.00    +0.560 C 
ATOM     13  O   LIG    1        0.539   4.013   1.715  0.00  0.00    -0.530 OA
BRANCH  11  15
ATOM     14  C   LIG    1        0.019   5.744  -1.158  0.00  0.00    +0.020 C 
ATOM     15  C   LIG    1       -0.989   5.319  -0.088  0.00  0.00    +0.280 C 
ENDBRANCH  11  15
BRANCH  11  16
ATOM     16  C   LIG    1       -1.821   3.012  -0.740  0.00  0.00    +0.270 C 
ATOM     17  C   LIG    1       -3.210   2.952  -0.102  0.00  0.00    +0.020 C 
ENDBRANCH  11  16
ENDBRANCH   5  12
ENDBRANCH   1   9
BRANCH   3  18
ATOM     18  C   LIG    1       -3.197  -3.204  -0.049  0.00  0.00    +0.090 C 
BRANCH  18  19
ATOM     19  S   LIG    1       -2.733  -4.721  -0.928  0.00  0.00    -0.140 S 
BRANCH  19  20
ATOM     20  C   LIG    1       -4.318  -5.585  -1.114  0.00  0.00    +0.110 C 
BRANCH  20  21
ATOM     21  C   LIG    1       -4.082  -6.941  -1.728  0.00  0.00    -0.060 A 
ATOM     22  C   LIG    1       -3.385  -7.049  -2.917  0.00  0.00    +0.030 A 
ATOM     23  C   LIG    1       -3.164  -8.293  -3.478  0.00  0.00    +0.010 A 
ATOM     24  C   LIG    1       -3.649  -9.428  -2.855  0.00  0.00    +0.010 A 
ATOM     25  C   LIG    1       -4.350  -9.319  -1.669  0.00  0.00    +0.010 A 
ATOM     26  C   LIG    1       -4.566  -8.076  -1.105  0.00  0.00    +0.020 A 
ENDBRANCH  20  21
BRANCH  20  27
ATOM     27  C   LIG    1       -5.227  -4.781  -2.007  0.00  0.00    -0.090 A 
ATOM     28  C   LIG    1       -4.771  -4.330  -3.232  0.00  0.00    +0.030 A 
ATOM     29  C   LIG    1       -5.607  -3.596  -4.053  0.00  0.00    +0.000 A 
ATOM     30  C   LIG    1       -6.894  -3.304  -3.644  0.00  0.00    +0.000 A 
ATOM     31  C   LIG    1       -7.348  -3.750  -2.417  0.00  0.00    +0.000 A 
ATOM     32  C   LIG    1       -6.515  -4.488  -1.599  0.00  0.00    +0.010 A 
ENDBRANCH  20  27
ENDBRANCH  19  20
ENDBRANCH  18  19
ENDBRANCH   3  18
TORSDOF 9
