REMARK  Name = ZINCkj000005lqxx.0
REMARK                            x       y       z     vdW  Elec       q    Type
REMARK                         _______ _______ _______ _____ _____    ______ ____
ROOT
ATOM      1  C   LIG    1        2.146  -1.565   0.399  0.00  0.00    +0.190 C 
ATOM      2  C   LIG    1        3.628  -1.081   0.415  0.00  0.00    +0.060 C 
ATOM      3  C   LIG    1        3.566   0.481   0.449  0.00  0.00    +0.080 C 
ATOM      4  C   LIG    1        2.220   0.728  -0.194  0.00  0.00    +0.000 C 
ATOM      5  C   LIG    1        1.395   1.970  -0.001  0.00  0.00    +0.300 C 
ATOM      6  N   LIG    1       -0.018   1.493   0.010  0.00  0.00    -1.020 NA
ATOM      7  C   LIG    1        0.002  -0.004   0.002  0.00  0.00    +0.320 C 
ATOM      8  C   LIG    1        1.347  -0.310   0.614  0.00  0.00    -0.060 C 
ENDROOT
BRANCH   1   9
ATOM      9  N   LIG    1        1.905  -2.521   1.487  0.00  0.00    -0.640 N 
ATOM     10  H   LIG    1        2.177  -2.106   2.366  0.00  0.00    +0.430 HD
ATOM     11  H   LIG    1        2.447  -3.356   1.327  0.00  0.00    +0.440 HD
ATOM     12  H   LIG    1        0.924  -2.757   1.517  0.00  0.00    +0.440 HD
ENDBRANCH   1   9
BRANCH   6  13
ATOM     13  S   LIG    1       -1.370   2.449   0.022  0.00  0.00    +2.620 S 
ATOM     14  O   LIG    1       -2.374   1.645  -0.583  0.00  0.00    -0.930 OA
ATOM     15  O   LIG    1       -0.945   3.665  -0.579  0.00  0.00    -0.930 OA
BRANCH  13  16
ATOM     16  C   LIG    1       -1.731   2.701   1.782  0.00  0.00    -0.290 C 
BRANCH  16  17
ATOM     17  C   LIG    1       -2.956   3.567   1.925  0.00  0.00    -0.140 A 
ATOM     18  C   LIG    1       -2.826   4.941   1.998  0.00  0.00    +0.060 A 
ATOM     19  C   LIG    1       -3.950   5.737   2.122  0.00  0.00    +0.020 A 
ATOM     20  C   LIG    1       -5.204   5.158   2.187  0.00  0.00    +0.070 A 
ATOM     21  C   LIG    1       -5.335   3.784   2.119  0.00  0.00    +0.000 A 
ATOM     22  C   LIG    1       -4.211   2.987   1.988  0.00  0.00    +0.110 A 
ATOM     23  F   LIG    1       -4.339   1.643   1.923  0.00  0.00    -0.130 F 
ENDBRANCH  16  17
ENDBRANCH  13  16
ENDBRANCH   6  13
TORSDOF 4
