REMARK  Name = ZINCrg000000obBH.0
REMARK                            x       y       z     vdW  Elec       q    Type
REMARK                         _______ _______ _______ _____ _____    ______ ____
ROOT
ATOM      1  N   LIG    1       -0.729   1.575  -1.178  0.00  0.00    -0.990 NA
ATOM      2  C   LIG    1       -0.013   1.086   0.008  0.00  0.00    +0.300 C 
ATOM      3  C   LIG    1       -0.736   1.583   1.264  0.00  0.00    +0.050 C 
ATOM      4  C   LIG    1       -2.208   1.161   1.197  0.00  0.00    -0.010 C 
ATOM      5  C   LIG    1       -2.869   1.797  -0.028  0.00  0.00    +0.060 C 
ATOM      6  C   LIG    1       -2.168   1.303  -1.297  0.00  0.00    +0.290 C 
ENDROOT
BRANCH   4   7
ATOM      7  C   LIG    1       -2.918   1.619   2.445  0.00  0.00    +0.520 C 
ATOM      8  N   LIG    1       -2.506   1.183   3.652  0.00  0.00    -0.730 N 
ATOM      9  H   LIG    1       -1.753   0.575   3.718  0.00  0.00    +0.400 HD
ATOM     10  O   LIG    1       -3.860   2.379   2.363  0.00  0.00    -0.530 OA
BRANCH   8  11
ATOM     11  C   LIG    1       -3.196   1.628   4.866  0.00  0.00    +0.260 C 
BRANCH  11  12
ATOM     12  C   LIG    1       -2.535   0.992   6.090  0.00  0.00    +0.030 C 
BRANCH  12  13
ATOM     13  C   LIG    1       -3.256   1.457   7.358  0.00  0.00    +0.160 C 
BRANCH  13  14
ATOM     14  O   LIG    1       -2.639   0.863   8.501  0.00  0.00    -0.390 OA
ATOM     15  C   LIG    1       -3.239   1.233   9.744  0.00  0.00    +0.200 C 
ENDBRANCH  13  14
ENDBRANCH  12  13
ENDBRANCH  11  12
ENDBRANCH   8  11
ENDBRANCH   4   7
BRANCH   1  16
ATOM     16  S   LIG    1        0.071   2.417  -2.359  0.00  0.00    +2.710 S 
ATOM     17  O   LIG    1        1.220   2.980  -1.741  0.00  0.00    -0.930 OA
ATOM     18  O   LIG    1       -0.910   3.195  -3.031  0.00  0.00    -0.920 OA
BRANCH  16  22
ATOM     19  C   LIG    1        1.962  -0.208  -4.541  0.00  0.00    -0.010 A 
ATOM     20  C   LIG    1        0.812  -0.118  -5.274  0.00  0.00    +0.050 A 
ATOM     21  C   LIG    1       -0.014   0.805  -4.617  0.00  0.00    +0.080 A 
ATOM     22  C   LIG    1        0.661   1.240  -3.530  0.00  0.00    -0.550 A 
ATOM     23  O   LIG    1        1.850   0.626  -3.486  0.00  0.00    -0.090 OA
BRANCH  19  24
ATOM     24  C   LIG    1        3.115  -1.058  -4.848  0.00  0.00    +0.550 C 
ATOM     25  O   LIG    1        3.099  -1.771  -5.833  0.00  0.00    -0.470 OA
BRANCH  24  26
ATOM     26  O   LIG    1        4.193  -1.051  -4.037  0.00  0.00    -0.340 OA
BRANCH  26  28
ATOM     27  C   LIG    1        6.420  -1.777  -3.373  0.00  0.00    +0.070 C 
ATOM     28  C   LIG    1        5.298  -1.919  -4.402  0.00  0.00    +0.220 C 
ENDBRANCH  26  28
ENDBRANCH  24  26
ENDBRANCH  19  24
ENDBRANCH  16  22
ENDBRANCH   1  16
TORSDOF 10
