REMARK  Name = ZINCrg000015x4MZ.0
REMARK                            x       y       z     vdW  Elec       q    Type
REMARK                         _______ _______ _______ _____ _____    ______ ____
ROOT
ATOM      1  N   LIG    1       -2.664   2.915   4.685  0.00  0.00    -0.640 N 
ATOM      2  H   LIG    1       -2.724   2.334   5.460  0.00  0.00    +0.430 HD
ENDROOT
BRANCH   1  11
ATOM      3  C   LIG    1       -5.583   3.751   5.521  0.00  0.00    -0.260 A 
ATOM      4  C   LIG    1       -6.564   4.708   5.784  0.00  0.00    +0.290 A 
ATOM      5  N   LIG    1       -6.059   5.915   5.602  0.00  0.00    -0.530 NA
ATOM      6  C   LIG    1       -4.788   5.878   5.229  0.00  0.00    +0.280 A 
ATOM      7  N   LIG    1       -3.850   6.840   4.925  0.00  0.00    -0.540 N 
ATOM      8  H   LIG    1       -4.085   7.780   4.969  0.00  0.00    +0.430 HD
ATOM      9  C   LIG    1       -2.608   6.474   4.569  0.00  0.00    +0.620 A 
ATOM     10  N   LIG    1       -2.235   5.222   4.499  0.00  0.00    -0.540 NA
ATOM     11  C   LIG    1       -3.080   4.221   4.771  0.00  0.00    +0.500 A 
ATOM     12  C   LIG    1       -4.393   4.524   5.149  0.00  0.00    -0.190 A 
BRANCH   3  16
ATOM     13  N   LIG    1       -6.910   1.738   5.865  0.00  0.00    -0.850 N 
ATOM     14  H   LIG    1       -7.012   0.774   5.846  0.00  0.00    +0.400 HD
ATOM     15  H   LIG    1       -7.671   2.302   6.075  0.00  0.00    +0.400 HD
ATOM     16  C   LIG    1       -5.712   2.295   5.599  0.00  0.00    +0.600 C 
ATOM     17  O   LIG    1       -4.738   1.587   5.424  0.00  0.00    -0.560 OA
ENDBRANCH   3  16
ENDBRANCH   1  11
BRANCH   1  18
ATOM     18  C   LIG    1       -2.153   2.422   3.481  0.00  0.00    +0.210 A 
ATOM     19  C   LIG    1       -1.607   1.146   3.427  0.00  0.00    -0.030 A 
ATOM     20  C   LIG    1       -1.103   0.661   2.235  0.00  0.00    +0.070 A 
ATOM     21  C   LIG    1       -1.143   1.446   1.097  0.00  0.00    -0.160 A 
ATOM     22  C   LIG    1       -1.681   2.718   1.148  0.00  0.00    +0.040 A 
ATOM     23  C   LIG    1       -2.191   3.207   2.335  0.00  0.00    -0.040 A 
BRANCH  21  24
ATOM     24  C   LIG    1       -0.593   0.914  -0.202  0.00  0.00    +0.310 C 
ATOM     25  C   LIG    1        0.810   1.482  -0.432  0.00  0.00    +0.100 C 
ATOM     26  C   LIG    1        0.699   2.935  -0.818  0.00  0.00    +0.530 C 
ATOM     27  N   LIG    1       -0.345   3.357  -1.555  0.00  0.00    -0.680 N 
ATOM     28  H   LIG    1       -0.377   4.279  -1.854  0.00  0.00    +0.430 HD
ATOM     29  C   LIG    1       -1.343   2.520  -1.882  0.00  0.00    +0.710 C 
ATOM     30  O   LIG    1       -2.152   2.862  -2.722  0.00  0.00    -0.560 OA
ATOM     31  O   LIG    1        1.550   3.723  -0.464  0.00  0.00    -0.490 OA
ATOM     32  N   LIG    1       -1.469   1.315  -1.303  0.00  0.00    -0.720 N 
ATOM     33  H   LIG    1       -2.150   0.701  -1.620  0.00  0.00    +0.430 HD
ENDBRANCH  21  24
ENDBRANCH   1  18
TORSDOF 4
