REMARK  Name = ZINCrH000004jJT2.0
REMARK                            x       y       z     vdW  Elec       q    Type
REMARK                         _______ _______ _______ _____ _____    ______ ____
ROOT
ATOM      1  C   LIG    1       -3.414  -2.541   0.025  0.00  0.00    +0.150 A 
ATOM      2  C   LIG    1       -3.568  -1.173   0.217  0.00  0.00    +0.020 A 
ATOM      3  C   LIG    1       -2.465  -0.346   0.217  0.00  0.00    +0.070 A 
ATOM      4  C   LIG    1       -1.193  -0.883   0.025  0.00  0.00    -0.030 A 
ATOM      5  C   LIG    1       -1.041  -2.255  -0.173  0.00  0.00    +0.050 A 
ATOM      6  C   LIG    1       -2.147  -3.078  -0.168  0.00  0.00    -0.020 A 
ENDROOT
BRANCH   4   7
ATOM      7  C   LIG    1       -0.004   0.004   0.024  0.00  0.00    +0.100 A 
ATOM      8  C   LIG    1        1.288  -0.393  -0.152  0.00  0.00    +0.100 A 
ATOM      9  N   LIG    1        2.065   0.730  -0.083  0.00  0.00    -0.360 N 
ATOM     10  C   LIG    1        3.412   0.924  -0.188  0.00  0.00    +0.210 A 
ATOM     11  C   LIG    1        3.939   2.161  -0.080  0.00  0.00    +0.010 A 
ATOM     12  C   LIG    1        3.106   3.270   0.144  0.00  0.00    +0.040 A 
ATOM     13  C   LIG    1        1.762   3.091   0.251  0.00  0.00    +0.070 A 
ATOM     14  C   LIG    1        1.226   1.792   0.136  0.00  0.00    +0.230 A 
ATOM     15  N   LIG    1       -0.016   1.335   0.197  0.00  0.00    -0.480 NA
ENDBRANCH   4   7
BRANCH   1  17
ATOM     16  C   LIG    1       -5.710  -2.927  -0.455  0.00  0.00    +0.570 C 
ATOM     17  N   LIG    1       -4.534  -3.377   0.025  0.00  0.00    -0.670 N 
ATOM     18  H   LIG    1       -4.465  -4.280   0.370  0.00  0.00    +0.410 HD
ATOM     19  O   LIG    1       -5.776  -1.830  -0.975  0.00  0.00    -0.520 OA
BRANCH  16  23
ATOM     20  C   LIG    1       -9.109  -5.366  -0.118  0.00  0.00    +0.430 A 
ATOM     21  C   LIG    1       -9.245  -4.119  -0.724  0.00  0.00    -0.110 A 
ATOM     22  C   LIG    1       -8.149  -3.307  -0.844  0.00  0.00    +0.180 A 
ATOM     23  C   LIG    1       -6.919  -3.766  -0.348  0.00  0.00    -0.260 A 
ATOM     24  C   LIG    1       -6.855  -5.029   0.242  0.00  0.00    +0.350 A 
ATOM     25  N   LIG    1       -7.934  -5.776   0.343  0.00  0.00    -0.550 NA
BRANCH  20  27
ATOM     26  C   LIG    1      -11.492  -5.796  -0.596  0.00  0.00    +0.310 C 
ATOM     27  N   LIG    1      -10.215  -6.190   0.006  0.00  0.00    -0.610 N 
ATOM     28  C   LIG    1      -10.109  -7.455   0.737  0.00  0.00    +0.290 C 
ENDBRANCH  20  27
ENDBRANCH  16  23
ENDBRANCH   1  17
TORSDOF 4
