REMARK  Name = ZINCvU0000000HNl.0
REMARK                            x       y       z     vdW  Elec       q    Type
REMARK                         _______ _______ _______ _____ _____    ______ ____
ROOT
ATOM      1  C   LIG    1        0.962   0.419   2.584  0.00  0.00    +0.300 C 
ATOM      2  N   LIG    1       -0.242   1.246   2.466  0.00  0.00    -0.610 N 
ATOM      3  C   LIG    1       -0.718   1.572   1.248  0.00  0.00    +0.540 C 
ATOM      4  O   LIG    1       -1.714   2.256   1.150  0.00  0.00    -0.510 OA
ENDROOT
BRANCH   3   5
ATOM      5  C   LIG    1       -0.013   1.086   0.008  0.00  0.00    +0.110 C 
BRANCH   5   6
ATOM      6  S   LIG    1       -0.888   1.685  -1.458  0.00  0.00    +0.090 S 
BRANCH   6   7
ATOM      7  C   LIG    1        0.122   0.990  -2.724  0.00  0.00    +0.150 A 
ATOM      8  N   LIG    1        1.195   0.253  -2.550  0.00  0.00    -0.290 NA
ATOM      9  N   LIG    1        1.683  -0.085  -3.689  0.00  0.00    -0.280 NA
ATOM     10  C   LIG    1        0.959   0.411  -4.652  0.00  0.00    +0.400 A 
ATOM     11  N   LIG    1       -0.066   1.111  -4.073  0.00  0.00    -0.420 N 
BRANCH  11  12
ATOM     12  C   LIG    1       -1.093   1.808  -4.727  0.00  0.00    +0.060 A 
ATOM     13  C   LIG    1       -2.021   1.120  -5.495  0.00  0.00    +0.070 A 
ATOM     14  C   LIG    1       -3.032   1.809  -6.138  0.00  0.00    +0.030 A 
ATOM     15  C   LIG    1       -3.120   3.183  -6.017  0.00  0.00    +0.080 A 
ATOM     16  C   LIG    1       -2.197   3.874  -5.253  0.00  0.00    +0.010 A 
ATOM     17  C   LIG    1       -1.186   3.190  -4.602  0.00  0.00    +0.120 A 
ATOM     18  F   LIG    1       -0.288   3.863  -3.851  0.00  0.00    -0.120 F 
ENDBRANCH  11  12
ENDBRANCH   6   7
ENDBRANCH   5   6
ENDBRANCH   3   5
BRANCH   2  19
ATOM     19  C   LIG    1       -0.927   1.718   3.671  0.00  0.00    +0.420 C 
BRANCH  19  20
ATOM     20  C   LIG    1       -1.967   0.709   4.086  0.00  0.00    -0.020 A 
ATOM     21  C   LIG    1       -1.766  -0.326   4.924  0.00  0.00    -0.040 A 
ATOM     22  C   LIG    1       -2.993  -1.011   5.036  0.00  0.00    -0.040 A 
ATOM     23  C   LIG    1       -3.884  -0.348   4.252  0.00  0.00    +0.030 A 
ATOM     24  O   LIG    1       -3.249   0.696   3.686  0.00  0.00    -0.150 OA
BRANCH  23  25
ATOM     25  C   LIG    1       -5.304  -0.707   4.059  0.00  0.00    -0.010 A 
ATOM     26  C   LIG    1       -5.840  -1.821   4.708  0.00  0.00    +0.050 A 
ATOM     27  C   LIG    1       -7.168  -2.148   4.528  0.00  0.00    +0.030 A 
ATOM     28  C   LIG    1       -7.966  -1.381   3.696  0.00  0.00    -0.030 A 
ATOM     29  C   LIG    1       -7.439  -0.279   3.044  0.00  0.00    +0.030 A 
ATOM     30 CL   LIG    1       -9.635  -1.804   3.469  0.00  0.00    -0.060 Cl
ATOM     31  C   LIG    1       -6.114   0.062   3.221  0.00  0.00    +0.050 A 
ENDBRANCH  23  25
ENDBRANCH  19  20
ENDBRANCH   2  19
TORSDOF 7
