REMARK  Name = ZINCvU0000000FoB.1
REMARK                            x       y       z     vdW  Elec       q    Type
REMARK                         _______ _______ _______ _____ _____    ______ ____
ROOT
ATOM      1  O   LIG    1       -0.881   8.304   0.056  0.00  0.00    -0.330 OA
ENDROOT
BRANCH   1   2
ATOM      2  C   LIG    1       -1.493   9.506   0.069  0.00  0.00    +0.540 C 
ATOM      3  O   LIG    1       -2.707   9.570   0.080  0.00  0.00    -0.470 OA
BRANCH   2   9
ATOM      4  C   LIG    1        1.872  14.812   0.068  0.00  0.00    +0.180 A 
ATOM      5  C   LIG    1        0.559  15.281   0.083  0.00  0.00    -0.040 A 
ATOM      6  C   LIG    1       -0.486  14.413   0.088  0.00  0.00    +0.140 A 
ATOM      7  C   LIG    1       -0.262  13.015   0.077  0.00  0.00    -0.120 A 
ATOM      8  C   LIG    1       -1.204  11.974   0.074  0.00  0.00    +0.060 A 
ATOM      9  C   LIG    1       -0.695  10.735   0.068  0.00  0.00    -0.240 A 
ATOM     10  S   LIG    1        1.059  10.786   0.052  0.00  0.00    +0.260 S 
ATOM     11 CL   LIG    1       -2.914  12.273   0.084  0.00  0.00    -0.000 Cl
ATOM     12  C   LIG    1        1.058  12.546   0.062  0.00  0.00    -0.090 A 
ATOM     13  C   LIG    1        2.121  13.454   0.057  0.00  0.00    -0.060 A 
ATOM     14 CL   LIG    1        3.757  12.873   0.038  0.00  0.00    -0.030 Cl
BRANCH   4  16
ATOM     15  C   LIG    1        2.577  17.082   0.075  0.00  0.00    +0.250 C 
ATOM     16  O   LIG    1        2.908  15.692   0.064  0.00  0.00    -0.290 OA
ENDBRANCH   4  16
ENDBRANCH   2   9
ENDBRANCH   1   2
BRANCH   1  17
ATOM     17  C   LIG    1       -1.734   7.129   0.058  0.00  0.00    +0.310 C 
BRANCH  17  18
ATOM     18  C   LIG    1       -0.880   5.888   0.043  0.00  0.00    +0.520 C 
ATOM     19  N   LIG    1       -1.460   4.671   0.041  0.00  0.00    -0.610 N 
ATOM     20  H   LIG    1       -2.426   4.595   0.050  0.00  0.00    +0.430 HD
ATOM     21  O   LIG    1        0.329   5.984   0.032  0.00  0.00    -0.430 OA
BRANCH  19  22
ATOM     22  C   LIG    1       -0.674   3.530   0.028  0.00  0.00    +0.390 A 
ATOM     23  N   LIG    1        0.636   3.490   0.015  0.00  0.00    -0.260 NA
ATOM     24  N   LIG    1        1.028   2.264   0.004  0.00  0.00    -0.250 NA
ATOM     25  C   LIG    1       -0.018   1.474   0.010  0.00  0.00    +0.210 A 
ATOM     26  O   LIG    1       -1.117   2.259   0.019  0.00  0.00    -0.230 OA
BRANCH  25  27
ATOM     27  C   LIG    1        0.002  -0.004   0.002  0.00  0.00    -0.020 A 
ATOM     28  C   LIG    1       -1.195  -0.722   0.015  0.00  0.00    +0.040 A 
ATOM     29  C   LIG    1       -1.170  -2.101   0.002  0.00  0.00    +0.010 A 
ATOM     30  C   LIG    1        0.040  -2.773  -0.013  0.00  0.00    +0.040 A 
ATOM     31  C   LIG    1        1.230  -2.068  -0.020  0.00  0.00    +0.020 A 
ATOM     32  C   LIG    1        1.219  -0.689  -0.013  0.00  0.00    +0.070 A 
ENDBRANCH  25  27
ENDBRANCH  19  22
ENDBRANCH  17  18
ENDBRANCH   1  17
TORSDOF 7
