REMARK  Name = ZINCrD00000F5Lyq.0
REMARK                            x       y       z     vdW  Elec       q    Type
REMARK                         _______ _______ _______ _____ _____    ______ ____
ROOT
ATOM      1  C   LIG    1       -3.037   3.096   1.458  0.00  0.00    +0.270 A 
ATOM      2  C   LIG    1       -3.766   3.710   0.447  0.00  0.00    -0.090 A 
ATOM      3  C   LIG    1       -4.814   4.550   0.766  0.00  0.00    +0.170 A 
ATOM      4  C   LIG    1       -5.132   4.788   2.091  0.00  0.00    -0.730 A 
ATOM      5  C   LIG    1       -4.405   4.183   3.100  0.00  0.00    +0.170 A 
ATOM      6  C   LIG    1       -3.358   3.338   2.787  0.00  0.00    -0.080 A 
ENDROOT
BRANCH   4   7
ATOM      7  S   LIG    1       -6.466   5.866   2.494  0.00  0.00    +2.700 S 
ATOM      8  O   LIG    1       -6.900   5.499   3.797  0.00  0.00    -0.950 OA
ATOM      9  O   LIG    1       -7.327   5.880   1.364  0.00  0.00    -0.950 OA
BRANCH   7  10
ATOM     10  N   LIG    1       -5.840   7.394   2.624  0.00  0.00    -1.050 N 
ATOM     11  H   LIG    1       -5.909   7.877   3.462  0.00  0.00    +0.430 HD
BRANCH  10  12
ATOM     12  C   LIG    1       -5.212   7.989   1.523  0.00  0.00    +0.120 A 
ATOM     13  C   LIG    1       -5.684   7.750   0.241  0.00  0.00    +0.060 A 
ATOM     14  C   LIG    1       -5.065   8.342  -0.844  0.00  0.00    +0.020 A 
ATOM     15  C   LIG    1       -3.968   9.164  -0.654  0.00  0.00    +0.120 A 
ATOM     16  C   LIG    1       -3.490   9.399   0.624  0.00  0.00    -0.020 A 
ATOM     17  F   LIG    1       -3.362   9.737  -1.717  0.00  0.00    -0.130 F 
ATOM     18  C   LIG    1       -4.109   8.814   1.713  0.00  0.00    +0.110 A 
ATOM     19  F   LIG    1       -3.642   9.044   2.960  0.00  0.00    -0.120 F 
ENDBRANCH  10  12
ENDBRANCH   7  10
ENDBRANCH   4   7
BRANCH   1  20
ATOM     20  N   LIG    1       -1.978   2.242   1.138  0.00  0.00    -0.730 N 
ATOM     21  H   LIG    1       -1.467   1.818   1.844  0.00  0.00    +0.410 HD
BRANCH  20  22
ATOM     22  C   LIG    1       -1.640   1.988  -0.265  0.00  0.00    +0.420 C 
BRANCH  22  25
ATOM     23  C   LIG    1        1.490   0.251  -0.434  0.00  0.00    +0.190 A 
ATOM     24  N   LIG    1        0.830   1.382  -0.367  0.00  0.00    -0.470 NA
ATOM     25  C   LIG    1       -0.471   1.040  -0.336  0.00  0.00    +0.150 A 
ATOM     26  N   LIG    1       -0.534  -0.257  -0.384  0.00  0.00    -0.360 NA
ATOM     27  O   LIG    1        0.582  -0.729  -0.441  0.00  0.00    +0.090 OA
BRANCH  23  29
ATOM     28  C   LIG    1        3.543  -0.023   0.930  0.00  0.00    +0.050 C 
ATOM     29  C   LIG    1        2.987   0.088  -0.491  0.00  0.00    +0.190 C 
ENDBRANCH  23  29
ENDBRANCH  22  25
ENDBRANCH  20  22
ENDBRANCH   1  20
TORSDOF 7
