REMARK  Name = ZINCrH000004kRaK.0
REMARK                            x       y       z     vdW  Elec       q    Type
REMARK                         _______ _______ _______ _____ _____    ______ ____
ROOT
ATOM      1  N   LIG    1       -0.017   1.396   0.010  0.00  0.00    -0.670 N 
ATOM      2  H   LIG    1       -0.879   1.841   0.021  0.00  0.00    +0.420 HD
ATOM      3  C   LIG    1        1.117   2.124   0.004  0.00  0.00    +0.520 C 
ATOM      4  O   LIG    1        2.192   1.572  -0.101  0.00  0.00    -0.500 OA
ENDROOT
BRANCH   1   7
ATOM      5  C   LIG    1        1.115  -2.034  -0.731  0.00  0.00    -0.150 A 
ATOM      6  C   LIG    1        1.050  -0.640  -0.721  0.00  0.00    +0.120 A 
ATOM      7  C   LIG    1        0.049  -0.003  -0.006  0.00  0.00    +0.120 A 
ATOM      8  C   LIG    1       -0.894  -0.750   0.689  0.00  0.00    +0.070 A 
ATOM      9  C   LIG    1       -0.836  -2.130   0.677  0.00  0.00    +0.000 A 
ATOM     10  C   LIG    1        0.161  -2.778  -0.028  0.00  0.00    +0.150 A 
ATOM     11  F   LIG    1        0.215  -4.128  -0.037  0.00  0.00    -0.110 F 
BRANCH   5  12
ATOM     12  C   LIG    1        2.182  -2.721  -1.485  0.00  0.00    +0.510 C 
ATOM     13  O   LIG    1        2.233  -3.935  -1.496  0.00  0.00    -0.490 OA
BRANCH  12  15
ATOM     14  C   LIG    1        4.119  -2.744  -2.880  0.00  0.00    +0.290 C 
ATOM     15  O   LIG    1        3.099  -2.002  -2.161  0.00  0.00    -0.350 OA
ENDBRANCH  12  15
ENDBRANCH   5  12
ENDBRANCH   1   7
BRANCH   3  16
ATOM     16  C   LIG    1        1.050   3.625   0.126  0.00  0.00    +0.190 C 
BRANCH  16  17
ATOM     17  C   LIG    1        2.445   4.194   0.093  0.00  0.00    +0.000 A 
ATOM     18  C   LIG    1        3.118   4.580  -1.007  0.00  0.00    -0.020 A 
ATOM     19  O   LIG    1        4.323   5.028  -0.603  0.00  0.00    -0.190 OA
ATOM     20  C   LIG    1        4.374   4.912   0.736  0.00  0.00    +0.240 A 
ATOM     21  C   LIG    1        2.616   4.522  -2.427  0.00  0.00    +0.190 C 
ATOM     22  N   LIG    1        3.235   4.413   1.155  0.00  0.00    -0.460 NA
BRANCH  20  23
ATOM     23  C   LIG    1        5.519   5.288   1.591  0.00  0.00    -0.020 A 
ATOM     24  C   LIG    1        5.444   5.122   2.975  0.00  0.00    +0.070 A 
ATOM     25  C   LIG    1        6.518   5.471   3.768  0.00  0.00    +0.010 A 
ATOM     26  C   LIG    1        7.663   5.994   3.195  0.00  0.00    +0.030 A 
ATOM     27  C   LIG    1        7.742   6.166   1.824  0.00  0.00    +0.010 A 
ATOM     28  C   LIG    1        6.677   5.817   1.020  0.00  0.00    +0.040 A 
ENDBRANCH  20  23
ENDBRANCH  16  17
ENDBRANCH   3  16
TORSDOF 6
