REMARK  Name = ZINCvU00000007gL.0
REMARK                            x       y       z     vdW  Elec       q    Type
REMARK                         _______ _______ _______ _____ _____    ______ ____
ROOT
ATOM      1  N   LIG    1       -0.785   5.310  -1.672  0.00  0.00    -0.660 N 
ATOM      2  H   LIG    1       -1.057   5.633  -0.799  0.00  0.00    +0.420 HD
ATOM      3  C   LIG    1       -0.845   3.993  -1.952  0.00  0.00    +0.720 C 
ATOM      4  N   LIG    1       -1.390   3.139  -1.063  0.00  0.00    -0.630 N 
ATOM      5  C   LIG    1       -1.552   1.713  -1.383  0.00  0.00    +0.330 C 
ATOM      6  C   LIG    1       -0.675   0.882  -0.442  0.00  0.00    +0.280 C 
ATOM      7  N   LIG    1       -0.859   1.352   0.939  0.00  0.00    -0.470 N 
ATOM      8  C   LIG    1       -1.381   2.583   1.276  0.00  0.00    +0.050 A 
ATOM      9  C   LIG    1       -1.414   2.726   2.610  0.00  0.00    -0.020 A 
ATOM     10  C   LIG    1       -0.880   1.499   3.177  0.00  0.00    -0.110 A 
ATOM     11  C   LIG    1       -0.675   1.081   4.496  0.00  0.00    +0.020 A 
ATOM     12  C   LIG    1       -0.137  -0.183   4.672  0.00  0.00    -0.010 A 
ATOM     13  C   LIG    1        0.183  -0.997   3.598  0.00  0.00    +0.040 A 
ATOM     14  C   LIG    1       -0.011  -0.602   2.286  0.00  0.00    +0.000 A 
ATOM     15 CL   LIG    1       -1.074   2.097   5.846  0.00  0.00    -0.050 Cl
ATOM     16  C   LIG    1       -0.551   0.666   2.079  0.00  0.00    +0.120 A 
ATOM     17  C   LIG    1       -1.843   3.606   0.260  0.00  0.00    +0.380 C 
ATOM     18  O   LIG    1       -0.406   3.575  -3.006  0.00  0.00    -0.560 OA
ENDROOT
BRANCH   1  23
ATOM     19  C   LIG    1       -0.433   9.283  -4.707  0.00  0.00    +0.160 C 
ATOM     20  C   LIG    1       -0.152   7.977  -4.008  0.00  0.00    +0.110 A 
ATOM     21  N   LIG    1        0.870   7.195  -4.231  0.00  0.00    -0.280 NA
ATOM     22  N   LIG    1        0.784   6.083  -3.385  0.00  0.00    -0.350 N 
ATOM     23  C   LIG    1       -0.335   6.206  -2.637  0.00  0.00    +0.340 A 
ATOM     24  C   LIG    1        1.741   4.976  -3.323  0.00  0.00    +0.360 C 
ATOM     25  C   LIG    1       -0.946   7.392  -3.003  0.00  0.00    -0.220 A 
BRANCH  25  26
ATOM     26  C   LIG    1       -2.203   7.943  -2.443  0.00  0.00    +0.020 A 
ATOM     27  C   LIG    1       -3.409   7.272  -2.638  0.00  0.00    +0.030 A 
ATOM     28  C   LIG    1       -4.575   7.786  -2.109  0.00  0.00    +0.040 A 
ATOM     29  C   LIG    1       -4.551   8.973  -1.397  0.00  0.00    -0.090 A 
ATOM     30  C   LIG    1       -3.357   9.647  -1.206  0.00  0.00    +0.040 A 
ATOM     31 BR   LIG    1       -6.155   9.676  -0.683  0.00  0.00    -0.050 Br
ATOM     32  C   LIG    1       -2.184   9.138  -1.725  0.00  0.00    +0.030 A 
ENDBRANCH  25  26
ENDBRANCH   1  23
TORSDOF 2
