REMARK  Name = ZINCrH000004uJBu.0
REMARK                            x       y       z     vdW  Elec       q    Type
REMARK                         _______ _______ _______ _____ _____    ______ ____
ROOT
ATOM      1  O   LIG    1        1.062  -0.597  -0.055  0.00  0.00    -0.510 OA
ATOM      2  C   LIG    1        0.002  -0.004   0.002  0.00  0.00    +0.690 C 
ATOM      3  N   LIG    1       -1.156  -0.694   0.009  0.00  0.00    -0.620 N 
ATOM      4  C   LIG    1       -2.504  -0.110   0.136  0.00  0.00    +0.240 C 
ATOM      5  C   LIG    1       -3.449  -1.154  -0.516  0.00  0.00    +0.040 C 
ATOM      6  C   LIG    1       -2.789  -2.487  -0.074  0.00  0.00    +0.030 C 
ATOM      7  C   LIG    1       -1.285  -2.152  -0.101  0.00  0.00    +0.190 C 
ATOM      8  C   LIG    1       -0.588  -2.829   1.078  0.00  0.00    +0.000 C 
ATOM      9  C   LIG    1        0.906  -2.498   1.047  0.00  0.00    +0.000 C 
ATOM     10  C   LIG    1        1.510  -2.993  -0.268  0.00  0.00    -0.010 C 
ATOM     11  C   LIG    1        0.816  -2.300  -1.443  0.00  0.00    +0.000 C 
ATOM     12  C   LIG    1       -0.678  -2.632  -1.418  0.00  0.00    +0.000 C 
ATOM     13  N   LIG    1       -0.015   1.342   0.058  0.00  0.00    -0.740 N 
ATOM     14  H   LIG    1       -0.861   1.815   0.099  0.00  0.00    +0.400 HD
ENDROOT
BRANCH  13  15
ATOM     15  C   LIG    1        1.243   2.092   0.050  0.00  0.00    +0.430 C 
BRANCH  15  16
ATOM     16  C   LIG    1        0.949   3.568   0.120  0.00  0.00    +0.130 A 
ATOM     17  N   LIG    1        0.771   4.371  -0.898  0.00  0.00    -0.210 NA
ATOM     18  N   LIG    1        0.536   5.567  -0.487  0.00  0.00    -0.270 NA
ATOM     19  C   LIG    1        0.561   5.593   0.835  0.00  0.00    +0.210 A 
ATOM     20  C   LIG    1        0.378   6.613   1.788  0.00  0.00    +0.110 A 
ATOM     21  C   LIG    1        0.469   6.311   3.111  0.00  0.00    +0.100 A 
ATOM     22  C   LIG    1        0.741   4.990   3.507  0.00  0.00    -0.190 A 
ATOM     23  C   LIG    1        0.914   4.022   2.583  0.00  0.00    +0.330 A 
ATOM     24  N   LIG    1        0.826   4.312   1.253  0.00  0.00    -0.390 N 
BRANCH  22  25
ATOM     25  C   LIG    1        0.842   4.653   4.973  0.00  0.00    +0.520 C 
ATOM     26  F   LIG    1        0.548   3.298   5.161  0.00  0.00    -0.170 F 
ATOM     27  F   LIG    1       -0.069   5.432   5.694  0.00  0.00    -0.160 F 
ATOM     28  F   LIG    1        2.139   4.916   5.424  0.00  0.00    -0.170 F 
ENDBRANCH  22  25
ENDBRANCH  15  16
ENDBRANCH  13  15
TORSDOF 3
