REMARK  Name = ZINCqH0000001MNe.0
REMARK                            x       y       z     vdW  Elec       q    Type
REMARK                         _______ _______ _______ _____ _____    ______ ____
ROOT
ATOM      1  C   LIG    1        1.918   4.772   4.038  0.00  0.00    -0.130 A 
ATOM      2  C   LIG    1        3.037   4.278   3.365  0.00  0.00    +0.080 A 
ATOM      3  C   LIG    1        2.917   3.844   2.061  0.00  0.00    +0.040 A 
ATOM      4  C   LIG    1        1.692   3.898   1.420  0.00  0.00    -0.090 A 
ATOM      5  C   LIG    1        0.580   4.391   2.080  0.00  0.00    +0.040 A 
ATOM      6  C   LIG    1        0.685   4.823   3.386  0.00  0.00    +0.040 A 
ENDROOT
BRANCH   1   9
ATOM      7  N   LIG    1        0.957   5.715   6.082  0.00  0.00    -0.670 N 
ATOM      8  H   LIG    1        0.115   5.814   5.612  0.00  0.00    +0.410 HD
ATOM      9  C   LIG    1        2.039   5.239   5.435  0.00  0.00    +0.560 C 
ATOM     10  O   LIG    1        3.114   5.193   6.000  0.00  0.00    -0.510 OA
BRANCH   7  15
ATOM     11  C   LIG    1        2.305   6.971   9.264  0.00  0.00    -0.060 A 
ATOM     12  C   LIG    1        1.229   6.760  10.105  0.00  0.00    -0.010 A 
ATOM     13  C   LIG    1        0.062   6.204   9.614  0.00  0.00    +0.030 A 
ATOM     14  C   LIG    1       -0.033   5.861   8.280  0.00  0.00    -0.030 A 
ATOM     15  C   LIG    1        1.048   6.066   7.433  0.00  0.00    +0.140 A 
ATOM     16  C   LIG    1        2.219   6.625   7.929  0.00  0.00    +0.020 A 
BRANCH  11  18
ATOM     17  C   LIG    1        3.275   8.966  10.373  0.00  0.00    +0.040 C 
ATOM     18  C   LIG    1        3.575   7.578   9.803  0.00  0.00    +0.020 C 
ATOM     19  C   LIG    1        4.139   6.684  10.908  0.00  0.00    +0.040 C 
ENDBRANCH  11  18
ENDBRANCH   7  15
ENDBRANCH   1   9
BRANCH   4  20
ATOM     20  C   LIG    1        1.569   3.423  -0.005  0.00  0.00    +0.360 C 
BRANCH  20  21
ATOM     21  N   LIG    1        1.238   1.996  -0.017  0.00  0.00    -0.570 N 
ATOM     22  C   LIG    1       -0.022   1.544  -0.013  0.00  0.00    +0.530 C 
ATOM     23  C   LIG    1       -0.008   0.031  -0.029  0.00  0.00    +0.080 C 
ATOM     24  C   LIG    1        1.494  -0.317  -0.043  0.00  0.00    +0.080 C 
ATOM     25  O   LIG    1       -1.016   2.237  -0.004  0.00  0.00    -0.480 OA
ATOM     26  C   LIG    1        2.172   1.036  -0.034  0.00  0.00    +0.530 C 
ATOM     27  O   LIG    1        3.370   1.221  -0.040  0.00  0.00    -0.480 OA
ENDBRANCH  20  21
ENDBRANCH   4  20
TORSDOF 5
