REMARK  Name = ZINCvU00000007pv.0
REMARK                            x       y       z     vdW  Elec       q    Type
REMARK                         _______ _______ _______ _____ _____    ______ ____
ROOT
ATOM      1  C   LIG    1       -2.744   3.709   0.024  0.00  0.00    -0.220 A 
ATOM      2  C   LIG    1       -2.562   2.921   1.105  0.00  0.00    +0.240 A 
ATOM      3  N   LIG    1       -1.956   1.778   0.692  0.00  0.00    -0.320 N 
ATOM      4  N   LIG    1       -1.753   1.869  -0.691  0.00  0.00    -0.260 NA
ATOM      5  C   LIG    1       -2.231   3.028  -1.100  0.00  0.00    +0.160 A 
ENDROOT
BRANCH   3   6
ATOM      6  C   LIG    1       -1.591   0.698   1.507  0.00  0.00    +0.160 A 
ATOM      7  C   LIG    1       -1.841   0.743   2.872  0.00  0.00    -0.010 A 
ATOM      8  C   LIG    1       -1.475  -0.321   3.674  0.00  0.00    +0.040 A 
ATOM      9  C   LIG    1       -0.861  -1.428   3.119  0.00  0.00    +0.000 A 
ATOM     10  C   LIG    1       -0.611  -1.475   1.760  0.00  0.00    +0.040 A 
ATOM     11  C   LIG    1       -0.975  -0.415   0.953  0.00  0.00    +0.020 A 
ENDBRANCH   3   6
BRANCH   5  12
ATOM     12  C   LIG    1       -2.225   3.528  -2.491  0.00  0.00    -0.130 A 
ATOM     13  C   LIG    1       -1.212   3.378  -3.368  0.00  0.00    +0.040 A 
ATOM     14  C   LIG    1       -1.439   3.932  -4.611  0.00  0.00    +0.010 A 
ATOM     15  C   LIG    1       -2.624   4.530  -4.757  0.00  0.00    -0.040 A 
ATOM     16  S   LIG    1       -3.541   4.404  -3.261  0.00  0.00    +0.150 S 
ENDBRANCH   5  12
BRANCH   1  17
ATOM     17  C   LIG    1       -3.382   5.074   0.018  0.00  0.00    +0.370 C 
BRANCH  17  19
ATOM     18  C   LIG    1       -5.115   4.956   1.726  0.00  0.00    +0.510 C 
ATOM     19  N   LIG    1       -3.891   5.381   1.357  0.00  0.00    -0.620 N 
ATOM     20  C   LIG    1       -3.069   6.150   2.295  0.00  0.00    +0.270 C 
ATOM     21  O   LIG    1       -5.758   4.242   0.986  0.00  0.00    -0.520 OA
BRANCH  18  22
ATOM     22  C   LIG    1       -5.686   5.368   3.059  0.00  0.00    +0.060 C 
BRANCH  22  23
ATOM     23  C   LIG    1       -7.077   4.754   3.230  0.00  0.00    +0.100 C 
BRANCH  23  29
ATOM     24  C   LIG    1       -8.308   6.380   4.689  0.00  0.00    +0.130 A 
ATOM     25  C   LIG    1       -8.837   6.754   5.916  0.00  0.00    -0.080 A 
ATOM     26  C   LIG    1       -8.696   5.922   7.010  0.00  0.00    +0.040 A 
ATOM     27  C   LIG    1       -8.033   4.716   6.882  0.00  0.00    -0.040 A 
ATOM     28  C   LIG    1       -7.509   4.339   5.659  0.00  0.00    +0.050 A 
ATOM     29  C   LIG    1       -7.647   5.166   4.562  0.00  0.00    -0.120 A 
BRANCH  24  31
ATOM     30  C   LIG    1       -9.132   8.433   3.817  0.00  0.00    +0.250 C 
ATOM     31  O   LIG    1       -8.440   7.199   3.613  0.00  0.00    -0.310 OA
ENDBRANCH  24  31
ENDBRANCH  23  29
ENDBRANCH  22  23
ENDBRANCH  18  22
ENDBRANCH  17  19
ENDBRANCH   1  17
TORSDOF 8
