REMARK  Name = ZINCrH000004qnd0.0
REMARK                            x       y       z     vdW  Elec       q    Type
REMARK                         _______ _______ _______ _____ _____    ______ ____
ROOT
ATOM      1  C   LIG    1       -2.833  -4.017   0.123  0.00  0.00    +0.420 C 
ATOM      2  O   LIG    1       -2.038  -4.909  -0.089  0.00  0.00    -0.450 OA
ENDROOT
BRANCH   1   6
ATOM      3  C   LIG    1       -2.825   1.077   0.271  0.00  0.00    +0.150 C 
ATOM      4  C   LIG    1       -2.415  -0.366   0.128  0.00  0.00    +0.010 A 
ATOM      5  C   LIG    1       -3.226  -1.425   0.285  0.00  0.00    +0.030 A 
ATOM      6  C   LIG    1       -2.400  -2.619   0.058  0.00  0.00    -0.260 A 
ATOM      7  C   LIG    1       -1.131  -2.154  -0.229  0.00  0.00    +0.150 A 
ATOM      8  C   LIG    1        0.074  -3.004  -0.538  0.00  0.00    +0.170 C 
ATOM      9  N   LIG    1       -1.159  -0.807  -0.187  0.00  0.00    -0.360 N 
BRANCH   9  10
ATOM     10  C   LIG    1       -0.062   0.020  -0.425  0.00  0.00    +0.220 A 
ATOM     11  N   LIG    1        1.114  -0.140   0.095  0.00  0.00    -0.470 NA
ATOM     12  C   LIG    1        2.039   0.738  -0.239  0.00  0.00    +0.240 A 
ATOM     13  C   LIG    1        1.625   1.688  -1.082  0.00  0.00    -0.060 A 
ATOM     14  S   LIG    1       -0.074   1.393  -1.443  0.00  0.00    +0.190 S 
ENDBRANCH   9  10
ENDBRANCH   1   6
BRANCH   1  15
ATOM     15  C   LIG    1       -4.266  -4.347   0.454  0.00  0.00    +0.330 C 
BRANCH  15  16
ATOM     16  N   LIG    1       -4.444  -5.801   0.457  0.00  0.00    -0.540 N 
ATOM     17  C   LIG    1       -4.253  -6.500   1.606  0.00  0.00    +0.590 A 
ATOM     18  N   LIG    1       -4.392  -7.788   1.690  0.00  0.00    -0.520 NA
ATOM     19  C   LIG    1       -4.743  -8.537   0.614  0.00  0.00    +0.160 A 
ATOM     20  C   LIG    1       -4.893  -9.922   0.704  0.00  0.00    +0.050 A 
ATOM     21  C   LIG    1       -5.250 -10.644  -0.413  0.00  0.00    +0.090 A 
ATOM     22  C   LIG    1       -5.464 -10.010  -1.631  0.00  0.00    -0.060 A 
ATOM     23  C   LIG    1       -5.322  -8.643  -1.744  0.00  0.00    +0.120 A 
ATOM     24 CL   LIG    1       -5.914 -10.947  -3.021  0.00  0.00    -0.060 Cl
ATOM     25  C   LIG    1       -4.961  -7.896  -0.625  0.00  0.00    -0.180 A 
ATOM     26  C   LIG    1       -4.801  -6.435  -0.684  0.00  0.00    +0.560 A 
ATOM     27  O   LIG    1       -4.979  -5.821  -1.720  0.00  0.00    -0.500 OA
ENDBRANCH  15  16
ENDBRANCH   1  15
TORSDOF 4
