REMARK  Name = ZINCpe000000TVJ6.0
REMARK                            x       y       z     vdW  Elec       q    Type
REMARK                         _______ _______ _______ _____ _____    ______ ____
ROOT
ATOM      1  N   LIG    1       -1.166  -2.484   2.161  0.00  0.00    -0.510 NA
ENDROOT
BRANCH   1   2
ATOM      2  C   LIG    1       -0.462  -2.232   3.425  0.00  0.00    +0.170 C 
ATOM      3  C   LIG    1       -1.310  -2.745   4.591  0.00  0.00    +0.040 C 
ENDBRANCH   1   2
BRANCH   1   4
ATOM      4  C   LIG    1       -1.147  -3.914   1.823  0.00  0.00    +0.240 C 
BRANCH   4   8
ATOM      5  C   LIG    1       -4.252  -4.756  -0.994  0.00  0.00    +0.100 A 
ATOM      6  C   LIG    1       -4.533  -4.723   0.361  0.00  0.00    -0.040 A 
ATOM      7  C   LIG    1       -3.526  -4.455   1.270  0.00  0.00    +0.040 A 
ATOM      8  C   LIG    1       -2.239  -4.210   0.829  0.00  0.00    -0.080 A 
ATOM      9  C   LIG    1       -1.952  -4.242  -0.524  0.00  0.00    -0.040 A 
ATOM     10  C   LIG    1       -2.955  -4.515  -1.439  0.00  0.00    +0.100 A 
BRANCH  10  11
ATOM     11  O   LIG    1       -2.673  -4.546  -2.769  0.00  0.00    -0.310 OA
ATOM     12  C   LIG    1       -1.321  -4.289  -3.152  0.00  0.00    +0.230 C 
ENDBRANCH  10  11
BRANCH   5  13
ATOM     13  O   LIG    1       -5.240  -5.025  -1.889  0.00  0.00    -0.310 OA
BRANCH  13  15
ATOM     14  C   LIG    1       -7.517  -5.545  -2.509  0.00  0.00    +0.070 C 
ATOM     15  C   LIG    1       -6.546  -5.263  -1.361  0.00  0.00    +0.170 C 
ENDBRANCH  13  15
ENDBRANCH   5  13
ENDBRANCH   4   8
ENDBRANCH   1   4
BRANCH   1  16
ATOM     16  C   LIG    1       -0.597  -1.679   1.072  0.00  0.00    +0.200 C 
BRANCH  16  17
ATOM     17  C   LIG    1       -0.855  -0.218   1.340  0.00  0.00    +0.520 C 
ATOM     18  N   LIG    1       -0.420   0.714   0.469  0.00  0.00    -0.620 N 
ATOM     19  C   LIG    1       -0.655   2.149   0.702  0.00  0.00    +0.300 C 
ATOM     20  C   LIG    1        0.704   2.842   0.821  0.00  0.00    +0.250 C 
ATOM     21  N   LIG    1        1.596   2.417  -0.249  0.00  0.00    -0.720 N 
ATOM     22  H   LIG    1        2.338   3.000  -0.476  0.00  0.00    +0.400 HD
ATOM     23  C   LIG    1        1.464   1.283  -0.939  0.00  0.00    +0.510 C 
ATOM     24  O   LIG    1        2.317   1.000  -1.754  0.00  0.00    -0.540 OA
ATOM     25  C   LIG    1        0.308   0.339  -0.752  0.00  0.00    +0.330 C 
ATOM     26  O   LIG    1       -1.453   0.118   2.340  0.00  0.00    -0.510 OA
ENDBRANCH  16  17
ENDBRANCH   1  16
TORSDOF 8
