REMARK  Name = ZINCqH0000008ly9.0
REMARK                            x       y       z     vdW  Elec       q    Type
REMARK                         _______ _______ _______ _____ _____    ______ ____
ROOT
ATOM      1  N   LIG    1        5.007   7.398  -0.007  0.00  0.00    -0.730 N 
ATOM      2  H   LIG    1        5.955   7.193  -0.017  0.00  0.00    +0.400 HD
ATOM      3  C   LIG    1        4.101   6.401  -0.003  0.00  0.00    +0.520 C 
ATOM      4  O   LIG    1        2.916   6.658   0.009  0.00  0.00    -0.530 OA
ENDROOT
BRANCH   1   6
ATOM      5  C   LIG    1        4.272   9.249  -1.427  0.00  0.00    +0.040 C 
ATOM      6  C   LIG    1        4.561   8.793   0.005  0.00  0.00    +0.280 C 
BRANCH   6   7
ATOM      7  C   LIG    1        5.640   9.661   0.600  0.00  0.00    -0.100 A 
ATOM      8  C   LIG    1        6.967   9.418   0.296  0.00  0.00    +0.040 A 
ATOM      9  C   LIG    1        7.957  10.214   0.836  0.00  0.00    +0.010 A 
ATOM     10  C   LIG    1        7.620  11.254   1.692  0.00  0.00    +0.150 A 
ATOM     11  C   LIG    1        6.288  11.493   1.999  0.00  0.00    +0.030 A 
ATOM     12  C   LIG    1        5.301  10.696   1.452  0.00  0.00    +0.060 A 
BRANCH  10  13
ATOM     13  N   LIG    1        8.624  12.062   2.245  0.00  0.00    -0.330 N 
ATOM     14  C   LIG    1        9.952  11.950   2.047  0.00  0.00    +0.480 A 
ATOM     15  N   LIG    1       10.545  12.891   2.736  0.00  0.00    -0.530 NA
ATOM     16  C   LIG    1        9.637  13.614   3.390  0.00  0.00    +0.440 A 
ATOM     17  N   LIG    1        8.446  13.145   3.122  0.00  0.00    -0.310 NA
ENDBRANCH  10  13
ENDBRANCH   6   7
ENDBRANCH   1   6
BRANCH   3  18
ATOM     18  C   LIG    1        4.561   4.965  -0.015  0.00  0.00    +0.090 C 
BRANCH  18  19
ATOM     19  C   LIG    1        3.342   4.040  -0.009  0.00  0.00    +0.100 C 
BRANCH  19  20
ATOM     20  S   LIG    1        3.896   2.312  -0.023  0.00  0.00    -0.090 S 
BRANCH  20  21
ATOM     21  C   LIG    1        2.381   1.411  -0.014  0.00  0.00    -0.120 A 
ATOM     22  C   LIG    1        1.169   2.088   0.002  0.00  0.00    +0.030 A 
ATOM     23  C   LIG    1       -0.017   1.378   0.010  0.00  0.00    +0.020 A 
ATOM     24  C   LIG    1        0.002  -0.004   0.002  0.00  0.00    +0.050 A 
ATOM     25  C   LIG    1        1.207  -0.683  -0.013  0.00  0.00    +0.000 A 
ATOM     26  C   LIG    1        2.398   0.019  -0.021  0.00  0.00    +0.110 A 
ATOM     27  F   LIG    1        3.575  -0.643  -0.037  0.00  0.00    -0.130 F 
ENDBRANCH  20  21
ENDBRANCH  19  20
ENDBRANCH  18  19
ENDBRANCH   3  18
TORSDOF 7
