REMARK  Name = ZINCqH0000051bA8.0
REMARK                            x       y       z     vdW  Elec       q    Type
REMARK                         _______ _______ _______ _____ _____    ______ ____
ROOT
ATOM      1  C   LIG    1       -6.081   2.935   0.030  0.00  0.00    +0.290 C 
ENDROOT
BRANCH   1   3
ATOM      2  O   LIG    1       -5.015   0.834   0.032  0.00  0.00    -0.480 OA
ATOM      3  C   LIG    1       -4.873   2.034   0.022  0.00  0.00    +0.470 C 
BRANCH   3   4
ATOM      4  O   LIG    1       -3.640   2.564   0.004  0.00  0.00    -0.350 OA
BRANCH   4   5
ATOM      5  C   LIG    1       -2.524   1.636  -0.003  0.00  0.00    +0.310 C 
BRANCH   5   6
ATOM      6  C   LIG    1       -1.230   2.407  -0.023  0.00  0.00    -0.100 A 
ATOM      7  C   LIG    1       -1.249   3.789  -0.027  0.00  0.00    +0.090 A 
ATOM      8  C   LIG    1       -0.063   4.498  -0.051  0.00  0.00    +0.000 A 
ATOM      9  C   LIG    1        1.146   3.824  -0.066  0.00  0.00    +0.120 A 
ATOM     10  C   LIG    1        1.166   2.439  -0.056  0.00  0.00    +0.010 A 
ATOM     11  F   LIG    1        2.306   4.516  -0.089  0.00  0.00    -0.130 F 
ATOM     12  C   LIG    1       -0.022   1.732  -0.032  0.00  0.00    -0.000 A 
ATOM     13 CL   LIG    1        0.002  -0.004  -0.021  0.00  0.00    -0.050 Cl
ENDBRANCH   5   6
ENDBRANCH   4   5
ENDBRANCH   3   4
ENDBRANCH   1   3
BRANCH   1  14
ATOM     14  O   LIG    1       -7.269   2.140   0.049  0.00  0.00    -0.290 OA
BRANCH  14  15
ATOM     15  C   LIG    1       -8.456   2.803   0.059  0.00  0.00    +0.100 A 
ATOM     16  C   LIG    1       -8.475   4.191   0.055  0.00  0.00    -0.050 A 
ATOM     17  C   LIG    1       -9.680   4.865   0.059  0.00  0.00    +0.050 A 
ATOM     18  C   LIG    1      -10.872   4.154   0.079  0.00  0.00    +0.130 A 
ATOM     19  C   LIG    1      -10.852   2.766   0.088  0.00  0.00    +0.020 A 
ATOM     20  C   LIG    1       -9.647   2.093   0.077  0.00  0.00    +0.030 A 
BRANCH  18  21
ATOM     21  N   LIG    1      -12.095   4.838   0.089  0.00  0.00    -0.560 N 
ATOM     22  C   LIG    1      -13.408   4.189  -0.012  0.00  0.00    +0.260 C 
ATOM     23  C   LIG    1      -14.395   5.314  -0.394  0.00  0.00    +0.060 C 
ATOM     24  C   LIG    1      -13.678   6.565   0.162  0.00  0.00    +0.070 C 
ATOM     25  C   LIG    1      -12.217   6.172   0.200  0.00  0.00    +0.520 C 
ATOM     26  O   LIG    1      -11.292   6.947   0.311  0.00  0.00    -0.510 OA
ENDBRANCH  18  21
ENDBRANCH  14  15
ENDBRANCH   1  14
TORSDOF 7
