REMARK  Name = ZINCpe000000YvTg.0
REMARK                            x       y       z     vdW  Elec       q    Type
REMARK                         _______ _______ _______ _____ _____    ______ ____
ROOT
ATOM      1  N   LIG    1       -2.380   3.849   0.033  0.00  0.00    -0.470 N 
ATOM      2  C   LIG    1       -3.240   3.447  -1.087  0.00  0.00    +0.200 C 
ATOM      3  C   LIG    1       -4.605   4.126  -0.953  0.00  0.00    +0.070 C 
ATOM      4  C   LIG    1       -4.417   5.645  -0.950  0.00  0.00    -0.020 C 
ATOM      5  C   LIG    1       -3.478   6.033   0.196  0.00  0.00    +0.050 C 
ATOM      6  C   LIG    1       -2.146   5.299   0.028  0.00  0.00    +0.230 C 
ENDROOT
BRANCH   4   7
ATOM      7  C   LIG    1       -5.751   6.318  -0.758  0.00  0.00    +0.520 C 
ATOM      8  N   LIG    1       -5.939   7.579  -1.195  0.00  0.00    -0.610 N 
ATOM      9  C   LIG    1       -4.887   8.275  -1.947  0.00  0.00    +0.260 C 
ATOM     10  C   LIG    1       -4.595   9.614  -1.271  0.00  0.00    +0.020 C 
ATOM     11  C   LIG    1       -5.896  10.406  -1.130  0.00  0.00    +0.030 C 
ATOM     12  C   LIG    1       -6.879   9.625  -0.255  0.00  0.00    -0.020 C 
ATOM     13  C   LIG    1       -7.199   8.285  -0.925  0.00  0.00    +0.310 C 
ATOM     14  O   LIG    1       -6.656   5.725  -0.209  0.00  0.00    -0.530 OA
BRANCH  12  15
ATOM     15  C   LIG    1       -8.148  10.421  -0.090  0.00  0.00    +0.520 C 
ATOM     16  O   LIG    1       -9.205   9.963  -0.470  0.00  0.00    -0.540 OA
ATOM     17  N   LIG    1       -8.109  11.642   0.480  0.00  0.00    -0.850 N 
ATOM     18  H   LIG    1       -8.926  12.154   0.586  0.00  0.00    +0.400 HD
ATOM     19  H   LIG    1       -7.264  12.008   0.784  0.00  0.00    +0.400 HD
ENDBRANCH  12  15
ENDBRANCH   4   7
BRANCH   1  23
ATOM     20  C   LIG    1        1.184   1.807  -0.024  0.00  0.00    -0.110 A 
ATOM     21  C   LIG    1       -0.012   1.074  -0.004  0.00  0.00    +0.150 A 
ATOM     22  C   LIG    1       -1.198   1.760   0.010  0.00  0.00    -0.040 A 
ATOM     23  C   LIG    1       -1.182   3.153   0.014  0.00  0.00    +0.340 A 
ATOM     24  N   LIG    1       -0.037   3.821  -0.005  0.00  0.00    -0.520 NA
ATOM     25  C   LIG    1        1.125   3.202  -0.023  0.00  0.00    +0.360 A 
BRANCH  20  27
ATOM     26  N   LIG    1        3.450   0.600  -0.061  0.00  0.00    -0.410 NA
ATOM     27  C   LIG    1        2.448   1.134  -0.045  0.00  0.00    +0.260 C 
ENDBRANCH  20  27
ENDBRANCH   1  23
TORSDOF 4
