REMARK  Name = ZINCrH000008uzkH.0
REMARK                            x       y       z     vdW  Elec       q    Type
REMARK                         _______ _______ _______ _____ _____    ______ ____
ROOT
ATOM      1  C   LIG    1       -0.156   1.491   6.309  0.00  0.00    +0.520 C 
ATOM      2  N   LIG    1        0.440   1.093   7.450  0.00  0.00    -0.620 N 
ATOM      3  C   LIG    1        1.578   0.162   7.423  0.00  0.00    +0.290 C 
ATOM      4  C   LIG    1        2.718   0.768   8.257  0.00  0.00    +0.200 C 
ATOM      5  N   LIG    1        2.216   1.095   9.598  0.00  0.00    -0.490 N 
ATOM      6  C   LIG    1        1.165   2.121   9.539  0.00  0.00    +0.190 C 
ATOM      7  C   LIG    1       -0.034   1.574   8.757  0.00  0.00    +0.300 C 
ATOM      8  O   LIG    1       -1.097   2.256   6.351  0.00  0.00    -0.530 OA
ENDROOT
BRANCH   5   9
ATOM      9  C   LIG    1        3.257   1.493  10.439  0.00  0.00    +0.140 A 
ATOM     10  C   LIG    1        3.202   2.725  11.080  0.00  0.00    -0.030 A 
ATOM     11  C   LIG    1        4.232   3.113  11.915  0.00  0.00    +0.100 A 
ATOM     12  C   LIG    1        5.321   2.283  12.105  0.00  0.00    -0.210 A 
ATOM     13  C   LIG    1        5.381   1.058  11.464  0.00  0.00    +0.100 A 
ATOM     14  C   LIG    1        4.353   0.661  10.632  0.00  0.00    +0.000 A 
BRANCH  12  15
ATOM     15  C   LIG    1        6.445   2.712  13.012  0.00  0.00    +0.510 C 
ATOM     16  F   LIG    1        7.035   1.583  13.591  0.00  0.00    -0.180 F 
ATOM     17  F   LIG    1        5.940   3.542  14.019  0.00  0.00    -0.180 F 
ATOM     18  F   LIG    1        7.403   3.410  12.270  0.00  0.00    -0.180 F 
ENDBRANCH  12  15
ENDBRANCH   5   9
BRANCH   1  19
ATOM     19  C   LIG    1        0.346   0.986   4.981  0.00  0.00    +0.050 C 
BRANCH  19  20
ATOM     20  C   LIG    1       -0.498   1.585   3.855  0.00  0.00    +0.130 C 
BRANCH  20  21
ATOM     21  C   LIG    1        0.011   1.072   2.506  0.00  0.00    +0.040 C 
ATOM     22  N   LIG    1        1.426   0.715   2.381  0.00  0.00    -0.120 NA
ATOM     23  N   LIG    1        0.647  -0.246   2.453  0.00  0.00    -0.120 NA
BRANCH  21  24
ATOM     24  C   LIG    1       -0.729   1.579   1.267  0.00  0.00    +0.120 C 
BRANCH  24  25
ATOM     25  C   LIG    1       -0.013   1.086   0.008  0.00  0.00    +0.160 C 
BRANCH  25  27
ATOM     26  C   LIG    1       -1.292   1.962  -2.136  0.00  0.00    +0.030 C 
ATOM     27  C   LIG    1       -0.725   1.573  -1.185  0.00  0.00    -0.190 C 
ENDBRANCH  25  27
ENDBRANCH  24  25
ENDBRANCH  21  24
ENDBRANCH  20  21
ENDBRANCH  19  20
ENDBRANCH   1  19
TORSDOF 8
