REMARK  Name = ZINCzw0000000aKc.1
REMARK                            x       y       z     vdW  Elec       q    Type
REMARK                         _______ _______ _______ _____ _____    ______ ____
ROOT
ATOM      1  C   LIG    1       -5.299  -2.946  -9.443  0.00  0.00    +0.160 C 
ATOM      2  C   LIG    1       -6.170  -3.365  -8.286  0.00  0.00    -0.100 A 
ATOM      3  C   LIG    1       -7.428  -3.838  -8.511  0.00  0.00    +0.180 A 
ATOM      4  C   LIG    1       -8.226  -4.223  -7.426  0.00  0.00    +0.040 A 
ATOM      5  C   LIG    1       -7.750  -4.123  -6.165  0.00  0.00    +0.310 A 
ATOM      6  N   LIG    1       -6.494  -3.647  -5.929  0.00  0.00    -0.430 N 
ATOM      7  C   LIG    1       -6.055  -3.549  -4.654  0.00  0.00    +0.560 A 
ATOM      8  C   LIG    1       -4.751  -3.040  -4.424  0.00  0.00    -0.350 A 
ATOM      9  C   LIG    1       -3.953  -2.699  -5.542  0.00  0.00    +0.500 A 
ATOM     10  N   LIG    1       -2.666  -2.248  -5.342  0.00  0.00    -0.500 N 
ATOM     11  C   LIG    1       -2.385  -1.639  -4.125  0.00  0.00    +0.590 C 
ATOM     12  C   LIG    1       -3.069  -2.177  -2.930  0.00  0.00    -0.290 C 
ATOM     13  N   LIG    1       -4.450  -2.819  -6.762  0.00  0.00    -0.560 NA
ATOM     14  C   LIG    1       -4.263  -2.866  -3.121  0.00  0.00    +0.330 C 
ATOM     15  O   LIG    1       -6.763  -3.890  -3.724  0.00  0.00    -0.460 OA
ATOM     16  C   LIG    1       -5.689  -3.272  -6.968  0.00  0.00    +0.450 A 
ENDROOT
BRANCH  12  17
ATOM     17  C   LIG    1       -2.505  -1.996  -1.588  0.00  0.00    +0.580 C 
ATOM     18  N   LIG    1       -3.199  -2.399  -0.505  0.00  0.00    -0.710 N 
ATOM     19  H   LIG    1       -4.106  -2.728  -0.605  0.00  0.00    +0.400 HD
ATOM     20  O   LIG    1       -1.410  -1.482  -1.452  0.00  0.00    -0.540 OA
BRANCH  18  21
ATOM     21  C   LIG    1       -2.584  -2.340   0.823  0.00  0.00    +0.340 C 
BRANCH  21  22
ATOM     22  C   LIG    1       -3.563  -2.843   1.853  0.00  0.00    -0.120 A 
ATOM     23  C   LIG    1       -3.592  -4.186   2.180  0.00  0.00    +0.020 A 
ATOM     24  C   LIG    1       -4.489  -4.648   3.125  0.00  0.00    +0.010 A 
ATOM     25  C   LIG    1       -5.358  -3.767   3.741  0.00  0.00    +0.030 A 
ATOM     26  C   LIG    1       -5.329  -2.424   3.414  0.00  0.00    +0.010 A 
ATOM     27  C   LIG    1       -4.431  -1.962   2.470  0.00  0.00    +0.020 A 
ENDBRANCH  21  22
ENDBRANCH  18  21
ENDBRANCH  12  17
BRANCH  11  28
ATOM     28  N   LIG    1       -1.551  -0.633  -4.040  0.00  0.00    -0.700 NA
ATOM     29  H   LIG    1       -1.052  -0.349  -4.822  0.00  0.00    +0.430 HD
ATOM     30  H   LIG    1       -1.431  -0.172  -3.195  0.00  0.00    +0.460 HD
ENDBRANCH  11  28
BRANCH  10  31
ATOM     31  C   LIG    1       -1.635  -2.405  -6.371  0.00  0.00    +0.330 C 
BRANCH  31  32
ATOM     32  C   LIG    1       -0.914  -3.740  -6.172  0.00  0.00    +0.010 C 
BRANCH  32  33
ATOM     33  C   LIG    1        0.162  -3.904  -7.247  0.00  0.00    +0.310 C 
BRANCH  33  34
ATOM     34  N   LIG    1        0.852  -5.182  -7.057  0.00  0.00    -0.470 N 
ATOM     35  C   LIG    1        0.501  -6.384  -7.610  0.00  0.00    +0.120 A 
ATOM     36  C   LIG    1        1.399  -7.289  -7.175  0.00  0.00    +0.150 A 
ATOM     37  N   LIG    1        2.273  -6.657  -6.378  0.00  0.00    -0.490 NA
ATOM     38  C   LIG    1        1.955  -5.393  -6.308  0.00  0.00    +0.380 A 
ENDBRANCH  33  34
ENDBRANCH  32  33
ENDBRANCH  31  32
ENDBRANCH  10  31
TORSDOF 8
