REMARK  Name = ZINCpe00000FUfVv.0
REMARK                            x       y       z     vdW  Elec       q    Type
REMARK                         _______ _______ _______ _____ _____    ______ ____
ROOT
ATOM      1  C   LIG    1       -5.847   5.663  -3.206  0.00  0.00    +0.360 C 
ATOM      2  N   LIG    1       -5.406   4.441  -3.882  0.00  0.00    -0.410 N 
ATOM      3  C   LIG    1       -6.186   3.566  -4.546  0.00  0.00    +0.500 A 
ATOM      4  N   LIG    1       -5.452   2.593  -5.022  0.00  0.00    -0.500 NA
ATOM      5  C   LIG    1       -4.173   2.788  -4.692  0.00  0.00    +0.320 A 
ATOM      6  N   LIG    1       -3.002   2.086  -4.929  0.00  0.00    -0.510 N 
ATOM      7  C   LIG    1       -3.039   0.840  -5.699  0.00  0.00    +0.340 C 
ATOM      8  C   LIG    1       -1.829   2.551  -4.458  0.00  0.00    +0.710 A 
ATOM      9  O   LIG    1       -0.811   1.924  -4.680  0.00  0.00    -0.530 OA
ATOM     10  N   LIG    1       -1.756   3.687  -3.744  0.00  0.00    -0.550 N 
ATOM     11  C   LIG    1       -2.862   4.414  -3.480  0.00  0.00    +0.600 A 
ATOM     12  O   LIG    1       -2.782   5.445  -2.836  0.00  0.00    -0.510 OA
ATOM     13  C   LIG    1       -4.112   3.967  -3.960  0.00  0.00    -0.160 A 
ENDROOT
BRANCH  10  14
ATOM     14  C   LIG    1       -0.456   4.146  -3.249  0.00  0.00    +0.320 C 
BRANCH  14  15
ATOM     15  C   LIG    1       -0.204   3.559  -1.858  0.00  0.00    +0.020 C 
BRANCH  15  16
ATOM     16  C   LIG    1        1.154   4.039  -1.342  0.00  0.00    +0.200 C 
BRANCH  16  17
ATOM     17  N   LIG    1        1.397   3.476  -0.007  0.00  0.00    -0.490 N 
ATOM     18  C   LIG    1        2.791   3.718   0.426  0.00  0.00    +0.230 C 
ATOM     19  C   LIG    1        3.507   2.416   0.000  0.00  0.00    +0.060 C 
ATOM     20  C   LIG    1        2.383   1.399  -0.007  0.00  0.00    -0.140 A 
ATOM     21  C   LIG    1        2.396   0.020  -0.016  0.00  0.00    +0.030 A 
ATOM     22  C   LIG    1        1.206  -0.684  -0.013  0.00  0.00    +0.000 A 
ATOM     23  C   LIG    1        0.002  -0.004   0.002  0.00  0.00    +0.020 A 
ATOM     24  C   LIG    1       -0.017   1.375   0.010  0.00  0.00    +0.010 A 
ATOM     25  C   LIG    1        1.178   2.093   0.002  0.00  0.00    +0.090 A 
ENDBRANCH  16  17
ENDBRANCH  15  16
ENDBRANCH  14  15
ENDBRANCH  10  14
TORSDOF 4
