REMARK  Name = ZINCrH000004tOHu.0
REMARK                            x       y       z     vdW  Elec       q    Type
REMARK                         _______ _______ _______ _____ _____    ______ ____
ROOT
ATOM      1  O   LIG    1       -3.592   3.218   0.037  0.00  0.00    -0.520 OA
ATOM      2  C   LIG    1       -2.680   4.017   0.037  0.00  0.00    +0.530 C 
ATOM      3  N   LIG    1       -2.943   5.339   0.045  0.00  0.00    -0.610 N 
ATOM      4  C   LIG    1       -1.936   6.415   0.052  0.00  0.00    +0.250 C 
ATOM      5  C   LIG    1       -2.660   7.635   0.670  0.00  0.00    +0.040 C 
ATOM      6  C   LIG    1       -4.090   7.477   0.090  0.00  0.00    +0.050 C 
ATOM      7  C   LIG    1       -4.282   5.947   0.055  0.00  0.00    +0.270 C 
ENDROOT
BRANCH   7   8
ATOM      8  C   LIG    1       -5.032   5.553  -1.192  0.00  0.00    -0.080 A 
ATOM      9  C   LIG    1       -4.373   5.502  -2.405  0.00  0.00    +0.030 A 
ATOM     10  C   LIG    1       -5.056   5.142  -3.554  0.00  0.00    +0.020 A 
ATOM     11  C   LIG    1       -6.403   4.832  -3.483  0.00  0.00    +0.070 A 
ATOM     12  O   LIG    1       -7.088   4.475  -4.608  0.00  0.00    -0.320 OA
ATOM     13  C   LIG    1       -7.525   3.116  -4.669  0.00  0.00    +0.230 C 
ATOM     14  C   LIG    1       -8.849   2.941  -3.941  0.00  0.00    -0.020 C 
ATOM     15  C   LIG    1       -8.730   3.208  -2.449  0.00  0.00    +0.230 C 
ATOM     16  O   LIG    1       -8.393   4.575  -2.204  0.00  0.00    -0.320 OA
ATOM     17  C   LIG    1       -7.065   4.882  -2.264  0.00  0.00    +0.070 A 
ATOM     18  C   LIG    1       -6.378   5.237  -1.116  0.00  0.00    +0.030 A 
ENDBRANCH   7   8
BRANCH   2  19
ATOM     19  C   LIG    1       -1.253   3.533   0.027  0.00  0.00    +0.290 C 
BRANCH  19  20
ATOM     20  N   LIG    1       -1.235   2.068   0.019  0.00  0.00    -0.730 N 
ATOM     21  H   LIG    1       -2.069   1.572   0.020  0.00  0.00    +0.410 HD
BRANCH  20  22
ATOM     22  C   LIG    1       -0.017   1.385   0.010  0.00  0.00    +0.250 A 
ATOM     23  C   LIG    1        1.178   2.093   0.002  0.00  0.00    -0.080 A 
ATOM     24  C   LIG    1        2.382   1.415  -0.013  0.00  0.00    +0.090 A 
ATOM     25  C   LIG    1        2.400   0.033  -0.020  0.00  0.00    -0.080 A 
ATOM     26  C   LIG    1        1.210  -0.677  -0.013  0.00  0.00    +0.150 A 
ATOM     27  F   LIG    1        1.230  -2.028  -0.021  0.00  0.00    -0.140 F 
ATOM     28  C   LIG    1        0.002  -0.004   0.002  0.00  0.00    -0.100 A 
ENDBRANCH  20  22
ENDBRANCH  19  20
ENDBRANCH   2  19
TORSDOF 4
