REMARK  Name = ZINCrg00000fRYUX.0
REMARK                            x       y       z     vdW  Elec       q    Type
REMARK                         _______ _______ _______ _____ _____    ______ ____
ROOT
ATOM      1  C   LIG    1       -0.018   1.470   0.010  0.00  0.00    +0.520 C 
ATOM      2  O   LIG    1       -1.078   2.064   0.018  0.00  0.00    -0.490 OA
ENDROOT
BRANCH   1   6
ATOM      3  C   LIG    1        0.040  -2.775  -0.014  0.00  0.00    +0.260 A 
ATOM      4  C   LIG    1        1.235  -2.065  -0.022  0.00  0.00    -0.090 A 
ATOM      5  C   LIG    1        1.221  -0.688  -0.019  0.00  0.00    +0.190 A 
ATOM      6  C   LIG    1        0.002  -0.004   0.002  0.00  0.00    -0.180 A 
ATOM      7  C   LIG    1       -1.198  -0.722   0.010  0.00  0.00    +0.260 A 
ATOM      8  C   LIG    1       -1.175  -2.098   0.002  0.00  0.00    -0.720 A 
BRANCH   8   9
ATOM      9  S   LIG    1       -2.686  -3.003   0.012  0.00  0.00    +2.710 S 
ATOM     10  O   LIG    1       -3.731  -2.040  -0.008  0.00  0.00    -0.960 OA
ATOM     11  O   LIG    1       -2.557  -3.989   1.027  0.00  0.00    -0.950 OA
BRANCH   9  12
ATOM     12  N   LIG    1       -2.777  -3.821  -1.425  0.00  0.00    -1.250 NA
ATOM     13  H   LIG    1       -3.544  -4.384  -1.616  0.00  0.00    +0.420 HD
ATOM     14  H   LIG    1       -2.063  -3.737  -2.077  0.00  0.00    +0.420 HD
ENDBRANCH   9  12
ENDBRANCH   8   9
BRANCH   3  16
ATOM     15  C   LIG    1        1.340  -4.763  -0.037  0.00  0.00    +0.270 C 
ATOM     16  O   LIG    1        0.058  -4.131  -0.021  0.00  0.00    -0.300 OA
ENDBRANCH   3  16
ENDBRANCH   1   6
BRANCH   1  17
ATOM     17  O   LIG    1        1.140   2.160   0.003  0.00  0.00    -0.340 OA
BRANCH  17  18
ATOM     18  C   LIG    1        1.044   3.609   0.011  0.00  0.00    +0.320 C 
BRANCH  18  19
ATOM     19  C   LIG    1        2.429   4.204   0.001  0.00  0.00    +0.210 A 
ATOM     20  C   LIG    1        2.862   4.947  -1.076  0.00  0.00    -0.110 A 
ATOM     21  C   LIG    1        4.149   5.487  -1.061  0.00  0.00    +0.530 A 
ATOM     22  N   LIG    1        4.960   5.274   0.016  0.00  0.00    -0.460 N 
ATOM     23  C   LIG    1        6.243   5.732   0.187  0.00  0.00    +0.080 A 
ATOM     24  C   LIG    1        6.888   5.429   1.300  0.00  0.00    +0.000 A 
ATOM     25  S   LIG    1        5.757   4.453   2.252  0.00  0.00    +0.190 S 
ATOM     26  C   LIG    1        6.906   6.566  -0.879  0.00  0.00    +0.170 C 
ATOM     27  C   LIG    1        4.464   4.531   1.043  0.00  0.00    +0.320 A 
ATOM     28  O   LIG    1        4.547   6.148  -2.007  0.00  0.00    -0.510 OA
ATOM     29  N   LIG    1        3.245   4.024   1.032  0.00  0.00    -0.490 NA
ENDBRANCH  18  19
ENDBRANCH  17  18
ENDBRANCH   1  17
TORSDOF 7
