REMARK  Name = ZINCvU0000000CU8.0
REMARK                            x       y       z     vdW  Elec       q    Type
REMARK                         _______ _______ _______ _____ _____    ______ ____
ROOT
ATOM      1  C   LIG    1        3.374   9.449  -4.345  0.00  0.00    +0.170 A 
ATOM      2  N   LIG    1        2.236   9.939  -3.910  0.00  0.00    -0.280 NA
ATOM      3  N   LIG    1        2.048  11.115  -4.393  0.00  0.00    -0.260 NA
ATOM      4  C   LIG    1        3.052  11.447  -5.174  0.00  0.00    +0.260 A 
ATOM      5  N   LIG    1        3.933  10.388  -5.167  0.00  0.00    -0.460 N 
ENDROOT
BRANCH   4   6
ATOM      6  C   LIG    1        3.206  12.709  -5.914  0.00  0.00    -0.130 A 
ATOM      7  C   LIG    1        2.220  13.604  -6.145  0.00  0.00    +0.090 A 
ATOM      8  C   LIG    1        2.608  14.716  -6.861  0.00  0.00    +0.020 A 
ATOM      9  C   LIG    1        3.894  14.735  -7.226  0.00  0.00    -0.030 A 
ATOM     10  S   LIG    1        4.700  13.284  -6.644  0.00  0.00    +0.120 S 
ENDBRANCH   4   6
BRANCH   1  11
ATOM     11  S   LIG    1        4.052   7.871  -3.949  0.00  0.00    +0.000 S 
BRANCH  11  12
ATOM     12  C   LIG    1        2.763   7.245  -2.844  0.00  0.00    +0.130 C 
BRANCH  12  13
ATOM     13  C   LIG    1        3.144   5.845  -2.358  0.00  0.00    +0.090 C 
BRANCH  13  16
ATOM     14  N   LIG    1        2.193   4.100  -0.885  0.00  0.00    -0.730 N 
ATOM     15  H   LIG    1        2.972   3.555  -1.080  0.00  0.00    +0.400 HD
ATOM     16  C   LIG    1        2.071   5.323  -1.437  0.00  0.00    +0.520 C 
ATOM     17  O   LIG    1        1.098   6.004  -1.193  0.00  0.00    -0.530 OA
BRANCH  14  19
ATOM     18  C   LIG    1        1.407   4.098   1.431  0.00  0.00    +0.040 C 
ATOM     19  C   LIG    1        1.151   3.592   0.010  0.00  0.00    +0.280 C 
BRANCH  19  20
ATOM     20  C   LIG    1        1.171   2.086   0.002  0.00  0.00    -0.090 A 
ATOM     21  C   LIG    1       -0.017   1.378   0.010  0.00  0.00    +0.020 A 
ATOM     22  C   LIG    1        0.002  -0.004   0.002  0.00  0.00    +0.020 A 
ATOM     23  C   LIG    1        1.208  -0.679  -0.013  0.00  0.00    +0.000 A 
ATOM     24  C   LIG    1        2.396   0.029  -0.021  0.00  0.00    +0.000 A 
ATOM     25  C   LIG    1        2.377   1.411  -0.015  0.00  0.00    +0.000 A 
ENDBRANCH  19  20
ENDBRANCH  14  19
ENDBRANCH  13  16
ENDBRANCH  12  13
ENDBRANCH  11  12
ENDBRANCH   1  11
BRANCH   5  26
ATOM     26  C   LIG    1        5.204  10.289  -5.889  0.00  0.00    +0.360 C 
BRANCH  26  27
ATOM     27  C   LIG    1        4.964   9.685  -7.248  0.00  0.00    -0.130 A 
ATOM     28  C   LIG    1        5.033   8.315  -7.418  0.00  0.00    +0.040 A 
ATOM     29  C   LIG    1        4.807   7.760  -8.663  0.00  0.00    +0.010 A 
ATOM     30  C   LIG    1        4.523   8.576  -9.742  0.00  0.00    +0.030 A 
ATOM     31  C   LIG    1        4.459   9.946  -9.574  0.00  0.00    +0.010 A 
ATOM     32  C   LIG    1        4.679  10.501  -8.327  0.00  0.00    +0.030 A 
ENDBRANCH  26  27
ENDBRANCH   5  26
TORSDOF 9
