REMARK  Name = ZINCqH0000008X5l.0
REMARK                            x       y       z     vdW  Elec       q    Type
REMARK                         _______ _______ _______ _____ _____    ______ ____
ROOT
ATOM      1  C   LIG    1        1.640  -1.808  -0.021  0.00  0.00    +0.530 C 
ATOM      2  N   LIG    1        1.310  -0.502  -0.011  0.00  0.00    -0.550 N 
ATOM      3  C   LIG    1        2.269   0.609  -0.013  0.00  0.00    +0.300 C 
ATOM      4  C   LIG    1        1.407   1.873  -0.001  0.00  0.00    -0.020 C 
ATOM      5  C   LIG    1       -0.017   1.384   0.010  0.00  0.00    -0.160 A 
ATOM      6  C   LIG    1       -1.220   2.066   0.020  0.00  0.00    +0.150 A 
ATOM      7  C   LIG    1       -2.416   1.368   0.033  0.00  0.00    -0.040 A 
ATOM      8  C   LIG    1       -2.405  -0.014   0.024  0.00  0.00    +0.090 A 
ATOM      9  C   LIG    1       -1.208  -0.699   0.009  0.00  0.00    -0.030 A 
ATOM     10  F   LIG    1       -1.229   3.417   0.028  0.00  0.00    -0.130 F 
ATOM     11  C   LIG    1        1.705   2.728   1.238  0.00  0.00    +0.030 C 
ATOM     12  C   LIG    1        2.684   3.813   0.720  0.00  0.00    +0.020 C 
ATOM     13  C   LIG    1        2.142   4.116  -0.700  0.00  0.00    +0.020 C 
ATOM     14  C   LIG    1        1.684   2.740  -1.233  0.00  0.00    +0.030 C 
ATOM     15  C   LIG    1        0.002  -0.004   0.002  0.00  0.00    +0.180 A 
ATOM     16  O   LIG    1        2.807  -2.139  -0.032  0.00  0.00    -0.510 OA
ENDROOT
BRANCH   1  17
ATOM     17  C   LIG    1        0.559  -2.859  -0.018  0.00  0.00    +0.070 C 
BRANCH  17  19
ATOM     18  C   LIG    1        0.108  -5.313   0.098  0.00  0.00    +0.040 C 
ATOM     19  C   LIG    1        1.199  -4.248  -0.031  0.00  0.00    +0.250 C 
BRANCH  19  20
ATOM     20  N   LIG    1        1.923  -4.441  -1.289  0.00  0.00    -0.590 N 
ATOM     21  C   LIG    1        3.357  -4.696  -1.220  0.00  0.00    +0.260 C 
ATOM     22  C   LIG    1        3.849  -5.331  -2.523  0.00  0.00    +0.010 C 
ATOM     23  C   LIG    1        3.361  -4.474  -3.698  0.00  0.00    +0.030 C 
ATOM     24  C   LIG    1        1.837  -4.593  -3.782  0.00  0.00    +0.060 C 
ATOM     25  C   LIG    1        1.231  -4.368  -2.427  0.00  0.00    +0.520 C 
ATOM     26  O   LIG    1        0.049  -4.104  -2.363  0.00  0.00    -0.560 OA
ENDBRANCH  19  20
ENDBRANCH  17  19
ENDBRANCH   1  17
TORSDOF 3
