REMARK  Name = ZINCpk000000pUNX.0
REMARK                            x       y       z     vdW  Elec       q    Type
REMARK                         _______ _______ _______ _____ _____    ______ ____
ROOT
ATOM      1  C   LIG    1        0.002  -0.004   0.002  0.00  0.00    +0.170 C 
ATOM      2  N   LIG    1        0.768  -0.518   1.151  0.00  0.00    -0.710 N 
ATOM      3  H   LIG    1        0.565  -0.383   2.090  0.00  0.00    +0.440 HD
ATOM      4  C   LIG    1        1.802  -1.213   0.644  0.00  0.00    +0.710 C 
ATOM      5  N   LIG    1        1.808  -1.217  -0.694  0.00  0.00    -0.570 N 
ATOM      6  O   LIG    1        2.638  -1.774   1.325  0.00  0.00    -0.530 OA
ATOM      7  C   LIG    1        0.767  -0.520  -1.200  0.00  0.00    +0.540 C 
ATOM      8  O   LIG    1        0.500  -0.344  -2.370  0.00  0.00    -0.450 OA
ENDROOT
BRANCH   1   9
ATOM      9  C   LIG    1       -1.402  -0.552   0.013  0.00  0.00    -0.100 A 
ATOM     10  C   LIG    1       -2.429   0.169  -0.568  0.00  0.00    +0.040 A 
ATOM     11  C   LIG    1       -3.716  -0.336  -0.562  0.00  0.00    +0.010 A 
ATOM     12  C   LIG    1       -3.978  -1.556   0.032  0.00  0.00    +0.020 A 
ATOM     13  C   LIG    1       -2.951  -2.275   0.617  0.00  0.00    +0.010 A 
ATOM     14  C   LIG    1       -1.663  -1.772   0.607  0.00  0.00    +0.030 A 
ENDBRANCH   1   9
BRANCH   1  16
ATOM     15  C   LIG    1        1.417   2.055  -0.000  0.00  0.00    +0.020 C 
ATOM     16  C   LIG    1       -0.019   1.526   0.010  0.00  0.00    +0.060 C 
ENDBRANCH   1  16
BRANCH   5  17
ATOM     17  C   LIG    1        2.817  -1.897  -1.510  0.00  0.00    +0.410 C 
BRANCH  17  18
ATOM     18  C   LIG    1        2.371  -3.308  -1.790  0.00  0.00    +0.450 C 
ATOM     19  O   LIG    1        1.317  -3.707  -1.352  0.00  0.00    -0.490 OA
BRANCH  18  20
ATOM     20  O   LIG    1        3.143  -4.124  -2.525  0.00  0.00    -0.350 OA
BRANCH  20  21
ATOM     21  C   LIG    1        2.650  -5.470  -2.754  0.00  0.00    +0.240 C 
BRANCH  21  22
ATOM     22  C   LIG    1        3.658  -6.245  -3.605  0.00  0.00    -0.130 C 
ATOM     23  C   LIG    1        3.546  -5.959  -5.115  0.00  0.00    +0.230 C 
ATOM     24  O   LIG    1        3.697  -7.386  -5.278  0.00  0.00    -0.370 OA
ATOM     25  C   LIG    1        5.086  -6.161  -3.064  0.00  0.00    +0.070 C 
ATOM     26  C   LIG    1        3.208  -7.676  -3.954  0.00  0.00    +0.230 C 
ENDBRANCH  21  22
ENDBRANCH  20  21
ENDBRANCH  18  20
ENDBRANCH  17  18
ENDBRANCH   5  17
TORSDOF 7
