REMARK  Name = ZINCqH00000505uJ.0
REMARK                            x       y       z     vdW  Elec       q    Type
REMARK                         _______ _______ _______ _____ _____    ______ ____
ROOT
ATOM      1  C   LIG    1        0.002  -0.004   0.002  0.00  0.00    +0.310 C 
ENDROOT
BRANCH   1   2
ATOM      2  C   LIG    1        0.119  -0.497  -1.417  0.00  0.00    -0.120 A 
ATOM      3  C   LIG    1       -0.587   0.130  -2.427  0.00  0.00    +0.030 A 
ATOM      4  C   LIG    1       -0.476  -0.320  -3.730  0.00  0.00    +0.010 A 
ATOM      5  C   LIG    1        0.334  -1.402  -4.021  0.00  0.00    +0.020 A 
ATOM      6  C   LIG    1        1.036  -2.032  -3.010  0.00  0.00    +0.020 A 
ATOM      7  C   LIG    1        0.928  -1.580  -1.708  0.00  0.00    +0.020 A 
ENDBRANCH   1   2
BRANCH   1  10
ATOM      8  N   LIG    1       -1.477  -1.856   0.711  0.00  0.00    -0.620 N 
ATOM      9  H   LIG    1       -0.803  -2.475   0.389  0.00  0.00    +0.420 HD
ATOM     10  C   LIG    1       -1.273  -0.527   0.612  0.00  0.00    +0.530 C 
ATOM     11  O   LIG    1       -2.115   0.247   1.014  0.00  0.00    -0.500 OA
BRANCH   8  15
ATOM     12  C   LIG    1       -5.963  -2.234   2.853  0.00  0.00    +0.190 C 
ATOM     13  C   LIG    1       -4.623  -2.497   2.215  0.00  0.00    -0.020 A 
ATOM     14  C   LIG    1       -3.735  -1.571   1.790  0.00  0.00    -0.040 A 
ATOM     15  C   LIG    1       -2.657  -2.340   1.275  0.00  0.00    +0.240 A 
ATOM     16  N   LIG    1       -2.996  -3.593   1.432  0.00  0.00    -0.390 NA
ATOM     17  O   LIG    1       -4.081  -3.696   1.956  0.00  0.00    +0.100 OA
ENDBRANCH   8  15
ENDBRANCH   1  10
BRANCH   1  18
ATOM     18  N   LIG    1       -0.018   1.461   0.010  0.00  0.00    -0.730 N 
ATOM     19  H   LIG    1       -0.864   1.934   0.017  0.00  0.00    +0.410 HD
BRANCH  18  20
ATOM     20  C   LIG    1        1.185   2.177   0.002  0.00  0.00    +0.190 A 
ATOM     21  C   LIG    1        2.398   1.503  -0.013  0.00  0.00    -0.030 A 
ATOM     22  C   LIG    1        3.584   2.208  -0.024  0.00  0.00    +0.040 A 
ATOM     23  C   LIG    1        3.575   3.600  -0.019  0.00  0.00    +0.050 A 
ATOM     24  O   LIG    1        4.617   4.479  -0.038  0.00  0.00    -0.310 OA
ATOM     25  C   LIG    1        4.158   5.766   0.407  0.00  0.00    +0.240 C 
ATOM     26  C   LIG    1        2.661   5.751   0.018  0.00  0.00    +0.070 C 
ATOM     27  C   LIG    1        2.357   4.265   0.002  0.00  0.00    -0.130 A 
ATOM     28  C   LIG    1        1.170   3.567   0.004  0.00  0.00    -0.020 A 
ENDBRANCH  18  20
ENDBRANCH   1  18
TORSDOF 5
