REMARK  Name = ZINCrD00000F5Ls4.0
REMARK                            x       y       z     vdW  Elec       q    Type
REMARK                         _______ _______ _______ _____ _____    ______ ____
ROOT
ATOM      1  C   LIG    1        4.908  -2.737  -0.349  0.00  0.00    -0.120 C 
ATOM      2  C   LIG    1        4.924  -4.059   0.042  0.00  0.00    +0.240 C 
ENDROOT
BRANCH   2   3
ATOM      3  C   LIG    1        3.677  -4.825   0.081  0.00  0.00    -0.030 A 
ATOM      4  C   LIG    1        2.521  -4.260   0.637  0.00  0.00    -0.010 A 
ATOM      5  C   LIG    1        1.346  -4.985   0.668  0.00  0.00    +0.130 A 
ATOM      6  C   LIG    1        1.311  -6.281   0.157  0.00  0.00    +0.070 A 
ATOM      7  C   LIG    1        2.459  -6.849  -0.392  0.00  0.00    +0.130 A 
ATOM      8  C   LIG    1        3.637  -6.130  -0.431  0.00  0.00    -0.050 A 
BRANCH   7   9
ATOM      9  O   LIG    1        2.419  -8.115  -0.888  0.00  0.00    -0.300 OA
ATOM     10  C   LIG    1        3.632  -8.635  -1.436  0.00  0.00    +0.240 C 
ENDBRANCH   7   9
BRANCH   6  11
ATOM     11  O   LIG    1        0.154  -6.992   0.195  0.00  0.00    -0.470 OA
ATOM     12  H   LIG    1        0.041  -7.517   0.999  0.00  0.00    +0.380 HD
ENDBRANCH   6  11
BRANCH   5  13
ATOM     13  O   LIG    1        0.223  -4.435   1.202  0.00  0.00    -0.300 OA
ATOM     14  C   LIG    1        0.301  -3.069   1.614  0.00  0.00    +0.240 C 
ENDBRANCH   5  13
ENDBRANCH   2   3
BRANCH   1  17
ATOM     15  N   LIG    1        3.610  -0.828  -1.145  0.00  0.00    -0.650 N 
ATOM     16  H   LIG    1        4.372  -0.260  -0.952  0.00  0.00    +0.410 HD
ATOM     17  C   LIG    1        3.687  -2.156  -0.929  0.00  0.00    +0.560 C 
ATOM     18  O   LIG    1        2.748  -2.875  -1.214  0.00  0.00    -0.490 OA
BRANCH  15  24
ATOM     19  C   LIG    1        2.159   1.085  -1.454  0.00  0.00    +0.100 A 
ATOM     20  C   LIG    1        0.989   1.632  -1.954  0.00  0.00    -0.060 A 
ATOM     21  C   LIG    1        0.094   0.838  -2.646  0.00  0.00    +0.030 A 
ATOM     22  C   LIG    1        0.362  -0.504  -2.841  0.00  0.00    +0.000 A 
ATOM     23  C   LIG    1        1.527  -1.059  -2.345  0.00  0.00    +0.070 A 
ATOM     24  C   LIG    1        2.430  -0.268  -1.650  0.00  0.00    +0.120 A 
BRANCH  19  25
ATOM     25  O   LIG    1        3.040   1.865  -0.772  0.00  0.00    -0.320 OA
BRANCH  25  27
ATOM     26  C   LIG    1        3.799   3.954   0.176  0.00  0.00    +0.070 C 
ATOM     27  C   LIG    1        2.696   3.242  -0.610  0.00  0.00    +0.180 C 
ENDBRANCH  25  27
ENDBRANCH  19  25
ENDBRANCH  15  24
ENDBRANCH   1  17
BRANCH   1  28
ATOM     28  C   LIG    1        6.080  -1.929  -0.190  0.00  0.00    +0.240 C 
ATOM     29  N   LIG    1        7.009  -1.289  -0.063  0.00  0.00    -0.390 NA
ENDBRANCH   1  28
TORSDOF 9
