REMARK  Name = ZINCrH000004kvio.0
REMARK                            x       y       z     vdW  Elec       q    Type
REMARK                         _______ _______ _______ _____ _____    ______ ____
ROOT
ATOM      1  C   LIG    1        2.335   5.609  -0.036  0.00  0.00    +0.450 A 
ATOM      2  C   LIG    1        2.366   4.241  -0.050  0.00  0.00    -0.050 A 
ATOM      3  C   LIG    1        1.155   3.531  -0.057  0.00  0.00    +0.290 A 
ATOM      4  N   LIG    1        0.001   4.183  -0.041  0.00  0.00    -0.460 NA
ATOM      5  C   LIG    1       -0.035   5.518  -0.022  0.00  0.00    +0.460 A 
ATOM      6  N   LIG    1       -1.041   6.387  -0.004  0.00  0.00    -0.520 NA
ATOM      7  C   LIG    1       -0.563   7.625   0.009  0.00  0.00    +0.480 A 
ATOM      8  N   LIG    1        0.747   7.592  -0.000  0.00  0.00    -0.320 NA
ATOM      9  N   LIG    1        1.124   6.243  -0.020  0.00  0.00    -0.350 N 
ENDROOT
BRANCH   3  10
ATOM     10  C   LIG    1        1.167   2.050  -0.077  0.00  0.00    -0.070 A 
ATOM     11  C   LIG    1       -0.033   1.340  -0.079  0.00  0.00    +0.080 A 
ATOM     12  C   LIG    1       -0.016  -0.040  -0.098  0.00  0.00    +0.000 A 
ATOM     13  C   LIG    1        1.189  -0.719  -0.115  0.00  0.00    +0.040 A 
ATOM     14  C   LIG    1        2.383  -0.020  -0.114  0.00  0.00    +0.000 A 
ATOM     15  C   LIG    1        2.378   1.359  -0.095  0.00  0.00    +0.050 A 
ENDBRANCH   3  10
BRANCH   1  16
ATOM     16  N   LIG    1        3.506   6.336  -0.035  0.00  0.00    -0.670 N 
ATOM     17  H   LIG    1        4.144   6.227   0.688  0.00  0.00    +0.430 HD
BRANCH  16  21
ATOM     18  C   LIG    1        4.308   9.003  -3.137  0.00  0.00    +0.120 A 
ATOM     19  C   LIG    1        5.260   8.779  -2.151  0.00  0.00    +0.040 A 
ATOM     20  C   LIG    1        4.995   7.896  -1.124  0.00  0.00    -0.010 A 
ATOM     21  C   LIG    1        3.775   7.232  -1.076  0.00  0.00    +0.180 A 
ATOM     22  C   LIG    1        2.826   7.452  -2.066  0.00  0.00    -0.030 A 
ATOM     23  C   LIG    1        3.089   8.340  -3.090  0.00  0.00    +0.070 A 
BRANCH  18  25
ATOM     24  C   LIG    1        3.587  10.659  -4.689  0.00  0.00    +0.650 C 
ATOM     25  N   LIG    1        4.577   9.900  -4.180  0.00  0.00    -0.650 N 
ATOM     26  H   LIG    1        5.477   9.974  -4.535  0.00  0.00    +0.420 HD
ATOM     27  O   LIG    1        2.446  10.510  -4.300  0.00  0.00    -0.550 OA
BRANCH  24  29
ATOM     28  C   LIG    1        2.746  12.363  -6.134  0.00  0.00    +0.310 C 
ATOM     29  O   LIG    1        3.862  11.582  -5.630  0.00  0.00    -0.370 OA
ENDBRANCH  24  29
ENDBRANCH  18  25
ENDBRANCH  16  21
ENDBRANCH   1  16
TORSDOF 5
