REMARK  Name = ZINCrH000004v7UX.0
REMARK                            x       y       z     vdW  Elec       q    Type
REMARK                         _______ _______ _______ _____ _____    ______ ____
ROOT
ATOM      1  C   LIG    1        3.232   8.044   0.618  0.00  0.00    +0.110 A 
ATOM      2  C   LIG    1        4.318   7.193   0.771  0.00  0.00    +0.030 A 
ATOM      3  C   LIG    1        4.150   5.829   0.637  0.00  0.00    +0.010 A 
ATOM      4  C   LIG    1        2.896   5.309   0.350  0.00  0.00    +0.120 A 
ATOM      5  C   LIG    1        1.812   6.159   0.193  0.00  0.00    -0.060 A 
ATOM      6  C   LIG    1        1.977   7.523   0.332  0.00  0.00    +0.060 A 
ENDROOT
BRANCH   1   9
ATOM      7  O   LIG    1        1.406   9.650   1.704  0.00  0.00    -0.520 OA
ATOM      8  C   LIG    1        2.409  10.181   1.268  0.00  0.00    +0.560 C 
ATOM      9  N   LIG    1        3.401   9.428   0.754  0.00  0.00    -0.670 N 
ATOM     10  H   LIG    1        4.232   9.844   0.477  0.00  0.00    +0.410 HD
BRANCH   8  11
ATOM     11  C   LIG    1        2.541  11.653   1.303  0.00  0.00    -0.140 A 
ATOM     12  C   LIG    1        3.694  12.266   0.809  0.00  0.00    +0.040 A 
ATOM     13  C   LIG    1        3.809  13.640   0.841  0.00  0.00    +0.000 A 
ATOM     14  C   LIG    1        2.789  14.411   1.370  0.00  0.00    +0.040 A 
ATOM     15  C   LIG    1        1.645  13.809   1.866  0.00  0.00    +0.000 A 
ATOM     16  C   LIG    1        1.515  12.436   1.835  0.00  0.00    +0.080 A 
ENDBRANCH   8  11
ENDBRANCH   1   9
BRANCH   4  17
ATOM     17  O   LIG    1        2.732   3.966   0.218  0.00  0.00    -0.300 OA
BRANCH  17  18
ATOM     18  C   LIG    1        1.414   3.499  -0.077  0.00  0.00    +0.180 C 
BRANCH  18  19
ATOM     19  C   LIG    1        1.425   1.974  -0.188  0.00  0.00    +0.230 C 
BRANCH  19  20
ATOM     20  O   LIG    1        2.224   1.583  -1.307  0.00  0.00    -0.540 OA
ATOM     21  H   LIG    1        1.910   1.929  -2.154  0.00  0.00    +0.380 HD
ENDBRANCH  19  20
BRANCH  19  22
ATOM     22  C   LIG    1       -0.005   1.465  -0.380  0.00  0.00    +0.180 C 
BRANCH  22  23
ATOM     23  O   LIG    1       -0.008   0.036  -0.367  0.00  0.00    -0.300 OA
BRANCH  23  24
ATOM     24  C   LIG    1       -1.209  -0.579  -0.526  0.00  0.00    +0.130 A 
ATOM     25  C   LIG    1       -2.361   0.176  -0.686  0.00  0.00    -0.080 A 
ATOM     26  C   LIG    1       -3.580  -0.452  -0.853  0.00  0.00    +0.050 A 
ATOM     27  C   LIG    1       -3.654  -1.833  -0.851  0.00  0.00    -0.040 A 
ATOM     28  C   LIG    1       -2.508  -2.588  -0.686  0.00  0.00    +0.050 A 
ATOM     29  C   LIG    1       -1.286  -1.965  -0.523  0.00  0.00    -0.020 A 
ENDBRANCH  23  24
ENDBRANCH  22  23
ENDBRANCH  19  22
ENDBRANCH  18  19
ENDBRANCH  17  18
ENDBRANCH   4  17
TORSDOF 9
