REMARK  Name = ZINCvU0000000DTi.0
REMARK                            x       y       z     vdW  Elec       q    Type
REMARK                         _______ _______ _______ _____ _____    ______ ____
ROOT
ATOM      1  N   LIG    1       -5.783   4.221   1.392  0.00  0.00    -0.630 N 
ATOM      2  H   LIG    1       -5.425   5.119   1.309  0.00  0.00    +0.420 HD
ATOM      3  C   LIG    1       -4.981   3.155   1.199  0.00  0.00    +0.530 C 
ATOM      4  O   LIG    1       -5.429   2.033   1.303  0.00  0.00    -0.490 OA
ENDROOT
BRANCH   1  11
ATOM      5  C   LIG    1      -11.703   3.395   3.231  0.00  0.00    +0.010 C 
ATOM      6  C   LIG    1      -11.824   4.675   2.397  0.00  0.00    +0.030 C 
ATOM      7  C   LIG    1      -10.532   5.485   2.530  0.00  0.00    +0.100 C 
ATOM      8  C   LIG    1       -9.350   4.572   2.246  0.00  0.00    -0.040 A 
ATOM      9  C   LIG    1       -9.429   3.236   2.262  0.00  0.00    -0.240 A 
ATOM     10  S   LIG    1       -7.871   2.516   1.888  0.00  0.00    +0.320 S 
ATOM     11  C   LIG    1       -7.121   4.035   1.712  0.00  0.00    +0.050 A 
ATOM     12  C   LIG    1       -8.015   5.044   1.933  0.00  0.00    -0.110 A 
ATOM     13  C   LIG    1      -10.695   2.457   2.562  0.00  0.00    +0.130 C 
BRANCH   5  15
ATOM     14  C   LIG    1      -13.545   2.353   1.903  0.00  0.00    +0.020 C 
ATOM     15  C   LIG    1      -13.067   2.707   3.312  0.00  0.00    -0.060 C 
ATOM     16  C   LIG    1      -14.075   3.651   3.971  0.00  0.00    +0.010 C 
ATOM     17  C   LIG    1      -12.944   1.429   4.145  0.00  0.00    +0.030 C 
ENDBRANCH   5  15
BRANCH  12  18
ATOM     18  C   LIG    1       -7.668   6.431   1.859  0.00  0.00    +0.270 C 
ATOM     19  N   LIG    1       -7.393   7.532   1.800  0.00  0.00    -0.420 NA
ENDBRANCH  12  18
ENDBRANCH   1  11
BRANCH   3  20
ATOM     20  C   LIG    1       -3.529   3.358   0.852  0.00  0.00    +0.100 C 
BRANCH  20  21
ATOM     21  S   LIG    1       -2.725   1.748   0.657  0.00  0.00    +0.100 S 
BRANCH  21  22
ATOM     22  C   LIG    1       -1.087   2.269   0.267  0.00  0.00    +0.130 A 
ATOM     23  N   LIG    1       -0.665   3.509   0.171  0.00  0.00    -0.290 NA
ATOM     24  N   LIG    1        0.584   3.522  -0.133  0.00  0.00    -0.280 NA
ATOM     25  C   LIG    1        1.030   2.302  -0.244  0.00  0.00    +0.230 A 
ATOM     26  N   LIG    1       -0.018   1.461   0.010  0.00  0.00    -0.430 N 
BRANCH  25  27
ATOM     27  C   LIG    1        2.439   1.895  -0.589  0.00  0.00    +0.040 C 
ATOM     28  C   LIG    1        3.501   2.995  -0.637  0.00  0.00    +0.070 C 
ATOM     29  C   LIG    1        2.999   2.359  -1.935  0.00  0.00    +0.060 C 
ENDBRANCH  25  27
BRANCH  26  30
ATOM     30  C   LIG    1        0.002  -0.004   0.002  0.00  0.00    +0.200 C 
ATOM     31  C   LIG    1       -1.343  -0.728  -0.075  0.00  0.00    +0.070 C 
ATOM     32  C   LIG    1       -0.550  -0.725   1.234  0.00  0.00    +0.060 C 
ENDBRANCH  26  30
ENDBRANCH  21  22
ENDBRANCH  20  21
ENDBRANCH   3  20
TORSDOF 8
