REMARK  Name = ZINCpe000000Uhbs.0
REMARK                            x       y       z     vdW  Elec       q    Type
REMARK                         _______ _______ _______ _____ _____    ______ ____
ROOT
ATOM      1  C   LIG    1        1.702  -1.842  -0.025  0.00  0.00    +0.350 C 
ENDROOT
BRANCH   1   4
ATOM      2  N   LIG    1       -0.016   1.342   0.009  0.00  0.00    -0.540 N 
ATOM      3  C   LIG    1        0.002  -0.004   0.002  0.00  0.00    +0.680 A 
ATOM      4  N   LIG    1        1.276  -0.440  -0.013  0.00  0.00    -0.540 N 
ATOM      5  C   LIG    1        2.119   0.668  -0.015  0.00  0.00    +0.090 A 
ATOM      6  C   LIG    1        3.498   0.815  -0.027  0.00  0.00    +0.030 A 
ATOM      7  C   LIG    1        4.055   2.079  -0.025  0.00  0.00    +0.020 A 
ATOM      8  C   LIG    1        3.242   3.200  -0.012  0.00  0.00    +0.020 A 
ATOM      9  C   LIG    1        1.868   3.063   0.001  0.00  0.00    +0.030 A 
ATOM     10  O   LIG    1       -0.983  -0.718   0.007  0.00  0.00    -0.550 OA
ATOM     11  C   LIG    1        1.300   1.799  -0.001  0.00  0.00    +0.090 A 
BRANCH   2  13
ATOM     12  C   LIG    1       -1.626   2.469   1.466  0.00  0.00    +0.030 C 
ATOM     13  C   LIG    1       -1.216   2.183   0.020  0.00  0.00    +0.310 C 
ENDBRANCH   2  13
ENDBRANCH   1   4
BRANCH   1  14
ATOM     14  C   LIG    1        1.836  -2.321  -1.472  0.00  0.00    +0.040 C 
BRANCH  14  15
ATOM     15  C   LIG    1        2.274  -3.763  -1.484  0.00  0.00    +0.530 C 
ATOM     16  N   LIG    1        2.459  -4.401  -2.657  0.00  0.00    -0.600 N 
ATOM     17  C   LIG    1        2.234  -3.693  -3.920  0.00  0.00    +0.290 C 
ATOM     18  O   LIG    1        2.461  -4.349  -0.439  0.00  0.00    -0.530 OA
BRANCH  16  19
ATOM     19  C   LIG    1        2.885  -5.803  -2.669  0.00  0.00    +0.270 C 
ATOM     20  C   LIG    1        1.833  -6.667  -3.387  0.00  0.00    +0.060 C 
ATOM     21  C   LIG    1        2.449  -8.048  -3.686  0.00  0.00    -0.310 C 
ATOM     22  S   LIG    1        4.246  -7.745  -3.843  0.00  0.00    +2.400 S 
ATOM     23  O   LIG    1        4.641  -7.940  -5.194  0.00  0.00    -0.930 OA
ATOM     24  O   LIG    1        4.931  -8.424  -2.800  0.00  0.00    -0.930 OA
ATOM     25  C   LIG    1        4.203  -5.950  -3.472  0.00  0.00    -0.330 C 
ENDBRANCH  16  19
ENDBRANCH  14  15
ENDBRANCH   1  14
TORSDOF 5
