REMARK  Name = ZINCrD00000hQ4Me.0
REMARK                            x       y       z     vdW  Elec       q    Type
REMARK                         _______ _______ _______ _____ _____    ______ ____
ROOT
ATOM      1  N   LIG    1       -1.065   2.269  -3.366  0.00  0.00    -0.680 N 
ATOM      2  H   LIG    1       -1.983   2.507  -3.162  0.00  0.00    +0.410 HD
ATOM      3  C   LIG    1       -0.311   1.640  -2.443  0.00  0.00    +0.720 C 
ATOM      4  N   LIG    1       -0.794   1.438  -1.202  0.00  0.00    -0.630 N 
ATOM      5  C   LIG    1       -2.121   1.850  -0.722  0.00  0.00    +0.260 C 
ATOM      6  C   LIG    1       -2.221   1.434   0.761  0.00  0.00    +0.080 C 
ATOM      7  C   LIG    1       -0.732   1.318   1.192  0.00  0.00    +0.170 C 
ATOM      8  C   LIG    1       -0.080   0.767  -0.100  0.00  0.00    +0.280 C 
ATOM      9  O   LIG    1        0.806   1.255  -2.731  0.00  0.00    -0.560 OA
ENDROOT
BRANCH   1  15
ATOM     10  C   LIG    1        0.380   3.486  -9.379  0.00  0.00    +0.350 A 
ATOM     11  N   LIG    1        1.114   3.496  -8.288  0.00  0.00    -0.530 NA
ATOM     12  C   LIG    1        0.589   3.200  -7.093  0.00  0.00    +0.160 A 
ATOM     13  C   LIG    1        1.383   3.213  -5.934  0.00  0.00    +0.050 A 
ATOM     14  C   LIG    1        0.830   2.913  -4.728  0.00  0.00    +0.050 A 
ATOM     15  C   LIG    1       -0.524   2.578  -4.620  0.00  0.00    +0.160 A 
ATOM     16  C   LIG    1       -1.331   2.556  -5.737  0.00  0.00    +0.010 A 
ATOM     17  C   LIG    1       -0.784   2.867  -6.990  0.00  0.00    -0.110 A 
ATOM     18  C   LIG    1       -1.576   2.855  -8.156  0.00  0.00    +0.120 A 
ATOM     19  C   LIG    1       -0.983   3.166  -9.343  0.00  0.00    -0.020 A 
BRANCH  10  21
ATOM     20  C   LIG    1        2.349   4.113 -10.550  0.00  0.00    +0.260 C 
ATOM     21  O   LIG    1        0.956   3.793 -10.567  0.00  0.00    -0.310 OA
ENDBRANCH  10  21
ENDBRANCH   1  15
BRANCH   7  22
ATOM     22  O   LIG    1       -0.580   0.398   2.275  0.00  0.00    -0.290 OA
BRANCH  22  23
ATOM     23  C   LIG    1        0.517   0.550   3.064  0.00  0.00    +0.070 A 
ATOM     24  C   LIG    1        0.737  -0.305   4.138  0.00  0.00    +0.030 A 
ATOM     25  C   LIG    1        1.869  -0.112   4.913  0.00  0.00    +0.010 A 
ATOM     26  C   LIG    1        2.736   0.917   4.596  0.00  0.00    +0.220 A 
ATOM     27  N   LIG    1        2.497   1.711   3.571  0.00  0.00    -0.450 NA
ATOM     28  C   LIG    1        1.436   1.557   2.805  0.00  0.00    +0.180 A 
ENDBRANCH  22  23
ENDBRANCH   7  22
TORSDOF 4
