REMARK  Name = ZINCtV00000L6jrP.0
REMARK                            x       y       z     vdW  Elec       q    Type
REMARK                         _______ _______ _______ _____ _____    ______ ____
ROOT
ATOM      1  C   LIG    1        3.462   0.662  -0.028  0.00  0.00    +0.490 A 
ATOM      2  C   LIG    1        4.052  -0.584  -0.041  0.00  0.00    -0.170 A 
ATOM      3  C   LIG    1        3.243  -1.720  -0.039  0.00  0.00    +0.250 A 
ATOM      4  N   LIG    1        1.932  -1.601  -0.025  0.00  0.00    -0.510 NA
ATOM      5  C   LIG    1        1.345  -0.400  -0.013  0.00  0.00    +0.320 A 
ATOM      6  C   LIG    1        0.002  -0.004   0.002  0.00  0.00    -0.220 A 
ATOM      7  C   LIG    1       -0.017   1.396   0.010  0.00  0.00    +0.150 A 
ATOM      8  N   LIG    1        1.217   1.836   0.000  0.00  0.00    -0.330 NA
ATOM      9  C   LIG    1       -1.254   2.256   0.021  0.00  0.00    +0.180 C 
ATOM     10  C   LIG    1        3.872  -3.089  -0.053  0.00  0.00    +0.150 C 
ATOM     11  N   LIG    1        2.095   0.747  -0.014  0.00  0.00    -0.350 N 
ENDROOT
BRANCH   6  12
ATOM     12  C   LIG    1       -1.178  -0.899   0.009  0.00  0.00    +0.020 A 
ATOM     13  C   LIG    1       -1.414  -1.739   1.097  0.00  0.00    +0.020 A 
ATOM     14  C   LIG    1       -2.518  -2.567   1.099  0.00  0.00    +0.000 A 
ATOM     15  C   LIG    1       -3.384  -2.573   0.020  0.00  0.00    +0.000 A 
ATOM     16  C   LIG    1       -3.152  -1.746  -1.065  0.00  0.00    +0.000 A 
ATOM     17  C   LIG    1       -2.055  -0.910  -1.076  0.00  0.00    +0.010 A 
ENDBRANCH   6  12
BRANCH   1  18
ATOM     18  N   LIG    1        4.235   1.803  -0.030  0.00  0.00    -0.710 N 
ATOM     19  H   LIG    1        3.811   2.676  -0.021  0.00  0.00    +0.420 HD
BRANCH  18  20
ATOM     20  C   LIG    1        5.696   1.699  -0.045  0.00  0.00    +0.280 C 
BRANCH  20  21
ATOM     21  C   LIG    1        6.308   3.101  -0.044  0.00  0.00    +0.010 C 
BRANCH  21  22
ATOM     22  C   LIG    1        7.834   2.992  -0.060  0.00  0.00    +0.020 C 
BRANCH  22  23
ATOM     23  C   LIG    1        8.446   4.394  -0.059  0.00  0.00    +0.000 C 
BRANCH  23  24
ATOM     24  C   LIG    1        9.972   4.285  -0.075  0.00  0.00    +0.000 C 
BRANCH  24  25
ATOM     25  C   LIG    1       10.584   5.687  -0.074  0.00  0.00    +0.000 C 
BRANCH  25  26
ATOM     26  C   LIG    1       12.110   5.577  -0.090  0.00  0.00    +0.000 C 
BRANCH  26  27
ATOM     27  C   LIG    1       12.722   6.980  -0.089  0.00  0.00    +0.000 C 
BRANCH  27  28
ATOM     28  C   LIG    1       14.247   6.870  -0.105  0.00  0.00    +0.000 C 
BRANCH  28  30
ATOM     29  C   LIG    1       16.385   8.163  -0.120  0.00  0.00    +0.000 C 
ATOM     30  C   LIG    1       14.859   8.273  -0.103  0.00  0.00    -0.010 C 
ENDBRANCH  28  30
ENDBRANCH  27  28
ENDBRANCH  26  27
ENDBRANCH  25  26
ENDBRANCH  24  25
ENDBRANCH  23  24
ENDBRANCH  22  23
ENDBRANCH  21  22
ENDBRANCH  20  21
ENDBRANCH  18  20
ENDBRANCH   1  18
TORSDOF 12
