REMARK  Name = ZINCnE000001RfWy.0
REMARK                            x       y       z     vdW  Elec       q    Type
REMARK                         _______ _______ _______ _____ _____    ______ ____
ROOT
ATOM      1  N   LIG    1        6.654  -0.999   2.266  0.00  0.00    -0.640 N 
ATOM      2  H   LIG    1        6.471  -0.352   2.965  0.00  0.00    +0.420 HD
ATOM      3  C   LIG    1        5.780  -1.159   1.252  0.00  0.00    +0.500 C 
ATOM      4  O   LIG    1        6.008  -1.968   0.377  0.00  0.00    -0.460 OA
ENDROOT
BRANCH   1   9
ATOM      5  C   LIG    1       10.740  -4.347   1.523  0.00  0.00    +0.140 C 
ATOM      6  C   LIG    1        9.741  -3.318   1.986  0.00  0.00    -0.270 A 
ATOM      7  C   LIG    1        9.868  -2.586   3.084  0.00  0.00    -0.050 A 
ATOM      8  C   LIG    1        8.767  -1.672   3.289  0.00  0.00    -0.140 A 
ATOM      9  C   LIG    1        7.814  -1.760   2.309  0.00  0.00    +0.080 A 
ATOM     10  C   LIG    1       11.045  -2.691   4.021  0.00  0.00    +0.110 C 
ATOM     11  S   LIG    1        8.251  -2.927   1.146  0.00  0.00    +0.340 S 
BRANCH   8  12
ATOM     12  C   LIG    1        8.679  -0.773   4.401  0.00  0.00    +0.290 C 
ATOM     13  N   LIG    1        8.609  -0.060   5.282  0.00  0.00    -0.440 NA
ENDBRANCH   8  12
ENDBRANCH   1   9
BRANCH   3  14
ATOM     14  C   LIG    1        4.521  -0.333   1.205  0.00  0.00    +0.090 C 
BRANCH  14  15
ATOM     15  C   LIG    1        3.711  -0.707  -0.038  0.00  0.00    -0.030 C 
BRANCH  15  16
ATOM     16  C   LIG    1        2.396   0.029  -0.022  0.00  0.00    -0.050 A 
ATOM     17  C   LIG    1        1.208  -0.679  -0.013  0.00  0.00    +0.000 A 
ATOM     18  C   LIG    1        0.002  -0.004   0.002  0.00  0.00    -0.020 A 
ATOM     19  C   LIG    1       -0.017   1.378   0.010  0.00  0.00    -0.030 A 
ATOM     20  C   LIG    1        1.171   2.086   0.002  0.00  0.00    -0.010 A 
ATOM     21  C   LIG    1        2.377   1.411  -0.015  0.00  0.00    +0.030 A 
ENDBRANCH  15  16
BRANCH  15  22
ATOM     22  C   LIG    1        4.484  -0.327  -1.275  0.00  0.00    +0.510 C 
ATOM     23  O   LIG    1        4.799  -1.182  -2.084  0.00  0.00    -0.670 OA
ATOM     24  O   LIG    1        4.795   0.837  -1.465  0.00  0.00    -0.700 OA
ENDBRANCH  15  22
ENDBRANCH  14  15
ENDBRANCH   3  14
TORSDOF 6
