REMARK  Name = ZINCvU0000000Hbb.0
REMARK                            x       y       z     vdW  Elec       q    Type
REMARK                         _______ _______ _______ _____ _____    ______ ____
ROOT
ATOM      1  N   LIG    1        7.238  -0.820   2.872  0.00  0.00    -0.730 N 
ATOM      2  H   LIG    1        6.522  -0.286   3.249  0.00  0.00    +0.400 HD
ATOM      3  C   LIG    1        7.371  -0.922   1.535  0.00  0.00    +0.610 C 
ATOM      4  O   LIG    1        8.271  -1.592   1.062  0.00  0.00    -0.500 OA
ENDROOT
BRANCH   3   5
ATOM      5  C   LIG    1        6.433  -0.225   0.649  0.00  0.00    -0.070 A 
ATOM      6  C   LIG    1        6.453  -0.243  -0.716  0.00  0.00    +0.060 A 
ATOM      7  C   LIG    1        5.381   0.554  -1.146  0.00  0.00    -0.020 A 
ATOM      8  C   LIG    1        4.761   1.018  -0.039  0.00  0.00    +0.010 A 
ATOM      9  O   LIG    1        5.400   0.550   1.041  0.00  0.00    -0.160 OA
BRANCH   8  10
ATOM     10  C   LIG    1        3.553   1.919  -0.022  0.00  0.00    +0.330 C 
BRANCH  10  11
ATOM     11  O   LIG    1        2.366   1.123  -0.015  0.00  0.00    -0.310 OA
BRANCH  11  12
ATOM     12  C   LIG    1        1.179   1.786   0.000  0.00  0.00    +0.120 A 
ATOM     13  C   LIG    1       -0.013   1.076   0.008  0.00  0.00    +0.020 A 
ATOM     14  C   LIG    1       -1.218   1.751   0.017  0.00  0.00    +0.040 A 
ATOM     15  C   LIG    1       -1.237   3.135   0.030  0.00  0.00    +0.060 A 
ATOM     16  C   LIG    1       -0.049   3.845   0.023  0.00  0.00    +0.030 A 
ATOM     17  F   LIG    1       -2.417   3.793   0.044  0.00  0.00    -0.140 F 
ATOM     18  C   LIG    1        1.158   3.173   0.008  0.00  0.00    -0.040 A 
ENDBRANCH  11  12
ENDBRANCH  10  11
ENDBRANCH   8  10
ENDBRANCH   3   5
BRANCH   1  19
ATOM     19  C   LIG    1        8.176  -1.516   3.756  0.00  0.00    +0.370 C 
BRANCH  19  20
ATOM     20  C   LIG    1        7.516  -1.772   5.087  0.00  0.00    +0.270 A 
ATOM     21  N   LIG    1        8.107  -2.287   6.125  0.00  0.00    -0.470 NA
ATOM     22  C   LIG    1        7.226  -2.378   7.154  0.00  0.00    +0.050 A 
ATOM     23  C   LIG    1        7.323  -2.844   8.468  0.00  0.00    +0.070 A 
ATOM     24  C   LIG    1        6.230  -2.803   9.287  0.00  0.00    +0.000 A 
ATOM     25  C   LIG    1        5.020  -2.303   8.828  0.00  0.00    +0.040 A 
ATOM     26  C   LIG    1        4.901  -1.839   7.535  0.00  0.00    +0.010 A 
ATOM     27  C   LIG    1        6.000  -1.871   6.689  0.00  0.00    +0.050 A 
ATOM     28  N   LIG    1        6.218  -1.490   5.380  0.00  0.00    -0.600 N 
ATOM     29  H   LIG    1        5.565  -1.098   4.779  0.00  0.00    +0.420 HD
ENDBRANCH  19  20
BRANCH  19  30
ATOM     30  C   LIG    1        9.421  -0.651   3.962  0.00  0.00    +0.070 C 
BRANCH  30  31
ATOM     31  C   LIG    1       10.159  -0.496   2.631  0.00  0.00    +0.090 C 
BRANCH  31  33
ATOM     32  C   LIG    1       12.364   0.597   1.214  0.00  0.00    +0.140 C 
ATOM     33  S   LIG    1       11.636   0.530   2.874  0.00  0.00    -0.270 S 
ENDBRANCH  31  33
ENDBRANCH  30  31
ENDBRANCH  19  30
ENDBRANCH   1  19
TORSDOF 9
