REMARK  Name = ZINCvU0000000J1d.0
REMARK                            x       y       z     vdW  Elec       q    Type
REMARK                         _______ _______ _______ _____ _____    ______ ____
ROOT
ATOM      1  S   LIG    1        3.175   0.067  -0.027  0.00  0.00    +0.030 S 
ENDROOT
BRANCH   1   6
ATOM      2  N   LIG    1       -0.712   3.174   0.026  0.00  0.00    -0.330 N 
ATOM      3  N   LIG    1       -1.081   1.823   0.017  0.00  0.00    -0.230 NA
ATOM      4  C   LIG    1       -0.013   1.076   0.008  0.00  0.00    +0.320 A 
ATOM      5  C   LIG    1        1.122   1.916   0.002  0.00  0.00    -0.260 A 
ATOM      6  C   LIG    1        2.514   1.701  -0.012  0.00  0.00    +0.240 A 
ATOM      7  N   LIG    1        3.317   2.760  -0.014  0.00  0.00    -0.550 NA
ATOM      8  C   LIG    1        2.829   3.988  -0.003  0.00  0.00    +0.580 A 
ATOM      9  N   LIG    1        1.538   4.238   0.011  0.00  0.00    -0.530 NA
ATOM     10  C   LIG    1        0.652   3.244   0.013  0.00  0.00    +0.360 A 
BRANCH   2  14
ATOM     11  C   LIG    1       -3.325   6.420   0.068  0.00  0.00    +0.010 A 
ATOM     12  C   LIG    1       -3.663   5.270  -0.622  0.00  0.00    +0.030 A 
ATOM     13  C   LIG    1       -2.800   4.193  -0.638  0.00  0.00    +0.020 A 
ATOM     14  C   LIG    1       -1.590   4.265   0.040  0.00  0.00    +0.150 A 
ATOM     15  C   LIG    1       -1.255   5.418   0.737  0.00  0.00    +0.020 A 
ATOM     16  C   LIG    1       -2.121   6.494   0.745  0.00  0.00    +0.030 A 
ENDBRANCH   2  14
ENDBRANCH   1   6
BRANCH   1  17
ATOM     17  C   LIG    1        4.945   0.445  -0.042  0.00  0.00    +0.270 C 
BRANCH  17  18
ATOM     18  C   LIG    1        5.732  -0.840  -0.056  0.00  0.00    +0.160 A 
ATOM     19  N   LIG    1        6.125  -1.490  -1.115  0.00  0.00    -0.250 NA
ATOM     20  N   LIG    1        6.773  -2.543  -0.759  0.00  0.00    -0.270 NA
ATOM     21  C   LIG    1        6.817  -2.602   0.554  0.00  0.00    +0.260 A 
ATOM     22  O   LIG    1        6.162  -1.520   1.023  0.00  0.00    -0.210 OA
BRANCH  21  23
ATOM     23  C   LIG    1        7.464  -3.648   1.360  0.00  0.00    -0.160 A 
ATOM     24  C   LIG    1        8.121  -4.726   0.864  0.00  0.00    +0.120 A 
ATOM     25  C   LIG    1        8.654  -5.583   1.814  0.00  0.00    -0.110 A 
ATOM     26  C   LIG    1        8.426  -5.197   3.088  0.00  0.00    -0.150 A 
ATOM     27  C   LIG    1        8.897  -5.951   4.314  0.00  0.00    +0.120 C 
ATOM     28  C   LIG    1        9.286  -7.372   3.898  0.00  0.00    +0.030 C 
ATOM     29  C   LIG    1       10.222  -7.298   2.687  0.00  0.00    +0.020 C 
ATOM     30  C   LIG    1        9.427  -6.847   1.461  0.00  0.00    +0.100 C 
ATOM     31  S   LIG    1        7.512  -3.695   3.115  0.00  0.00    +0.170 S 
ENDBRANCH  21  23
ENDBRANCH  17  18
ENDBRANCH   1  17
TORSDOF 5
