REMARK  Name = ZINCrH000004tgqL.2
REMARK                            x       y       z     vdW  Elec       q    Type
REMARK                         _______ _______ _______ _____ _____    ______ ____
ROOT
ATOM      1  N   LIG    1        0.028   0.464   0.022  0.00  0.00    -0.580 N 
ATOM      2  C   LIG    1        0.996  -0.307   0.556  0.00  0.00    +0.520 C 
ATOM      3  O   LIG    1        0.919  -1.515   0.483  0.00  0.00    -0.490 OA
ENDROOT
BRANCH   1   4
ATOM      4  C   LIG    1       -1.067  -0.131  -0.618  0.00  0.00    +0.100 A 
ATOM      5  C   LIG    1       -1.015  -0.400  -1.978  0.00  0.00    +0.060 A 
ATOM      6  C   LIG    1       -2.097  -0.987  -2.607  0.00  0.00    +0.020 A 
ATOM      7  C   LIG    1       -3.231  -1.306  -1.883  0.00  0.00    +0.060 A 
ATOM      8  C   LIG    1       -3.287  -1.038  -0.527  0.00  0.00    -0.010 A 
ATOM      9  C   LIG    1       -2.207  -0.457   0.109  0.00  0.00    +0.110 A 
ATOM     10  F   LIG    1       -2.260  -0.201   1.435  0.00  0.00    -0.130 F 
ENDBRANCH   1   4
BRANCH   1  11
ATOM     11  C   LIG    1        0.121   1.923   0.110  0.00  0.00    +0.320 C 
BRANCH  11  12
ATOM     12  C   LIG    1       -0.562   2.401   1.393  0.00  0.00    +0.180 C 
BRANCH  12  14
ATOM     13  N   LIG    1       -0.397   4.999   1.551  0.00  0.00    -0.420 NA
ATOM     14  C   LIG    1       -0.469   3.867   1.482  0.00  0.00    +0.200 C 
ENDBRANCH  12  14
ENDBRANCH  11  12
ENDBRANCH   1  11
BRANCH   2  15
ATOM     15  C   LIG    1        2.174   0.333   1.245  0.00  0.00    +0.200 C 
BRANCH  15  16
ATOM     16  N   LIG    1        3.080  -0.713   1.737  0.00  0.00    -0.490 NA
ATOM     17  C   LIG    1        2.588  -1.285   3.017  0.00  0.00    +0.160 C 
ATOM     18  C   LIG    1        3.836  -1.925   3.663  0.00  0.00    +0.020 C 
ATOM     19  C   LIG    1        5.035  -1.176   3.045  0.00  0.00    +0.030 C 
ATOM     20  C   LIG    1        4.411  -0.147   2.078  0.00  0.00    +0.130 C 
BRANCH  20  21
ATOM     21  C   LIG    1        5.270  -0.008   0.820  0.00  0.00    +0.080 C 
BRANCH  21  22
ATOM     22  C   LIG    1        6.559   0.691   1.166  0.00  0.00    -0.080 A 
ATOM     23  C   LIG    1        6.609   2.072   1.198  0.00  0.00    +0.000 A 
ATOM     24  C   LIG    1        7.790   2.714   1.520  0.00  0.00    +0.000 A 
ATOM     25  C   LIG    1        8.924   1.974   1.801  0.00  0.00    +0.000 A 
ATOM     26  C   LIG    1        8.875   0.594   1.764  0.00  0.00    +0.000 A 
ATOM     27  C   LIG    1        7.693  -0.048   1.447  0.00  0.00    +0.010 A 
ENDBRANCH  21  22
ENDBRANCH  20  21
ENDBRANCH  15  16
ENDBRANCH   2  15
TORSDOF 8
