REMARK  Name = ZINCpk00000FNxKV.0
REMARK                            x       y       z     vdW  Elec       q    Type
REMARK                         _______ _______ _______ _____ _____    ______ ____
ROOT
ATOM      1  CA  LIG    1        2.943   1.719   1.242  0.00  0.00    +0.250 C 
ATOM      2  N   LIG    1        3.047   3.069   1.780  0.00  0.00    -0.710 N 
ATOM      3  H   LIG    1        2.235   3.521   2.058  0.00  0.00    +0.410 HD
ATOM      4  C   LIG    1        4.212   3.710   1.909  0.00  0.00    +0.510 C 
ATOM      5  CA  LIG    1        5.522   3.099   1.512  0.00  0.00    +0.230 C 
ATOM      6  N   LIG    1        5.425   1.648   1.429  0.00  0.00    -0.710 N 
ATOM      7  H   LIG    1        6.241   1.125   1.465  0.00  0.00    +0.410 HD
ATOM      8  O   LIG    1        4.210   4.834   2.366  0.00  0.00    -0.520 OA
ATOM      9  C   LIG    1        4.260   1.005   1.305  0.00  0.00    +0.520 C 
ATOM     10  O   LIG    1        4.268  -0.206   1.242  0.00  0.00    -0.530 OA
ENDROOT
BRANCH   1  11
ATOM     11  C   LIG    1        2.484   1.796  -0.216  0.00  0.00    +0.130 C 
BRANCH  11  18
ATOM     12  C   LIG    1        1.720   4.871  -0.246  0.00  0.00    +0.160 C 
ATOM     13  C   LIG    1        0.750   3.718  -0.287  0.00  0.00    +0.080 A 
ATOM     14  N   LIG    1       -0.553   3.814  -0.342  0.00  0.00    -0.290 NA
ATOM     15  N   LIG    1       -1.087   2.519  -0.371  0.00  0.00    -0.370 N 
ATOM     16  C   LIG    1       -0.059   1.645  -0.323  0.00  0.00    +0.250 A 
ATOM     17  C   LIG    1       -2.509   2.173  -0.437  0.00  0.00    +0.360 C 
ATOM     18  C   LIG    1        1.089   2.361  -0.275  0.00  0.00    -0.250 A 
ENDBRANCH  11  18
ENDBRANCH   1  11
BRANCH   5  19
ATOM     19  C   LIG    1        6.584   3.471   2.548  0.00  0.00    +0.060 C 
BRANCH  19  20
ATOM     20  C   LIG    1        7.951   2.970   2.080  0.00  0.00    -0.010 C 
ATOM     21  C   LIG    1        8.987   3.214   3.179  0.00  0.00    +0.050 C 
ATOM     22  C   LIG    1       10.355   2.713   2.711  0.00  0.00    +0.020 C 
ATOM     23  C   LIG    1       10.768   3.466   1.445  0.00  0.00    +0.290 C 
ATOM     24  C   LIG    1        9.732   3.222   0.346  0.00  0.00    +0.020 C 
ATOM     25  F   LIG    1       10.843   4.835   1.720  0.00  0.00    -0.200 F 
ATOM     26  F   LIG    1       12.019   3.007   1.017  0.00  0.00    -0.200 F 
ATOM     27  C   LIG    1        8.364   3.723   0.814  0.00  0.00    +0.040 C 
ENDBRANCH  19  20
ENDBRANCH   5  19
TORSDOF 4
