REMARK  Name = ZINCvU0000000Jvz.0
REMARK                            x       y       z     vdW  Elec       q    Type
REMARK                         _______ _______ _______ _____ _____    ______ ____
ROOT
ATOM      1  C   LIG    1       -1.123  -0.876  -0.027  0.00  0.00    +0.070 C 
ENDROOT
BRANCH   1   2
ATOM      2  C   LIG    1       -1.671  -0.948  -1.429  0.00  0.00    -0.100 A 
ATOM      3  C   LIG    1       -0.899  -1.478  -2.446  0.00  0.00    +0.040 A 
ATOM      4  C   LIG    1       -1.403  -1.548  -3.731  0.00  0.00    +0.000 A 
ATOM      5  C   LIG    1       -2.676  -1.080  -4.001  0.00  0.00    +0.010 A 
ATOM      6  C   LIG    1       -3.445  -0.544  -2.985  0.00  0.00    +0.010 A 
ATOM      7  C   LIG    1       -2.943  -0.478  -1.699  0.00  0.00    +0.060 A 
ENDBRANCH   1   2
BRANCH   1   8
ATOM      8  C   LIG    1        0.128  -0.035  -0.019  0.00  0.00    +0.550 C 
ATOM      9  N   LIG    1        0.037   1.306   0.086  0.00  0.00    -0.660 N 
ATOM     10  H   LIG    1       -0.832   1.736   0.077  0.00  0.00    +0.420 HD
ATOM     11  O   LIG    1        1.215  -0.564  -0.107  0.00  0.00    -0.500 OA
BRANCH   9  12
ATOM     12  C   LIG    1        1.199   2.079   0.201  0.00  0.00    +0.140 A 
ATOM     13  C   LIG    1        2.307   1.575   0.870  0.00  0.00    +0.060 A 
ATOM     14  C   LIG    1        3.453   2.337   0.977  0.00  0.00    +0.010 A 
ATOM     15  C   LIG    1        3.495   3.607   0.429  0.00  0.00    +0.090 A 
ATOM     16  C   LIG    1        2.390   4.115  -0.233  0.00  0.00    +0.010 A 
ATOM     17  F   LIG    1        4.616   4.354   0.540  0.00  0.00    -0.140 F 
ATOM     18  C   LIG    1        1.243   3.354  -0.348  0.00  0.00    +0.030 A 
ENDBRANCH   9  12
ENDBRANCH   1   8
BRANCH   1  19
ATOM     19  S   LIG    1       -0.731  -2.545   0.554  0.00  0.00    +0.080 S 
BRANCH  19  21
ATOM     20  N   LIG    1       -2.671  -4.521   0.954  0.00  0.00    -0.450 N 
ATOM     21  C   LIG    1       -2.348  -3.244   0.588  0.00  0.00    +0.140 A 
ATOM     22  N   LIG    1       -3.466  -2.638   0.262  0.00  0.00    -0.280 NA
ATOM     23  N   LIG    1       -4.460  -3.440   0.403  0.00  0.00    -0.270 NA
ATOM     24  C   LIG    1       -4.038  -4.608   0.827  0.00  0.00    +0.270 A 
BRANCH  24  25
ATOM     25  C   LIG    1       -4.874  -5.795   1.110  0.00  0.00    -0.130 A 
ATOM     26  C   LIG    1       -6.033  -5.833   1.822  0.00  0.00    +0.060 A 
ATOM     27  O   LIG    1       -6.474  -7.099   1.844  0.00  0.00    -0.170 OA
ATOM     28  C   LIG    1       -5.643  -7.905   1.168  0.00  0.00    +0.190 A 
ATOM     29  C   LIG    1       -6.706  -4.652   2.473  0.00  0.00    +0.180 C 
ATOM     30  C   LIG    1       -4.628  -7.176   0.676  0.00  0.00    -0.050 A 
ENDBRANCH  24  25
BRANCH  20  32
ATOM     31  C   LIG    1       -1.510  -5.446   2.897  0.00  0.00    +0.050 C 
ATOM     32  C   LIG    1       -1.754  -5.576   1.393  0.00  0.00    +0.300 C 
ENDBRANCH  20  32
ENDBRANCH  19  21
ENDBRANCH   1  19
TORSDOF 7
