REMARK  Name = ZINCkj00000GeTfn.1
REMARK                            x       y       z     vdW  Elec       q    Type
REMARK                         _______ _______ _______ _____ _____    ______ ____
ROOT
ATOM      1  N   LIG    1       -0.670   3.058  -1.286  0.00  0.00    -0.380 N 
ATOM      2  C   LIG    1       -1.395   3.548  -2.466  0.00  0.00    +0.260 C 
ATOM      3  C   LIG    1       -0.758   2.969  -3.732  0.00  0.00    +0.220 C 
ATOM      4  N   LIG    1       -0.812   1.502  -3.677  0.00  0.00    -0.530 NA
ATOM      5  C   LIG    1       -0.111   0.998  -2.487  0.00  0.00    +0.210 C 
ATOM      6  C   LIG    1       -0.753   1.593  -1.232  0.00  0.00    +0.180 C 
ATOM      7  H   LIG    1       -1.081   3.450  -0.452  0.00  0.00    +0.430 HD
ENDROOT
BRANCH   6   8
ATOM      8  C   LIG    1       -0.013   1.086   0.008  0.00  0.00    +0.050 C 
ATOM      9  C   LIG    1       -0.729   1.579   1.267  0.00  0.00    +0.030 C 
ENDBRANCH   6   8
BRANCH   1  10
ATOM     10  C   LIG    1        0.739   3.466  -1.373  0.00  0.00    +0.260 C 
BRANCH  10  11
ATOM     11  C   LIG    1        0.834   4.991  -1.305  0.00  0.00    +0.200 C 
BRANCH  11  12
ATOM     12  O   LIG    1        0.390   5.439  -0.022  0.00  0.00    -0.400 OA
BRANCH  12  14
ATOM     13  C   LIG    1       -0.057   7.220   1.548  0.00  0.00    +0.050 C 
ATOM     14  C   LIG    1        0.438   6.857   0.147  0.00  0.00    +0.180 C 
ENDBRANCH  12  14
ENDBRANCH  11  12
ENDBRANCH  10  11
ENDBRANCH   1  10
BRANCH   4  15
ATOM     15  C   LIG    1       -0.261   0.908  -4.903  0.00  0.00    +0.290 C 
BRANCH  15  16
ATOM     16  C   LIG    1       -0.826   1.621  -6.104  0.00  0.00    -0.260 A 
ATOM     17  C   LIG    1       -1.954   1.284  -6.772  0.00  0.00    +0.270 A 
ATOM     18  N   LIG    1       -2.115   2.168  -7.779  0.00  0.00    -0.370 N 
ATOM     19  N   LIG    1       -1.047   3.073  -7.733  0.00  0.00    -0.290 NA
ATOM     20  C   LIG    1       -3.211   2.177  -8.751  0.00  0.00    +0.350 C 
ATOM     21  C   LIG    1       -0.275   2.745  -6.729  0.00  0.00    +0.230 A 
ENDBRANCH  15  16
ENDBRANCH   4  15
TORSDOF 7
