REMARK  Name = ZINCkj00000GeTfn.0
REMARK                            x       y       z     vdW  Elec       q    Type
REMARK                         _______ _______ _______ _____ _____    ______ ____
ROOT
ATOM      1  N   LIG    1       -1.016   1.578   1.404  0.00  0.00    -0.380 N 
ATOM      2  C   LIG    1       -0.347   1.107   0.184  0.00  0.00    +0.280 C 
ATOM      3  C   LIG    1       -1.080   1.654  -1.043  0.00  0.00    +0.210 C 
ATOM      4  N   LIG    1       -1.076   3.123  -0.998  0.00  0.00    -0.540 NA
ATOM      5  C   LIG    1       -1.721   3.609   0.231  0.00  0.00    +0.210 C 
ATOM      6  C   LIG    1       -0.983   3.046   1.447  0.00  0.00    +0.170 C 
ATOM      7  H   LIG    1       -1.975   1.263   1.404  0.00  0.00    +0.420 HD
ENDROOT
BRANCH   6   8
ATOM      8  C   LIG    1       -1.664   3.534   2.728  0.00  0.00    +0.030 C 
ATOM      9  C   LIG    1       -1.557   5.058   2.813  0.00  0.00    +0.060 C 
ENDBRANCH   6   8
BRANCH   1  10
ATOM     10  C   LIG    1       -0.323   1.038   2.581  0.00  0.00    +0.280 C 
BRANCH  10  11
ATOM     11  C   LIG    1       -0.501  -0.481   2.625  0.00  0.00    +0.200 C 
BRANCH  11  12
ATOM     12  O   LIG    1        0.227  -1.077   1.550  0.00  0.00    -0.390 OA
BRANCH  12  14
ATOM     13  C   LIG    1        0.940  -3.029   0.315  0.00  0.00    +0.050 C 
ATOM     14  C   LIG    1        0.127  -2.502   1.499  0.00  0.00    +0.180 C 
ENDBRANCH  12  14
ENDBRANCH  11  12
ENDBRANCH  10  11
ENDBRANCH   1  10
BRANCH   4  15
ATOM     15  C   LIG    1       -1.722   3.688  -2.190  0.00  0.00    +0.280 C 
BRANCH  15  16
ATOM     16  C   LIG    1       -0.897   3.366  -3.409  0.00  0.00    -0.250 A 
ATOM     17  C   LIG    1        0.099   4.126  -3.921  0.00  0.00    +0.270 A 
ATOM     18  N   LIG    1        0.585   3.490  -5.007  0.00  0.00    -0.370 N 
ATOM     19  N   LIG    1       -0.141   2.303  -5.173  0.00  0.00    -0.290 NA
ATOM     20  C   LIG    1        1.676   3.960  -5.864  0.00  0.00    +0.360 C 
ATOM     21  C   LIG    1       -1.028   2.230  -4.215  0.00  0.00    +0.230 A 
ENDBRANCH  15  16
ENDBRANCH   4  15
TORSDOF 7
