REMARK  Name = ZINCrH000004oghj.0
REMARK                            x       y       z     vdW  Elec       q    Type
REMARK                         _______ _______ _______ _____ _____    ______ ____
ROOT
ATOM      1  N   LIG    1       -1.574  -3.789   4.082  0.00  0.00    -0.730 N 
ATOM      2  H   LIG    1       -0.827  -4.097   4.619  0.00  0.00    +0.400 HD
ATOM      3  C   LIG    1       -1.348  -3.117   2.936  0.00  0.00    +0.520 C 
ATOM      4  O   LIG    1       -2.282  -2.732   2.265  0.00  0.00    -0.520 OA
ENDROOT
BRANCH   1   6
ATOM      5  C   LIG    1       -3.479  -2.847   5.292  0.00  0.00    +0.040 C 
ATOM      6  C   LIG    1       -2.947  -4.054   4.517  0.00  0.00    +0.280 C 
BRANCH   6   7
ATOM      7  C   LIG    1       -2.966  -5.271   5.407  0.00  0.00    -0.090 A 
ATOM      8  C   LIG    1       -1.955  -5.466   6.329  0.00  0.00    +0.040 A 
ATOM      9  C   LIG    1       -1.972  -6.578   7.150  0.00  0.00    +0.010 A 
ATOM     10  C   LIG    1       -3.001  -7.503   7.041  0.00  0.00    +0.150 A 
ATOM     11  C   LIG    1       -4.013  -7.306   6.110  0.00  0.00    +0.030 A 
ATOM     12  C   LIG    1       -3.992  -6.191   5.296  0.00  0.00    +0.060 A 
BRANCH  10  13
ATOM     13  N   LIG    1       -3.019  -8.634   7.869  0.00  0.00    -0.330 N 
ATOM     14  C   LIG    1       -2.111  -8.962   8.809  0.00  0.00    +0.480 A 
ATOM     15  N   LIG    1       -2.487 -10.087   9.361  0.00  0.00    -0.530 NA
ATOM     16  C   LIG    1       -3.619 -10.510   8.799  0.00  0.00    +0.440 A 
ATOM     17  N   LIG    1       -3.984  -9.655   7.880  0.00  0.00    -0.310 NA
ENDBRANCH  10  13
ENDBRANCH   6   7
ENDBRANCH   1   6
BRANCH   3  18
ATOM     18  C   LIG    1        0.065  -2.844   2.488  0.00  0.00    +0.120 C 
BRANCH  18  19
ATOM     19  C   LIG    1        0.042  -2.084   1.188  0.00  0.00    -0.070 A 
ATOM     20  C   LIG    1        0.039  -2.768  -0.013  0.00  0.00    +0.060 A 
ATOM     21  C   LIG    1        0.017  -2.071  -1.207  0.00  0.00    +0.020 A 
ATOM     22  C   LIG    1       -0.006  -0.689  -1.199  0.00  0.00    +0.070 A 
ATOM     23  C   LIG    1        0.002  -0.004   0.002  0.00  0.00    -0.180 A 
ATOM     24  C   LIG    1        0.023  -0.702   1.195  0.00  0.00    +0.070 A 
BRANCH  23  25
ATOM     25  C   LIG    1       -0.018   1.503   0.010  0.00  0.00    +0.510 C 
ATOM     26  F   LIG    1       -0.673   1.954   1.161  0.00  0.00    -0.180 F 
ATOM     27  F   LIG    1       -0.695   1.966  -1.123  0.00  0.00    -0.180 F 
ATOM     28  F   LIG    1        1.294   1.987   0.000  0.00  0.00    -0.180 F 
ENDBRANCH  23  25
ENDBRANCH  18  19
ENDBRANCH   3  18
TORSDOF 6
