REMARK  Name = ZINCrH00000No4Fw.0
REMARK                            x       y       z     vdW  Elec       q    Type
REMARK                         _______ _______ _______ _____ _____    ______ ____
ROOT
ATOM      1  N   LIG    1       -3.087   3.896   1.412  0.00  0.00    -0.720 N 
ATOM      2  H   LIG    1       -2.593   3.473   2.131  0.00  0.00    +0.400 HD
ATOM      3  C   LIG    1       -4.263   4.503   1.669  0.00  0.00    +0.550 C 
ATOM      4  O   LIG    1       -4.884   5.034   0.766  0.00  0.00    -0.550 OA
ENDROOT
BRANCH   3   5
ATOM      5  C   LIG    1       -4.775   4.523   2.988  0.00  0.00    -0.080 C 
ATOM      6  C   LIG    1       -5.958   5.134   3.247  0.00  0.00    +0.160 C 
BRANCH   6   7
ATOM      7  C   LIG    1       -6.471   5.155   4.567  0.00  0.00    -0.020 A 
ATOM      8  C   LIG    1       -5.875   4.597   5.679  0.00  0.00    +0.010 A 
ATOM      9  C   LIG    1       -6.729   4.857   6.762  0.00  0.00    -0.060 A 
ATOM     10  C   LIG    1       -7.787   5.547   6.280  0.00  0.00    +0.050 A 
ATOM     11  O   LIG    1       -7.626   5.729   4.962  0.00  0.00    -0.160 OA
BRANCH  10  12
ATOM     12  C   LIG    1       -8.955   6.038   7.095  0.00  0.00    +0.050 C 
ATOM     13  C   LIG    1      -10.149   6.624   6.338  0.00  0.00    +0.050 C 
ATOM     14  C   LIG    1       -9.213   7.546   7.123  0.00  0.00    -0.010 C 
ATOM     15  C   LIG    1       -8.266   8.440   6.321  0.00  0.00    +0.060 C 
ENDBRANCH  10  12
ENDBRANCH   6   7
ENDBRANCH   3   5
BRANCH   1  16
ATOM     16  C   LIG    1       -2.557   3.874   0.046  0.00  0.00    +0.340 C 
BRANCH  16  22
ATOM     17  C   LIG    1       -1.222   1.753   0.017  0.00  0.00    +0.150 A 
ATOM     18  C   LIG    1       -0.013   1.076   0.008  0.00  0.00    -0.130 A 
ATOM     19  C   LIG    1        1.177   1.785   0.000  0.00  0.00    +0.150 A 
ATOM     20  C   LIG    1        1.156   3.176   0.008  0.00  0.00    +0.060 A 
ATOM     21  C   LIG    1       -0.055   3.849   0.022  0.00  0.00    +0.040 A 
ATOM     22  C   LIG    1       -1.241   3.140   0.030  0.00  0.00    -0.140 A 
BRANCH  17  24
ATOM     23  C   LIG    1       -2.297  -0.368   0.011  0.00  0.00    +0.250 C 
ATOM     24  O   LIG    1       -2.391   1.058   0.019  0.00  0.00    -0.310 OA
ENDBRANCH  17  24
BRANCH  20  25
ATOM     25  O   LIG    1        2.323   3.876   0.001  0.00  0.00    -0.310 OA
ATOM     26  C   LIG    1        2.226   5.301   0.009  0.00  0.00    +0.240 C 
ENDBRANCH  20  25
BRANCH  19  27
ATOM     27  O   LIG    1        2.365   1.123  -0.014  0.00  0.00    -0.300 OA
ATOM     28  C   LIG    1        2.311  -0.305  -0.020  0.00  0.00    +0.240 C 
ENDBRANCH  19  27
ENDBRANCH  16  22
ENDBRANCH   1  16
TORSDOF 8
