REMARK  Name = ZINCpk000000oyMr.0
REMARK                            x       y       z     vdW  Elec       q    Type
REMARK                         _______ _______ _______ _____ _____    ______ ____
ROOT
ATOM      1  N   LIG    1        1.277   5.388   1.686  0.00  0.00    -0.590 N 
ATOM      2  C   LIG    1        1.240   4.064   1.433  0.00  0.00    +0.510 C 
ATOM      3  O   LIG    1        1.228   3.271   2.351  0.00  0.00    -0.520 OA
ENDROOT
BRANCH   1   5
ATOM      4  C   LIG    1       -0.145   6.716   0.205  0.00  0.00    +0.010 C 
ATOM      5  C   LIG    1        1.291   6.345   0.577  0.00  0.00    +0.270 C 
ENDBRANCH   1   5
BRANCH   2   6
ATOM      6  C   LIG    1        1.213   3.570   0.010  0.00  0.00    +0.340 C 
BRANCH   6   7
ATOM      7  N   LIG    1        1.175   2.105   0.002  0.00  0.00    -0.530 N 
ATOM      8  C   LIG    1        2.337   1.402  -0.013  0.00  0.00    +0.590 A 
ATOM      9  N   LIG    1        2.386   0.104  -0.020  0.00  0.00    -0.520 NA
ATOM     10  C   LIG    1        1.259  -0.650  -0.013  0.00  0.00    +0.170 A 
ATOM     11  C   LIG    1        1.311  -2.045  -0.022  0.00  0.00    +0.050 A 
ATOM     12  C   LIG    1        0.140  -2.772  -0.015  0.00  0.00    +0.010 A 
ATOM     13  C   LIG    1       -1.094  -2.132   0.000  0.00  0.00    +0.020 A 
ATOM     14  C   LIG    1       -1.170  -0.757   0.009  0.00  0.00    +0.120 A 
ATOM     15 CL   LIG    1        0.207  -4.506  -0.026  0.00  0.00    -0.050 Cl
ATOM     16  C   LIG    1        0.002  -0.004   0.002  0.00  0.00    -0.190 A 
ATOM     17  C   LIG    1       -0.018   1.466   0.010  0.00  0.00    +0.560 A 
ATOM     18  O   LIG    1       -1.067   2.084   0.018  0.00  0.00    -0.500 OA
ENDBRANCH   6   7
ENDBRANCH   2   6
BRANCH   1  19
ATOM     19  C   LIG    1        1.303   5.868   3.070  0.00  0.00    +0.330 C 
BRANCH  19  20
ATOM     20  C   LIG    1        2.732   5.996   3.530  0.00  0.00    +0.500 C 
ATOM     21  N   LIG    1        3.002   6.424   4.779  0.00  0.00    -0.730 N 
ATOM     22  H   LIG    1        2.276   6.650   5.382  0.00  0.00    +0.400 HD
ATOM     23  O   LIG    1        3.640   5.713   2.777  0.00  0.00    -0.530 OA
BRANCH  21  24
ATOM     24  C   LIG    1        4.391   6.548   5.227  0.00  0.00    +0.230 C 
ATOM     25  C   LIG    1        4.884   5.195   5.743  0.00  0.00    +0.030 C 
ATOM     26  C   LIG    1        4.474   7.583   6.351  0.00  0.00    +0.030 C 
ENDBRANCH  21  24
ENDBRANCH  19  20
ENDBRANCH   1  19
TORSDOF 6
