REMARK  Name = ZINCpe00000VVGjt.0
REMARK                            x       y       z     vdW  Elec       q    Type
REMARK                         _______ _______ _______ _____ _____    ______ ____
ROOT
ATOM      1  N   LIG    1        0.788  -0.659   0.378  0.00  0.00    -0.530 NA
ATOM      2  C   LIG    1        0.175   0.004  -0.782  0.00  0.00    +0.200 C 
ATOM      3  C   LIG    1        0.080   1.508  -0.515  0.00  0.00    +0.190 C 
ATOM      4  N   LIG    1        1.423   2.043  -0.255  0.00  0.00    -0.530 NA
ATOM      5  C   LIG    1        2.036   1.380   0.905  0.00  0.00    +0.190 C 
ATOM      6  C   LIG    1        2.132  -0.124   0.638  0.00  0.00    +0.180 C 
ENDROOT
BRANCH   1   8
ATOM      7  C   LIG    1       -0.596  -2.647   0.018  0.00  0.00    +0.080 C 
ATOM      8  C   LIG    1        0.828  -2.115   0.192  0.00  0.00    +0.270 C 
BRANCH   8   9
ATOM      9  C   LIG    1        1.462  -2.759   1.398  0.00  0.00    +0.190 A 
ATOM     10  N   LIG    1        2.371  -3.704   1.393  0.00  0.00    -0.480 NA
ATOM     11  C   LIG    1        2.633  -3.961   2.686  0.00  0.00    +0.200 A 
ATOM     12  N   LIG    1        1.884  -3.175   3.400  0.00  0.00    -0.380 NA
ATOM     13  O   LIG    1        1.208  -2.472   2.679  0.00  0.00    +0.100 OA
BRANCH  11  14
ATOM     14  C   LIG    1        3.615  -4.976   3.212  0.00  0.00    +0.060 C 
ATOM     15  C   LIG    1        3.612  -5.248   4.718  0.00  0.00    +0.050 C 
ATOM     16  C   LIG    1        4.763  -4.463   4.085  0.00  0.00    +0.050 C 
ENDBRANCH  11  14
ENDBRANCH   8   9
ENDBRANCH   1   8
BRANCH   4  17
ATOM     17  C   LIG    1        1.383   3.500  -0.069  0.00  0.00    +0.150 C 
BRANCH  17  18
ATOM     18  C   LIG    1        2.780   4.006   0.295  0.00  0.00    +0.210 C 
BRANCH  18  19
ATOM     19  O   LIG    1        3.696   3.668  -0.749  0.00  0.00    -0.540 OA
ATOM     20  H   LIG    1        3.470   4.047  -1.609  0.00  0.00    +0.370 HD
ENDBRANCH  18  19
BRANCH  18  21
ATOM     21  C   LIG    1        2.743   5.526   0.467  0.00  0.00    +0.290 C 
BRANCH  21  22
ATOM     22  N   LIG    1        4.050   5.997   0.931  0.00  0.00    -0.370 N 
ATOM     23  C   LIG    1        4.811   6.940   0.336  0.00  0.00    +0.230 A 
ATOM     24  C   LIG    1        5.935   7.088   1.074  0.00  0.00    -0.120 A 
ATOM     25  C   LIG    1        5.863   6.199   2.152  0.00  0.00    +0.230 A 
ATOM     26  N   LIG    1        4.734   5.545   2.067  0.00  0.00    -0.290 NA
ENDBRANCH  21  22
ENDBRANCH  18  21
ENDBRANCH  17  18
ENDBRANCH   4  17
TORSDOF 8
