REMARK  Name = ZINCtV00000L6jem.0
REMARK                            x       y       z     vdW  Elec       q    Type
REMARK                         _______ _______ _______ _____ _____    ______ ____
ROOT
ATOM      1  N   LIG    1        2.873   5.135  -0.438  0.00  0.00    -0.510 NA
ATOM      2  C   LIG    1        3.927   5.782  -1.230  0.00  0.00    +0.210 C 
ENDROOT
BRANCH   1   3
ATOM      3  C   LIG    1        2.244   6.092   0.483  0.00  0.00    +0.220 C 
BRANCH   3   6
ATOM      4  N   LIG    1        2.895   7.412   2.471  0.00  0.00    -0.680 N 
ATOM      5  H   LIG    1        1.973   7.705   2.542  0.00  0.00    +0.410 HD
ATOM      6  C   LIG    1        3.250   6.530   1.516  0.00  0.00    +0.510 C 
ATOM      7  O   LIG    1        4.380   6.088   1.488  0.00  0.00    -0.480 OA
BRANCH   4  13
ATOM      8  C   LIG    1        5.024  11.237   4.715  0.00  0.00    +0.120 C 
ATOM      9  C   LIG    1        4.911   9.755   4.469  0.00  0.00    -0.060 A 
ATOM     10  C   LIG    1        5.758   8.879   5.123  0.00  0.00    +0.030 A 
ATOM     11  C   LIG    1        5.658   7.518   4.899  0.00  0.00    +0.050 A 
ATOM     12  C   LIG    1        4.707   7.028   4.025  0.00  0.00    -0.030 A 
ATOM     13  C   LIG    1        3.857   7.905   3.362  0.00  0.00    +0.170 A 
ATOM     14 CL   LIG    1        4.578   5.318   3.751  0.00  0.00    -0.030 Cl
ATOM     15  C   LIG    1        3.960   9.271   3.588  0.00  0.00    -0.050 A 
ATOM     16 CL   LIG    1        2.897  10.371   2.767  0.00  0.00    -0.050 Cl
ENDBRANCH   4  13
ENDBRANCH   3   6
ENDBRANCH   1   3
BRANCH   1  17
ATOM     17  C   LIG    1        1.871   4.507  -1.309  0.00  0.00    +0.230 C 
BRANCH  17  18
ATOM     18  C   LIG    1        0.853   3.784  -0.464  0.00  0.00    -0.090 A 
ATOM     19  C   LIG    1       -0.494   3.914  -0.743  0.00  0.00    +0.050 A 
ATOM     20  C   LIG    1       -1.428   3.251   0.030  0.00  0.00    -0.010 A 
ATOM     21  C   LIG    1       -1.013   2.455   1.085  0.00  0.00    +0.100 A 
ATOM     22  C   LIG    1        0.337   2.325   1.363  0.00  0.00    -0.020 A 
ATOM     23  F   LIG    1       -1.925   1.807   1.842  0.00  0.00    -0.140 F 
ATOM     24  C   LIG    1        1.269   2.990   0.588  0.00  0.00    +0.080 A 
ENDBRANCH  17  18
BRANCH  17  25
ATOM     25  C   LIG    1        2.549   3.525  -2.229  0.00  0.00    -0.080 A 
ATOM     26  C   LIG    1        3.505   2.659  -1.732  0.00  0.00    +0.040 A 
ATOM     27  C   LIG    1        4.125   1.756  -2.575  0.00  0.00    +0.000 A 
ATOM     28  C   LIG    1        3.795   1.724  -3.917  0.00  0.00    +0.000 A 
ATOM     29  C   LIG    1        2.843   2.594  -4.415  0.00  0.00    +0.000 A 
ATOM     30  C   LIG    1        2.220   3.494  -3.571  0.00  0.00    +0.010 A 
ENDBRANCH  17  25
ENDBRANCH   1  17
TORSDOF 6
