REMARK  Name = ZINCrg00000UNc2h.0
REMARK                            x       y       z     vdW  Elec       q    Type
REMARK                         _______ _______ _______ _____ _____    ______ ____
ROOT
ATOM      1  C   LIG    1       -3.726  -5.115  -0.064  0.00  0.00    +0.520 C 
ATOM      2  N   LIG    1       -2.558  -5.711  -0.374  0.00  0.00    -0.600 N 
ATOM      3  C   LIG    1       -2.227  -6.958   0.254  0.00  0.00    +0.290 C 
ATOM      4  C   LIG    1       -1.541  -6.646   1.594  0.00  0.00    -0.010 C 
ATOM      5  C   LIG    1       -0.134  -6.257   1.412  0.00  0.00    +0.280 C 
ATOM      6  N   LIG    1       -0.038  -5.069   0.529  0.00  0.00    -0.600 N 
ATOM      7  C   LIG    1       -0.190  -5.215  -0.891  0.00  0.00    +0.270 C 
ATOM      8  C   LIG    1        0.185  -3.852   1.061  0.00  0.00    +0.600 C 
ATOM      9  O   LIG    1        0.399  -3.738   2.253  0.00  0.00    -0.540 OA
ATOM     10  C   LIG    1       -1.653  -5.054  -1.357  0.00  0.00    +0.250 C 
ATOM     11  O   LIG    1       -4.478  -5.632   0.734  0.00  0.00    -0.530 OA
ENDROOT
BRANCH   8  12
ATOM     12  C   LIG    1        0.171  -2.656   0.198  0.00  0.00    -0.300 A 
ATOM     13  C   LIG    1        0.516  -1.373   0.570  0.00  0.00    +0.320 A 
ATOM     14  N   LIG    1        0.363  -0.587  -0.508  0.00  0.00    -0.360 N 
ATOM     15  N   LIG    1       -0.087  -1.376  -1.572  0.00  0.00    -0.290 NA
ATOM     16  C   LIG    1        0.620   0.854  -0.560  0.00  0.00    +0.360 C 
ATOM     17  C   LIG    1       -0.201  -2.610  -1.164  0.00  0.00    +0.250 A 
ENDBRANCH   8  12
BRANCH   1  18
ATOM     18  C   LIG    1       -4.098  -3.804  -0.709  0.00  0.00    +0.040 C 
BRANCH  18  19
ATOM     19  C   LIG    1       -5.462  -3.348  -0.188  0.00  0.00    +0.030 C 
BRANCH  19  20
ATOM     20  C   LIG    1       -5.362  -3.048   1.309  0.00  0.00    +0.020 C 
BRANCH  20  22
ATOM     21  C   LIG    1       -7.641  -3.964   1.765  0.00  0.00    +0.020 C 
ATOM     22  C   LIG    1       -6.752  -2.722   1.858  0.00  0.00    -0.030 C 
ATOM     23  C   LIG    1       -6.634  -2.288   3.321  0.00  0.00    +0.000 C 
ENDBRANCH  20  22
ENDBRANCH  19  20
BRANCH  19  24
ATOM     24  C   LIG    1       -5.896  -2.084  -0.934  0.00  0.00    +0.050 C 
BRANCH  24  25
ATOM     25  C   LIG    1       -6.155  -2.418  -2.380  0.00  0.00    +0.510 C 
ATOM     26  O   LIG    1       -6.114  -3.572  -2.753  0.00  0.00    -0.540 OA
ATOM     27  N   LIG    1       -6.432  -1.436  -3.260  0.00  0.00    -0.860 N 
ATOM     28  H   LIG    1       -6.599  -1.651  -4.191  0.00  0.00    +0.400 HD
ATOM     29  H   LIG    1       -6.465  -0.513  -2.962  0.00  0.00    +0.400 HD
ENDBRANCH  24  25
ENDBRANCH  19  24
ENDBRANCH  18  19
ENDBRANCH   1  18
TORSDOF 7
