REMARK  Name = ZINCpe00000RbODD.0
REMARK                            x       y       z     vdW  Elec       q    Type
REMARK                         _______ _______ _______ _____ _____    ______ ____
ROOT
ATOM      1  C   LIG    1       -0.777   1.548  -1.278  0.00  0.00    +0.230 C 
ATOM      2  C   LIG    1       -0.013   1.085  -0.035  0.00  0.00    +0.010 C 
ATOM      3  C   LIG    1       -0.706   1.623   1.219  0.00  0.00    +0.020 C 
ATOM      4  C   LIG    1       -2.130   1.064   1.292  0.00  0.00    +0.290 C 
ATOM      5  N   LIG    1       -2.826   1.380   0.037  0.00  0.00    -0.570 N 
ATOM      6  C   LIG    1       -2.203   0.988  -1.235  0.00  0.00    +0.300 C 
ENDROOT
BRANCH   5   7
ATOM      7  C   LIG    1       -4.049   2.037   0.052  0.00  0.00    +0.350 A 
ATOM      8  N   LIG    1       -4.600   2.446  -1.070  0.00  0.00    -0.510 NA
ATOM      9  C   LIG    1       -5.777   3.072  -1.063  0.00  0.00    +0.190 A 
ATOM     10  C   LIG    1       -6.441   3.322   0.085  0.00  0.00    +0.170 A 
ATOM     11  N   LIG    1       -5.930   2.933   1.288  0.00  0.00    -0.590 N 
ATOM     12  H   LIG    1       -6.413   3.116   2.109  0.00  0.00    +0.420 HD
ATOM     13  C   LIG    1       -4.741   2.290   1.321  0.00  0.00    +0.490 A 
ATOM     14  O   LIG    1       -4.256   1.930   2.380  0.00  0.00    -0.520 OA
ENDBRANCH   5   7
BRANCH   1  17
ATOM     15  O   LIG    1        1.286   2.798  -2.485  0.00  0.00    -0.530 OA
ATOM     16  C   LIG    1        0.927   1.759  -3.007  0.00  0.00    +0.570 C 
ATOM     17  N   LIG    1       -0.097   1.059  -2.480  0.00  0.00    -0.720 N 
ATOM     18  H   LIG    1       -0.383   0.231  -2.897  0.00  0.00    +0.400 HD
BRANCH  16  19
ATOM     19  C   LIG    1        1.611   1.268  -4.215  0.00  0.00    -0.160 A 
ATOM     20  C   LIG    1        2.665   1.978  -4.768  0.00  0.00    +0.180 A 
ATOM     21  C   LIG    1        3.293   1.479  -5.920  0.00  0.00    -0.030 A 
ATOM     22  C   LIG    1        4.345   1.935  -6.696  0.00  0.00    +0.210 A 
ATOM     23  N   LIG    1        4.523   1.056  -7.680  0.00  0.00    -0.460 NA
ATOM     24  C   LIG    1        3.654   0.082  -7.571  0.00  0.00    +0.380 A 
ATOM     25  N   LIG    1        2.869   0.297  -6.496  0.00  0.00    -0.370 N 
ATOM     26  C   LIG    1        1.825  -0.414  -5.957  0.00  0.00    +0.220 A 
ATOM     27  C   LIG    1        1.194   0.015  -4.852  0.00  0.00    +0.040 A 
ENDBRANCH  16  19
ENDBRANCH   1  17
TORSDOF 3
