REMARK  Name = ZINCrD0000070YHu.0
REMARK                            x       y       z     vdW  Elec       q    Type
REMARK                         _______ _______ _______ _____ _____    ______ ____
ROOT
ATOM      1  C   LIG    1       -4.203   4.523  -1.556  0.00  0.00    +0.600 C 
ATOM      2  N   LIG    1       -3.033   3.895  -1.325  0.00  0.00    -0.710 N 
ATOM      3  H   LIG    1       -2.521   3.536  -2.066  0.00  0.00    +0.400 HD
ATOM      4  O   LIG    1       -4.846   4.974  -0.626  0.00  0.00    -0.520 OA
ENDROOT
BRANCH   1   8
ATOM      5  C   LIG    1       -4.836   4.520  -5.117  0.00  0.00    +0.050 A 
ATOM      6  C   LIG    1       -5.953   5.185  -4.697  0.00  0.00    -0.030 A 
ATOM      7  C   LIG    1       -5.877   5.275  -3.303  0.00  0.00    +0.060 A 
ATOM      8  C   LIG    1       -4.701   4.664  -2.929  0.00  0.00    -0.070 A 
ATOM      9  O   LIG    1       -4.090   4.212  -4.043  0.00  0.00    -0.150 OA
BRANCH   5  13
ATOM     10  C   LIG    1       -3.884   3.583  -9.142  0.00  0.00    -0.160 A 
ATOM     11  C   LIG    1       -3.016   3.204  -8.110  0.00  0.00    +0.080 A 
ATOM     12  C   LIG    1       -3.324   3.506  -6.814  0.00  0.00    +0.030 A 
ATOM     13  C   LIG    1       -4.505   4.194  -6.518  0.00  0.00    +0.010 A 
ATOM     14  C   LIG    1       -5.374   4.569  -7.547  0.00  0.00    +0.030 A 
ATOM     15  C   LIG    1       -5.066   4.272  -8.844  0.00  0.00    +0.070 A 
BRANCH  10  17
ATOM     16  C   LIG    1       -4.487   3.667 -11.647  0.00  0.00    +0.080 C 
ATOM     17  C   LIG    1       -3.553   3.259 -10.537  0.00  0.00    +0.390 C 
ATOM     18  O   LIG    1       -2.529   2.662 -10.794  0.00  0.00    -0.450 OA
ENDBRANCH  10  17
ENDBRANCH   5  13
ENDBRANCH   1   8
BRANCH   2  19
ATOM     19  C   LIG    1       -2.535   3.755   0.046  0.00  0.00    +0.360 C 
BRANCH  19  20
ATOM     20  C   LIG    1       -1.220   3.021   0.030  0.00  0.00    -0.260 A 
ATOM     21  C   LIG    1       -0.044   3.712   0.023  0.00  0.00    +0.050 A 
ATOM     22  C   LIG    1        1.167   3.006   0.007  0.00  0.00    -0.090 A 
ATOM     23  C   LIG    1        1.160   1.653  -0.000  0.00  0.00    +0.180 A 
ATOM     24  N   LIG    1       -0.011   0.966   0.007  0.00  0.00    -0.610 N 
ATOM     25  H   LIG    1        0.002  -0.004   0.002  0.00  0.00    +0.420 HD
ATOM     26  C   LIG    1        2.466   0.901  -0.017  0.00  0.00    +0.150 C 
ATOM     27  C   LIG    1       -0.047   5.220   0.031  0.00  0.00    +0.120 C 
ATOM     28  C   LIG    1       -1.191   1.615   0.017  0.00  0.00    +0.530 A 
ATOM     29  O   LIG    1       -2.235   0.984   0.018  0.00  0.00    -0.540 OA
ENDBRANCH  19  20
ENDBRANCH   2  19
TORSDOF 5
