REMARK  Name = ZINCvU0000000D9n.0
REMARK                            x       y       z     vdW  Elec       q    Type
REMARK                         _______ _______ _______ _____ _____    ______ ____
ROOT
ATOM      1  C   LIG    1        4.976   1.265   0.086  0.00  0.00    +0.430 C 
ATOM      2  O   LIG    1        5.271   0.090   0.164  0.00  0.00    -0.440 OA
ENDROOT
BRANCH   1   6
ATOM      3  C   LIG    1        0.726   4.064  -0.172  0.00  0.00    +0.140 C 
ATOM      4  C   LIG    1        1.699   2.917  -0.082  0.00  0.00    +0.010 A 
ATOM      5  C   LIG    1        3.038   3.031  -0.062  0.00  0.00    +0.000 A 
ATOM      6  C   LIG    1        3.567   1.664   0.033  0.00  0.00    -0.260 A 
ATOM      7  C   LIG    1        2.464   0.832   0.068  0.00  0.00    +0.120 A 
ATOM      8  C   LIG    1        2.493  -0.671   0.168  0.00  0.00    +0.150 C 
ATOM      9  N   LIG    1        1.360   1.597  -0.008  0.00  0.00    -0.430 N 
BRANCH   9  10
ATOM     10  C   LIG    1       -0.013   1.085  -0.004  0.00  0.00    +0.270 C 
ATOM     11  C   LIG    1       -0.805   1.738   1.143  0.00  0.00    +0.070 C 
ATOM     12  C   LIG    1       -2.298   1.420   0.891  0.00  0.00    -0.290 C 
ATOM     13  S   LIG    1       -2.462   1.685  -0.915  0.00  0.00    +2.390 S 
ATOM     14  O   LIG    1       -3.235   0.633  -1.477  0.00  0.00    -0.920 OA
ATOM     15  O   LIG    1       -2.818   3.038  -1.163  0.00  0.00    -0.920 OA
ATOM     16  C   LIG    1       -0.700   1.435  -1.338  0.00  0.00    -0.330 C 
ENDBRANCH   9  10
ENDBRANCH   1   6
BRANCH   1  17
ATOM     17  C   LIG    1        6.058   2.313   0.042  0.00  0.00    +0.220 C 
BRANCH  17  18
ATOM     18  O   LIG    1        7.337   1.679   0.107  0.00  0.00    -0.280 OA
BRANCH  18  19
ATOM     19  C   LIG    1        8.428   2.489   0.079  0.00  0.00    +0.140 A 
ATOM     20  C   LIG    1        8.268   3.864  -0.010  0.00  0.00    -0.060 A 
ATOM     21  C   LIG    1        9.374   4.688  -0.038  0.00  0.00    +0.080 A 
ATOM     22  C   LIG    1       10.653   4.139   0.022  0.00  0.00    -0.070 A 
ATOM     23  C   LIG    1       10.812   2.757   0.111  0.00  0.00    +0.080 A 
ATOM     24  C   LIG    1        9.702   1.937   0.144  0.00  0.00    -0.060 A 
ATOM     25 CL   LIG    1        9.898   0.216   0.262  0.00  0.00    -0.050 Cl
BRANCH  22  26
ATOM     26  C   LIG    1       11.844   5.023  -0.007  0.00  0.00    -0.040 A 
ATOM     27  C   LIG    1       11.687   6.405  -0.101  0.00  0.00    +0.020 A 
ATOM     28  C   LIG    1       12.799   7.223  -0.122  0.00  0.00    +0.010 A 
ATOM     29  C   LIG    1       14.066   6.673  -0.062  0.00  0.00    +0.000 A 
ATOM     30  C   LIG    1       14.228   5.302   0.025  0.00  0.00    +0.020 A 
ATOM     31  C   LIG    1       13.124   4.475   0.053  0.00  0.00    +0.020 A 
ENDBRANCH  22  26
ENDBRANCH  18  19
ENDBRANCH  17  18
ENDBRANCH   1  17
TORSDOF 6
