REMARK  Name = ZINCkj000005hHte.0
REMARK                            x       y       z     vdW  Elec       q    Type
REMARK                         _______ _______ _______ _____ _____    ______ ____
ROOT
ATOM      1  N   LIG    1        0.155   2.027  -2.279  0.00  0.00    -0.500 N 
ATOM      2  H   LIG    1        0.816   2.688  -1.898  0.00  0.00    +0.430 HD
ATOM      3  H   LIG    1       -0.359   2.461  -3.031  0.00  0.00    +0.440 HD
ENDROOT
BRANCH   1   8
ATOM      4  C   LIG    1       -0.351   1.345   2.479  0.00  0.00    +0.670 C 
ATOM      5  N   LIG    1       -0.721   1.570   1.202  0.00  0.00    -0.610 N 
ATOM      6  C   LIG    1       -1.903   2.341   0.767  0.00  0.00    +0.300 C 
ATOM      7  C   LIG    1       -1.556   2.826  -0.662  0.00  0.00    +0.070 C 
ATOM      8  C   LIG    1       -0.779   1.607  -1.226  0.00  0.00    +0.180 C 
ATOM      9  C   LIG    1       -0.013   1.086   0.008  0.00  0.00    +0.310 C 
ATOM     10  O   LIG    1        0.645   0.692   2.717  0.00  0.00    -0.550 OA
BRANCH   4  12
ATOM     11  C   LIG    1       -0.630   1.563   4.839  0.00  0.00    +0.300 C 
ATOM     12  O   LIG    1       -1.087   1.845   3.490  0.00  0.00    -0.360 OA
ENDBRANCH   4  12
ENDBRANCH   1   8
BRANCH   1  13
ATOM     13  C   LIG    1        0.875   0.854  -2.791  0.00  0.00    +0.330 C 
BRANCH  13  14
ATOM     14  C   LIG    1        1.833   1.285  -3.872  0.00  0.00    -0.140 A 
ATOM     15  C   LIG    1        1.420   1.313  -5.191  0.00  0.00    +0.030 A 
ATOM     16  C   LIG    1        2.298   1.713  -6.181  0.00  0.00    +0.110 A 
ATOM     17  C   LIG    1        3.591   2.076  -5.854  0.00  0.00    -0.430 A 
ATOM     18  C   LIG    1        4.005   2.043  -4.535  0.00  0.00    +0.090 A 
ATOM     19  C   LIG    1        3.126   1.647  -3.544  0.00  0.00    +0.020 A 
BRANCH  17  20
ATOM     20  S   LIG    1        4.711   2.581  -7.117  0.00  0.00    +1.340 S 
ATOM     21  O   LIG    1        5.651   3.378  -6.410  0.00  0.00    -0.840 OA
ATOM     22  C   LIG    1        5.494   1.022  -7.615  0.00  0.00    -0.180 C 
ENDBRANCH  17  20
ENDBRANCH  13  14
ENDBRANCH   1  13
TORSDOF 5
