REMARK  Name = ZINCrH000004v9Q4.0
REMARK                            x       y       z     vdW  Elec       q    Type
REMARK                         _______ _______ _______ _____ _____    ______ ____
ROOT
ATOM      1  O   LIG    1        0.634   4.831   1.880  0.00  0.00    -0.560 OA
ATOM      2  C   LIG    1        0.127   3.744   2.080  0.00  0.00    +0.710 C 
ATOM      3  N   LIG    1       -0.363   3.029   1.048  0.00  0.00    -0.620 N 
ATOM      4  C   LIG    1       -0.869   1.665   1.257  0.00  0.00    +0.270 C 
ATOM      5  C   LIG    1       -0.162   0.722   0.278  0.00  0.00    +0.040 C 
ATOM      6  C   LIG    1       -0.338   1.248  -1.148  0.00  0.00    +0.040 C 
ATOM      7  C   LIG    1        0.301   2.633  -1.266  0.00  0.00    +0.090 C 
ATOM      8  C   LIG    1       -0.402   3.598  -0.305  0.00  0.00    +0.310 C 
ATOM      9  N   LIG    1        0.055   3.255   3.334  0.00  0.00    -0.680 N 
ATOM     10  H   LIG    1       -0.246   2.345   3.483  0.00  0.00    +0.410 HD
ENDROOT
BRANCH   7  11
ATOM     11  C   LIG    1        0.155   3.136  -2.679  0.00  0.00    +0.290 A 
ATOM     12  N   LIG    1        1.056   3.013  -3.610  0.00  0.00    -0.480 NA
ATOM     13  C   LIG    1        0.602   3.574  -4.761  0.00  0.00    +0.050 A 
ATOM     14  C   LIG    1        1.144   3.721  -6.040  0.00  0.00    +0.070 A 
ATOM     15  C   LIG    1        0.424   4.350  -7.016  0.00  0.00    +0.000 A 
ATOM     16  C   LIG    1       -0.844   4.847  -6.752  0.00  0.00    +0.030 A 
ATOM     17  C   LIG    1       -1.399   4.713  -5.496  0.00  0.00    +0.010 A 
ATOM     18  C   LIG    1       -0.682   4.077  -4.492  0.00  0.00    +0.050 A 
ATOM     19  N   LIG    1       -0.939   3.779  -3.169  0.00  0.00    -0.600 N 
ATOM     20  H   LIG    1       -1.749   3.991  -2.679  0.00  0.00    +0.420 HD
ENDBRANCH   7  11
BRANCH   9  21
ATOM     21  C   LIG    1        0.417   4.060   4.422  0.00  0.00    +0.180 A 
ATOM     22  C   LIG    1        0.198   5.430   4.375  0.00  0.00    +0.040 A 
ATOM     23  C   LIG    1        0.549   6.225   5.450  0.00  0.00    +0.060 A 
ATOM     24  C   LIG    1        1.130   5.659   6.573  0.00  0.00    +0.020 A 
ATOM     25  O   LIG    1        1.565   6.213   7.743  0.00  0.00    -0.310 OA
ATOM     26  C   LIG    1        1.682   5.116   8.668  0.00  0.00    +0.430 C 
ATOM     27  O   LIG    1        1.931   3.979   7.820  0.00  0.00    -0.310 OA
ATOM     28  C   LIG    1        1.355   4.285   6.621  0.00  0.00    +0.050 A 
ATOM     29  C   LIG    1        0.999   3.489   5.546  0.00  0.00    +0.010 A 
ENDBRANCH   9  21
TORSDOF 2
