REMARK  Name = ZINCkj000005fS0G.1
REMARK                            x       y       z     vdW  Elec       q    Type
REMARK                         _______ _______ _______ _____ _____    ______ ____
ROOT
ATOM      1  C   LIG    1       -0.083   4.787   0.586  0.00  0.00    +0.190 C 
ENDROOT
BRANCH   1   2
ATOM      2  O   LIG    1       -1.111   5.633   1.104  0.00  0.00    -0.540 OA
ATOM      3  H   LIG    1       -0.815   6.227   1.808  0.00  0.00    +0.390 HD
ENDBRANCH   1   2
BRANCH   1   4
ATOM      4  C   LIG    1        0.471   3.910   1.711  0.00  0.00    +0.300 C 
BRANCH   4   9
ATOM      5  C   LIG    1       -0.900   1.804   1.652  0.00  0.00    +0.210 A 
ATOM      6  N   LIG    1       -1.877   1.288   2.346  0.00  0.00    -0.480 NA
ATOM      7  C   LIG    1       -2.214   2.132   3.333  0.00  0.00    +0.150 A 
ATOM      8  C   LIG    1       -1.415   3.213   3.247  0.00  0.00    +0.130 A 
ATOM      9  N   LIG    1       -0.577   3.003   2.185  0.00  0.00    -0.460 N 
BRANCH   5  10
ATOM     10  C   LIG    1       -0.237   1.166   0.459  0.00  0.00    +0.140 C 
BRANCH  10  12
ATOM     11  C   LIG    1       -0.296   0.941  -2.029  0.00  0.00    +0.020 C 
ATOM     12  C   LIG    1       -0.969   1.589  -0.817  0.00  0.00    +0.000 C 
ENDBRANCH  10  12
ENDBRANCH   5  10
ENDBRANCH   4   9
ENDBRANCH   1   4
BRANCH   1  13
ATOM     13  C   LIG    1        1.042   5.646   0.008  0.00  0.00    +0.240 C 
BRANCH  13  14
ATOM     14  N   LIG    1        0.511   6.482  -1.081  0.00  0.00    -0.380 N 
ATOM     15  C   LIG    1        1.568   7.383  -1.555  0.00  0.00    +0.240 C 
ATOM     16  C   LIG    1        1.055   8.267  -2.687  0.00  0.00    +0.220 C 
ATOM     17  O   LIG    1        0.335   7.548  -3.664  0.00  0.00    -0.350 OA
ATOM     18  C   LIG    1       -0.496   6.460  -3.319  0.00  0.00    +0.220 C 
ATOM     19  C   LIG    1       -1.906   6.923  -2.949  0.00  0.00    +0.040 C 
ATOM     20  C   LIG    1        0.225   9.421  -2.118  0.00  0.00    +0.030 C 
ATOM     21  C   LIG    1        0.097   5.617  -2.193  0.00  0.00    +0.230 C 
ATOM     22  H   LIG    1       -0.271   7.010  -0.735  0.00  0.00    +0.430 HD
ENDBRANCH  13  14
ENDBRANCH   1  13
TORSDOF 7
