REMARK  Name = ZINCkj000005fS0G.0
REMARK                            x       y       z     vdW  Elec       q    Type
REMARK                         _______ _______ _______ _____ _____    ______ ____
ROOT
ATOM      1  C   LIG    1       -0.709   1.568   3.665  0.00  0.00    +0.200 C 
ENDROOT
BRANCH   1   2
ATOM      2  O   LIG    1       -0.831   2.991   3.616  0.00  0.00    -0.540 OA
ATOM      3  H   LIG    1        0.015   3.457   3.568  0.00  0.00    +0.390 HD
ENDBRANCH   1   2
BRANCH   1   4
ATOM      4  C   LIG    1        0.098   1.168   4.902  0.00  0.00    +0.300 C 
BRANCH   4   9
ATOM      5  C   LIG    1       -1.606   0.802   6.713  0.00  0.00    +0.210 A 
ATOM      6  N   LIG    1       -2.033   1.452   7.761  0.00  0.00    -0.480 NA
ATOM      7  C   LIG    1       -1.373   2.616   7.858  0.00  0.00    +0.150 A 
ATOM      8  C   LIG    1       -0.501   2.687   6.834  0.00  0.00    +0.130 A 
ATOM      9  N   LIG    1       -0.646   1.535   6.110  0.00  0.00    -0.460 N 
BRANCH   5  10
ATOM     10  C   LIG    1       -2.101  -0.545   6.254  0.00  0.00    +0.140 C 
BRANCH  10  12
ATOM     11  C   LIG    1       -1.769  -3.014   6.445  0.00  0.00    +0.020 C 
ATOM     12  C   LIG    1       -1.266  -1.646   6.911  0.00  0.00    +0.020 C 
ENDBRANCH  10  12
ENDBRANCH   5  10
ENDBRANCH   4   9
ENDBRANCH   1   4
BRANCH   1  13
ATOM     13  C   LIG    1        0.009   1.074   2.407  0.00  0.00    +0.250 C 
BRANCH  13  14
ATOM     14  N   LIG    1       -0.772   1.448   1.220  0.00  0.00    -0.380 N 
ATOM     15  C   LIG    1       -2.050   0.723   1.225  0.00  0.00    +0.230 C 
ATOM     16  C   LIG    1       -2.861   1.115  -0.013  0.00  0.00    +0.160 C 
ATOM     17  O   LIG    1       -2.098   0.826  -1.187  0.00  0.00    -0.350 OA
ATOM     18  C   LIG    1       -0.832   1.491  -1.227  0.00  0.00    +0.160 C 
ATOM     19  C   LIG    1       -0.077   1.076  -2.491  0.00  0.00    +0.110 C 
ATOM     20  C   LIG    1       -4.166   0.316  -0.042  0.00  0.00    +0.110 C 
ATOM     21  C   LIG    1       -0.017   1.101   0.008  0.00  0.00    +0.240 C 
ATOM     22  H   LIG    1       -0.948   2.442   1.233  0.00  0.00    +0.430 HD
ENDBRANCH  13  14
ENDBRANCH   1  13
TORSDOF 7
