REMARK  Name = ZINCtV000002PpHO.0
REMARK                            x       y       z     vdW  Elec       q    Type
REMARK                         _______ _______ _______ _____ _____    ______ ____
ROOT
ATOM      1  C   LIG    1        0.078  -2.764   0.077  0.00  0.00    -0.130 A 
ATOM      2  C   LIG    1        1.301  -2.124  -0.153  0.00  0.00    +0.140 A 
ATOM      3  C   LIG    1        1.414  -0.777   0.045  0.00  0.00    +0.110 A 
ATOM      4  C   LIG    1        0.312  -0.041   0.476  0.00  0.00    -0.080 A 
ATOM      5  C   LIG    1       -0.906  -0.676   0.711  0.00  0.00    +0.000 A 
ATOM      6  C   LIG    1       -1.026  -2.021   0.510  0.00  0.00    +0.140 A 
ENDROOT
BRANCH   5   7
ATOM      7  N   LIG    1       -2.072   0.110   1.174  0.00  0.00    +0.020 N 
ATOM      8  O   LIG    1       -1.966   1.311   1.350  0.00  0.00    -0.130 OA
ATOM      9  O   LIG    1       -3.136  -0.444   1.380  0.00  0.00    -0.150 OA
ENDBRANCH   5   7
BRANCH   1  11
ATOM     10  O   LIG    1        0.766  -4.803  -0.825  0.00  0.00    -0.430 OA
ATOM     11  C   LIG    1       -0.047  -4.217  -0.135  0.00  0.00    +0.440 C 
BRANCH  11  12
ATOM     12  C   LIG    1       -1.160  -4.962   0.489  0.00  0.00    -0.170 A 
ATOM     13  C   LIG    1       -1.759  -4.481   1.655  0.00  0.00    +0.040 A 
ATOM     14  C   LIG    1       -2.801  -5.179   2.229  0.00  0.00    +0.010 A 
ATOM     15  C   LIG    1       -3.246  -6.359   1.659  0.00  0.00    +0.050 A 
ATOM     16  C   LIG    1       -2.652  -6.844   0.507  0.00  0.00    +0.000 A 
ATOM     17  C   LIG    1       -1.613  -6.153  -0.082  0.00  0.00    +0.080 A 
ENDBRANCH  11  12
ENDBRANCH   1  11
BRANCH   4  18
ATOM     18  S   LIG    1        0.462   1.696   0.731  0.00  0.00    +0.150 S 
BRANCH  18  19
ATOM     19  C   LIG    1       -0.312   2.375  -0.699  0.00  0.00    +0.140 A 
ATOM     20  N   LIG    1       -0.896   1.570  -1.574  0.00  0.00    -0.480 NA
ATOM     21  C   LIG    1       -1.492   2.038  -2.654  0.00  0.00    +0.360 A 
ATOM     22  C   LIG    1       -1.517   3.392  -2.919  0.00  0.00    -0.240 A 
ATOM     23  C   LIG    1       -0.911   4.271  -2.030  0.00  0.00    +0.180 A 
ATOM     24  C   LIG    1       -0.299   3.752  -0.903  0.00  0.00    -0.080 A 
ATOM     25 CL   LIG    1        0.473   4.804   0.242  0.00  0.00    -0.010 Cl
BRANCH  22  26
ATOM     26  C   LIG    1       -2.196   3.912  -4.160  0.00  0.00    +0.520 C 
ATOM     27  F   LIG    1       -2.696   5.196  -3.916  0.00  0.00    -0.170 F 
ATOM     28  F   LIG    1       -3.249   3.060  -4.508  0.00  0.00    -0.170 F 
ATOM     29  F   LIG    1       -1.272   3.964  -5.210  0.00  0.00    -0.170 F 
ENDBRANCH  22  26
ENDBRANCH  18  19
ENDBRANCH   4  18
TORSDOF 6
