REMARK  Name = ZINCqH0000050jiC.0
REMARK                            x       y       z     vdW  Elec       q    Type
REMARK                         _______ _______ _______ _____ _____    ______ ____
ROOT
ATOM      1  C   LIG    1        5.440  -1.285   1.622  0.00  0.00    +0.600 C 
ATOM      2  N   LIG    1        4.624  -0.993   0.590  0.00  0.00    -0.610 N 
ATOM      3  C   LIG    1        3.321  -1.659   0.456  0.00  0.00    +0.290 C 
ATOM      4  C   LIG    1        3.246  -2.315  -0.928  0.00  0.00    +0.270 C 
ATOM      5  N   LIG    1        3.644  -1.326  -1.940  0.00  0.00    -0.630 N 
ATOM      6  C   LIG    1        4.950  -0.664  -1.808  0.00  0.00    +0.300 C 
ATOM      7  C   LIG    1        2.828  -1.034  -2.972  0.00  0.00    +0.710 C 
ATOM      8  N   LIG    1        1.594  -1.574  -3.029  0.00  0.00    -0.740 N 
ATOM      9  H   LIG    1        1.319  -2.226  -2.366  0.00  0.00    +0.400 HD
ATOM     10  O   LIG    1        3.205  -0.285  -3.852  0.00  0.00    -0.580 OA
ATOM     11  C   LIG    1        5.022  -0.004  -0.421  0.00  0.00    +0.260 C 
ATOM     12  O   LIG    1        5.048  -2.001   2.524  0.00  0.00    -0.520 OA
ENDROOT
BRANCH   8  13
ATOM     13  C   LIG    1        0.671  -1.179  -4.096  0.00  0.00    +0.250 C 
ATOM     14  C   LIG    1       -0.477  -2.187  -4.175  0.00  0.00    +0.030 C 
ATOM     15  C   LIG    1       -1.224  -2.216  -2.839  0.00  0.00    -0.020 C 
ATOM     16  C   LIG    1       -1.786  -0.825  -2.539  0.00  0.00    +0.020 C 
ATOM     17  C   LIG    1       -0.637   0.183  -2.460  0.00  0.00    -0.060 C 
ATOM     18  C   LIG    1        0.327  -0.229  -1.345  0.00  0.00    +0.020 C 
ATOM     19  C   LIG    1       -1.200   1.574  -2.159  0.00  0.00    +0.010 C 
ATOM     20  C   LIG    1       -2.372  -3.224  -2.918  0.00  0.00    +0.020 C 
ATOM     21  C   LIG    1        0.109   0.212  -3.795  0.00  0.00    +0.020 C 
ENDBRANCH   8  13
BRANCH   1  26
ATOM     22  C   LIG    1        9.977   1.650   1.676  0.00  0.00    +0.140 C 
ATOM     23  C   LIG    1        8.882   0.615   1.683  0.00  0.00    -0.200 A 
ATOM     24  C   LIG    1        9.087  -0.705   1.774  0.00  0.00    +0.000 A 
ATOM     25  C   LIG    1        7.947  -1.473   1.769  0.00  0.00    +0.090 A 
ATOM     26  C   LIG    1        6.800  -0.738   1.659  0.00  0.00    -0.270 A 
ATOM     27  S   LIG    1        7.216   0.968   1.575  0.00  0.00    +0.210 S 
ENDBRANCH   1  26
TORSDOF 2
