REMARK  Name = ZINCvU0000000Fdm.0
REMARK                            x       y       z     vdW  Elec       q    Type
REMARK                         _______ _______ _______ _____ _____    ______ ____
ROOT
ATOM      1  C   LIG    1        1.143  -0.949   0.690  0.00  0.00    +0.560 C 
ATOM      2  N   LIG    1        2.226  -0.361   0.144  0.00  0.00    -0.670 N 
ATOM      3  H   LIG    1        2.146   0.512  -0.271  0.00  0.00    +0.410 HD
ATOM      4  O   LIG    1        1.225  -2.075   1.141  0.00  0.00    -0.510 OA
ENDROOT
BRANCH   1   9
ATOM      5  C   LIG    1       -3.867   1.885   0.881  0.00  0.00    +0.110 C 
ATOM      6  C   LIG    1       -2.557   1.142   0.832  0.00  0.00    -0.080 A 
ATOM      7  C   LIG    1       -1.444   1.744   0.277  0.00  0.00    +0.030 A 
ATOM      8  C   LIG    1       -0.242   1.068   0.223  0.00  0.00    +0.040 A 
ATOM      9  C   LIG    1       -0.145  -0.225   0.741  0.00  0.00    -0.120 A 
ATOM     10  C   LIG    1       -1.267  -0.831   1.306  0.00  0.00    +0.110 A 
ATOM     11  C   LIG    1       -2.471  -0.145   1.350  0.00  0.00    +0.130 A 
BRANCH  11  12
ATOM     12  N   LIG    1       -3.599  -0.749   1.915  0.00  0.00    -0.660 N 
ATOM     13  H   LIG    1       -4.244  -0.211   2.401  0.00  0.00    +0.420 HD
ATOM     14  C   LIG    1       -3.789  -2.076   1.785  0.00  0.00    +0.610 C 
ATOM     15  O   LIG    1       -2.944  -2.762   1.241  0.00  0.00    -0.490 OA
BRANCH  14  16
ATOM     16  C   LIG    1       -5.016  -2.695   2.297  0.00  0.00    -0.090 A 
ATOM     17  C   LIG    1       -5.335  -4.021   2.231  0.00  0.00    +0.050 A 
ATOM     18  C   LIG    1       -6.591  -4.165   2.841  0.00  0.00    -0.060 A 
ATOM     19  C   LIG    1       -6.979  -2.937   3.247  0.00  0.00    +0.210 A 
ATOM     20  O   LIG    1       -6.026  -2.054   2.922  0.00  0.00    -0.170 OA
ENDBRANCH  14  16
ENDBRANCH  11  12
ENDBRANCH   1   9
BRANCH   2  21
ATOM     21  C   LIG    1        3.466  -1.012   0.175  0.00  0.00    +0.120 A 
ATOM     22  C   LIG    1        4.634  -0.273   0.320  0.00  0.00    +0.010 A 
ATOM     23  C   LIG    1        5.856  -0.914   0.356  0.00  0.00    +0.010 A 
ATOM     24  C   LIG    1        5.919  -2.297   0.237  0.00  0.00    +0.100 A 
ATOM     25  C   LIG    1        4.752  -3.034   0.086  0.00  0.00    -0.030 A 
ATOM     26  C   LIG    1        3.529  -2.394   0.055  0.00  0.00    +0.050 A 
BRANCH  24  27
ATOM     27  N   LIG    1        7.157  -2.946   0.268  0.00  0.00    -0.500 N 
ATOM     28  C   LIG    1        7.029  -4.354  -0.169  0.00  0.00    +0.180 C 
ATOM     29  C   LIG    1        8.267  -5.165   0.103  0.00  0.00    +0.040 C 
ATOM     30  C   LIG    1        8.104  -5.865   1.469  0.00  0.00    +0.000 C 
ATOM     31  C   LIG    1        8.354  -4.960   2.586  0.00  0.00    +0.000 C 
ATOM     32  C   LIG    1        7.370  -3.772   2.604  0.00  0.00    -0.010 C 
ATOM     33  C   LIG    1        7.818  -2.765   1.580  0.00  0.00    +0.210 C 
ENDBRANCH  24  27
ENDBRANCH   2  21
TORSDOF 5
