REMARK  Name = ZINCpk000000pHbw.0
REMARK                            x       y       z     vdW  Elec       q    Type
REMARK                         _______ _______ _______ _____ _____    ______ ____
ROOT
ATOM      1  C   LIG    1       -2.606   3.157   2.991  0.00  0.00    +0.250 C 
ENDROOT
BRANCH   1   6
ATOM      2  C   LIG    1       -0.825   1.630  -1.196  0.00  0.00    +0.010 C 
ATOM      3  C   LIG    1       -1.296   3.006  -0.655  0.00  0.00    +0.270 C 
ATOM      4  N   LIG    1       -1.578   2.775   0.774  0.00  0.00    -0.620 N 
ATOM      5  C   LIG    1       -0.798   1.615   1.227  0.00  0.00    +0.220 C 
ATOM      6  C   LIG    1       -2.413   3.507   1.538  0.00  0.00    +0.520 C 
ATOM      7  O   LIG    1       -3.007   4.448   1.056  0.00  0.00    -0.500 OA
ATOM      8  C   LIG    1       -0.013   1.086   0.008  0.00  0.00    +0.170 C 
BRANCH   2  10
ATOM      9  C   LIG    1       -0.790   2.216  -3.625  0.00  0.00    +0.010 C 
ATOM     10  C   LIG    1        0.067   1.798  -2.429  0.00  0.00    +0.040 C 
ENDBRANCH   2  10
BRANCH   8  11
ATOM     11  O   LIG    1        1.317   1.608  -0.002  0.00  0.00    -0.550 OA
ATOM     12  H   LIG    1        1.856   1.327   0.751  0.00  0.00    +0.380 HD
ENDBRANCH   8  11
ENDBRANCH   1   6
BRANCH   1  13
ATOM     13  N   LIG    1       -3.143   4.318   3.705  0.00  0.00    -0.720 N 
ATOM     14  H   LIG    1       -2.647   4.705   4.443  0.00  0.00    +0.400 HD
ATOM     15  C   LIG    1       -4.327   4.848   3.337  0.00  0.00    +0.520 C 
ATOM     16  O   LIG    1       -4.947   4.364   2.415  0.00  0.00    -0.520 OA
ATOM     17  C   LIG    1       -4.879   6.042   4.072  0.00  0.00    +0.080 C 
ENDBRANCH   1  13
BRANCH   1  18
ATOM     18  C   LIG    1       -3.587   1.989   3.107  0.00  0.00    +0.120 C 
BRANCH  18  19
ATOM     19  C   LIG    1       -3.687   1.559   4.548  0.00  0.00    -0.160 A 
ATOM     20  C   LIG    1       -2.998   0.567   5.135  0.00  0.00    +0.220 A 
ATOM     21  N   LIG    1       -3.350   0.471   6.454  0.00  0.00    -0.590 N 
ATOM     22  H   LIG    1       -2.984  -0.169   7.083  0.00  0.00    +0.420 HD
ATOM     23  C   LIG    1       -4.306   1.416   6.753  0.00  0.00    +0.090 A 
ATOM     24  C   LIG    1       -4.997   1.745   7.914  0.00  0.00    -0.010 A 
ATOM     25  C   LIG    1       -5.918   2.770   7.895  0.00  0.00    +0.030 A 
ATOM     26  C   LIG    1       -6.164   3.479   6.728  0.00  0.00    -0.030 A 
ATOM     27  C   LIG    1       -5.496   3.173   5.576  0.00  0.00    +0.050 A 
ATOM     28  C   LIG    1       -4.559   2.139   5.572  0.00  0.00    -0.090 A 
ENDBRANCH  18  19
ENDBRANCH   1  18
TORSDOF 6
