REMARK  Name = ZINCtj00000mhtsq.0
REMARK                            x       y       z     vdW  Elec       q    Type
REMARK                         _______ _______ _______ _____ _____    ______ ____
ROOT
ATOM      1  N   LIG    1       -2.361   6.229  -0.817  0.00  0.00    -0.500 N 
ATOM      2  H   LIG    1       -2.530   7.136  -0.407  0.00  0.00    +0.430 HD
ATOM      3  H   LIG    1       -2.266   5.542  -0.085  0.00  0.00    +0.430 HD
ENDROOT
BRANCH   1   4
ATOM      4  C   LIG    1       -3.487   5.867  -1.687  0.00  0.00    +0.310 C 
BRANCH   4   5
ATOM      5  C   LIG    1       -4.775   5.821  -0.862  0.00  0.00    -0.380 C 
BRANCH   5   6
ATOM      6  S   LIG    1       -6.166   5.373  -1.936  0.00  0.00    +2.620 S 
ATOM      7  O   LIG    1       -6.045   4.026  -2.373  0.00  0.00    -0.920 OA
ATOM      8  O   LIG    1       -6.442   6.419  -2.857  0.00  0.00    -0.920 OA
BRANCH   6  12
ATOM      9  C   LIG    1       -7.081   7.144   1.405  0.00  0.00    +0.010 C 
ATOM     10  C   LIG    1       -8.439   6.790   0.796  0.00  0.00    +0.190 C 
ATOM     11  C   LIG    1       -8.282   6.574  -0.714  0.00  0.00    +0.280 C 
ATOM     12  N   LIG    1       -7.479   5.359  -0.928  0.00  0.00    -0.990 NA
ATOM     13  C   LIG    1       -7.882   4.131  -0.224  0.00  0.00    +0.280 C 
ATOM     14  C   LIG    1       -8.055   4.467   1.266  0.00  0.00    +0.130 C 
ATOM     15  C   LIG    1       -8.655   3.262   1.993  0.00  0.00    +0.070 C 
ATOM     16  O   LIG    1       -8.932   5.588   1.394  0.00  0.00    -0.360 OA
ENDBRANCH   6  12
ENDBRANCH   5   6
ENDBRANCH   4   5
ENDBRANCH   1   4
BRANCH   1  17
ATOM     17  C   LIG    1       -1.124   6.274  -1.609  0.00  0.00    +0.360 C 
BRANCH  17  18
ATOM     18  C   LIG    1        0.048   6.529  -0.697  0.00  0.00    -0.310 A 
ATOM     19  C   LIG    1        0.697   7.705  -0.546  0.00  0.00    +0.330 A 
ATOM     20  N   LIG    1        1.683   7.522   0.358  0.00  0.00    -0.450 N 
ATOM     21  H   LIG    1        2.310   8.198   0.661  0.00  0.00    +0.460 HD
ATOM     22  N   LIG    1        1.643   6.189   0.785  0.00  0.00    -0.250 NA
ATOM     23  C   LIG    1        0.662   5.585   0.148  0.00  0.00    +0.150 A 
BRANCH  23  24
ATOM     24  C   LIG    1        0.269   4.162   0.299  0.00  0.00    -0.040 A 
ATOM     25  C   LIG    1        0.220   3.582   1.564  0.00  0.00    +0.080 A 
ATOM     26  C   LIG    1       -0.150   2.259   1.704  0.00  0.00    +0.050 A 
ATOM     27  C   LIG    1       -0.464   1.502   0.587  0.00  0.00    +0.060 A 
ATOM     28  O   LIG    1       -0.849   0.198   0.459  0.00  0.00    -0.300 OA
ATOM     29  C   LIG    1       -0.640  -0.131  -0.927  0.00  0.00    +0.450 C 
ATOM     30  O   LIG    1       -0.772   1.134  -1.603  0.00  0.00    -0.300 OA
ATOM     31  C   LIG    1       -0.417   2.077  -0.682  0.00  0.00    +0.040 A 
ATOM     32  C   LIG    1       -0.051   3.403  -0.826  0.00  0.00    +0.040 A 
ENDBRANCH  23  24
ENDBRANCH  17  18
ENDBRANCH   1  17
TORSDOF 7
