REMARK  Name = ZINCkj00000cLVjz.0
REMARK                            x       y       z     vdW  Elec       q    Type
REMARK                         _______ _______ _______ _____ _____    ______ ____
ROOT
ATOM      1  O   LIG    1        0.086   4.233  -0.998  0.00  0.00    -0.290 OA
ENDROOT
BRANCH   1   7
ATOM      2  C   LIG    1       -0.276   6.412  -1.895  0.00  0.00    +0.150 A 
ATOM      3  C   LIG    1       -0.389   7.780  -1.702  0.00  0.00    -0.090 A 
ATOM      4  C   LIG    1       -0.237   8.316  -0.436  0.00  0.00    +0.100 A 
ATOM      5  C   LIG    1        0.023   7.491   0.641  0.00  0.00    -0.100 A 
ATOM      6  C   LIG    1        0.132   6.120   0.457  0.00  0.00    +0.150 A 
ATOM      7  C   LIG    1       -0.021   5.577  -0.813  0.00  0.00    +0.020 A 
BRANCH   2   9
ATOM      8  C   LIG    1       -0.682   6.802  -4.205  0.00  0.00    +0.250 C 
ATOM      9  O   LIG    1       -0.421   5.886  -3.141  0.00  0.00    -0.300 OA
ENDBRANCH   2   9
BRANCH   6  10
ATOM     10  O   LIG    1        0.387   5.309   1.519  0.00  0.00    -0.310 OA
ATOM     11  C   LIG    1        0.532   5.936   2.795  0.00  0.00    +0.240 C 
ENDBRANCH   6  10
ENDBRANCH   1   7
BRANCH   1  12
ATOM     12  C   LIG    1       -1.114   3.466  -0.881  0.00  0.00    +0.180 C 
BRANCH  12  13
ATOM     13  C   LIG    1       -0.799   1.988  -1.119  0.00  0.00    +0.230 C 
BRANCH  13  14
ATOM     14  N   LIG    1        0.085   1.498  -0.053  0.00  0.00    -0.530 NA
ATOM     15  C   LIG    1        0.774   0.267  -0.465  0.00  0.00    +0.210 C 
ATOM     16  C   LIG    1        1.728  -0.177   0.647  0.00  0.00    +0.270 C 
ATOM     17  N   LIG    1        0.967  -0.411   1.881  0.00  0.00    -0.390 N 
ATOM     18  C   LIG    1        0.304   0.834   2.293  0.00  0.00    +0.270 C 
ATOM     19  C   LIG    1        1.880  -0.854   2.943  0.00  0.00    +0.310 C 
ATOM     20  H   LIG    1        0.271  -1.123   1.717  0.00  0.00    +0.420 HD
ATOM     21  C   LIG    1       -0.661   1.286   1.195  0.00  0.00    +0.200 C 
ENDBRANCH  13  14
ENDBRANCH  12  13
ENDBRANCH   1  12
TORSDOF 6
