REMARK  Name = ZINCqH000003981w.0
REMARK                            x       y       z     vdW  Elec       q    Type
REMARK                         _______ _______ _______ _____ _____    ______ ____
ROOT
ATOM      1  N   LIG    1        1.143   1.898   0.001  0.00  0.00    -0.680 N 
ATOM      2  H   LIG    1        1.131   2.866  -0.068  0.00  0.00    +0.410 HD
ATOM      3  C   LIG    1       -0.014   1.209   0.011  0.00  0.00    +0.510 C 
ATOM      4  O   LIG    1        0.002  -0.004   0.013  0.00  0.00    -0.510 OA
ENDROOT
BRANCH   1   9
ATOM      5  C   LIG    1        3.729  -0.696  -0.415  0.00  0.00    -0.120 A 
ATOM      6  C   LIG    1        4.791  -0.115   0.280  0.00  0.00    +0.030 A 
ATOM      7  C   LIG    1        4.634   1.121   0.873  0.00  0.00    +0.030 A 
ATOM      8  C   LIG    1        3.429   1.791   0.777  0.00  0.00    +0.010 A 
ATOM      9  C   LIG    1        2.364   1.219   0.092  0.00  0.00    +0.140 A 
ATOM     10  C   LIG    1        2.511  -0.023  -0.507  0.00  0.00    +0.090 A 
BRANCH   5  14
ATOM     11  N   LIG    1        5.073  -2.669  -0.960  0.00  0.00    -0.850 N 
ATOM     12  H   LIG    1        5.182  -3.538  -1.378  0.00  0.00    +0.410 HD
ATOM     13  H   LIG    1        5.812  -2.267  -0.477  0.00  0.00    +0.400 HD
ATOM     14  C   LIG    1        3.895  -2.020  -1.051  0.00  0.00    +0.560 C 
ATOM     15  O   LIG    1        2.969  -2.524  -1.656  0.00  0.00    -0.530 OA
ENDBRANCH   5  14
ENDBRANCH   1   9
BRANCH   3  16
ATOM     16  C   LIG    1       -1.330   1.945   0.012  0.00  0.00    +0.070 C 
BRANCH  16  17
ATOM     17  C   LIG    1       -2.479   0.935   0.017  0.00  0.00    +0.170 C 
BRANCH  17  18
ATOM     18  C   LIG    1       -3.794   1.671   0.018  0.00  0.00    -0.000 A 
ATOM     19  C   LIG    1       -4.482   2.052  -1.076  0.00  0.00    -0.050 A 
ATOM     20  C   LIG    1       -5.647   2.705  -0.624  0.00  0.00    -0.030 A 
ATOM     21  C   LIG    1       -5.604   2.686   0.735  0.00  0.00    +0.020 A 
ATOM     22  O   LIG    1       -4.478   2.050   1.110  0.00  0.00    -0.160 OA
BRANCH  21  23
ATOM     23  C   LIG    1       -6.622   3.257   1.642  0.00  0.00    -0.060 A 
ATOM     24  C   LIG    1       -7.066   4.567   1.461  0.00  0.00    +0.080 A 
ATOM     25  C   LIG    1       -8.020   5.093   2.308  0.00  0.00    +0.010 A 
ATOM     26  C   LIG    1       -8.529   4.328   3.343  0.00  0.00    +0.060 A 
ATOM     27  C   LIG    1       -8.090   3.030   3.533  0.00  0.00    -0.010 A 
ATOM     28  C   LIG    1       -7.139   2.489   2.689  0.00  0.00    +0.120 A 
ATOM     29  F   LIG    1       -6.711   1.221   2.875  0.00  0.00    -0.130 F 
ENDBRANCH  21  23
ENDBRANCH  17  18
ENDBRANCH  16  17
ENDBRANCH   3  16
TORSDOF 6
