REMARK  Name = ZINCqH0000032vjV.0
REMARK                            x       y       z     vdW  Elec       q    Type
REMARK                         _______ _______ _______ _____ _____    ______ ____
ROOT
ATOM      1  N   LIG    1        4.332  -3.637  -1.615  0.00  0.00    -0.740 N 
ATOM      2  H   LIG    1        4.830  -3.743  -0.790  0.00  0.00    +0.400 HD
ATOM      3  C   LIG    1        3.086  -3.126  -1.589  0.00  0.00    +0.730 C 
ATOM      4  N   LIG    1        2.531  -2.763  -0.415  0.00  0.00    -0.650 N 
ATOM      5  C   LIG    1        2.982  -2.781   0.991  0.00  0.00    +0.280 C 
ATOM      6  C   LIG    1        1.494  -2.808   1.351  0.00  0.00    -0.080 C 
ATOM      7  C   LIG    1        0.897  -4.206   1.563  0.00  0.00    +0.040 C 
ATOM      8  C   LIG    1        0.690  -4.295   3.098  0.00  0.00    +0.020 C 
ATOM      9  C   LIG    1        0.245  -2.858   3.471  0.00  0.00    +0.020 C 
ATOM     10  C   LIG    1        1.092  -1.948   2.553  0.00  0.00    +0.040 C 
ATOM     11  C   LIG    1        1.229  -2.186  -0.022  0.00  0.00    +0.310 C 
ATOM     12  O   LIG    1        2.461  -2.994  -2.623  0.00  0.00    -0.580 OA
ENDROOT
BRANCH  11  13
ATOM     13  C   LIG    1        1.208  -0.679  -0.014  0.00  0.00    -0.090 A 
ATOM     14  C   LIG    1        0.002  -0.004   0.002  0.00  0.00    +0.020 A 
ATOM     15  C   LIG    1       -0.017   1.378   0.010  0.00  0.00    +0.000 A 
ATOM     16  C   LIG    1        1.171   2.086   0.002  0.00  0.00    +0.000 A 
ATOM     17  C   LIG    1        2.377   1.411  -0.014  0.00  0.00    +0.000 A 
ATOM     18  C   LIG    1        2.396   0.029  -0.021  0.00  0.00    +0.020 A 
ENDBRANCH  11  13
BRANCH   1  19
ATOM     19  C   LIG    1        4.935  -4.033  -2.890  0.00  0.00    +0.430 C 
BRANCH  19  23
ATOM     20  C   LIG    1        8.004  -5.885  -2.294  0.00  0.00    +0.200 A 
ATOM     21  N   LIG    1        8.416  -4.647  -2.334  0.00  0.00    -0.290 NA
ATOM     22  N   LIG    1        7.417  -3.866  -2.543  0.00  0.00    -0.260 NA
ATOM     23  C   LIG    1        6.322  -4.569  -2.646  0.00  0.00    +0.150 A 
ATOM     24  N   LIG    1        6.663  -5.871  -2.485  0.00  0.00    -0.570 N 
ATOM     25  H   LIG    1        6.068  -6.636  -2.506  0.00  0.00    +0.430 HD
BRANCH  20  27
ATOM     26  C   LIG    1        8.843  -7.476  -0.586  0.00  0.00    +0.040 C 
ATOM     27  C   LIG    1        8.861  -7.105  -2.070  0.00  0.00    +0.100 C 
ATOM     28  C   LIG    1        8.313  -8.271  -2.894  0.00  0.00    +0.040 C 
ENDBRANCH  20  27
ENDBRANCH  19  23
ENDBRANCH   1  19
TORSDOF 4
