REMARK  Name = ZINCuL0000000u6Z.1
REMARK                            x       y       z     vdW  Elec       q    Type
REMARK                         _______ _______ _______ _____ _____    ______ ____
ROOT
ATOM      1  N   LIG    1        1.172   3.492   0.009  0.00  0.00    -1.050 NA
ENDROOT
BRANCH   1   2
ATOM      2  C   LIG    1        1.184   2.092   0.002  0.00  0.00    +0.310 A 
ATOM      3  C   LIG    1        2.389   1.407  -0.013  0.00  0.00    -0.170 A 
ATOM      4  C   LIG    1        2.399   0.024  -0.021  0.00  0.00    +0.040 A 
ATOM      5  C   LIG    1        1.209  -0.679  -0.013  0.00  0.00    -0.130 A 
ATOM      6  C   LIG    1        0.002  -0.004   0.002  0.00  0.00    +0.000 A 
ATOM      7  C   LIG    1       -0.017   1.382   0.010  0.00  0.00    +0.010 A 
BRANCH   7   8
ATOM      8  N   LIG    1       -1.238   2.068   0.019  0.00  0.00    -0.460 N 
ATOM      9  C   LIG    1       -2.023   1.728   1.214  0.00  0.00    +0.180 C 
ATOM     10  C   LIG    1       -3.135   2.768   1.396  0.00  0.00    +0.120 C 
ATOM     11  C   LIG    1       -3.841   2.939   0.068  0.00  0.00    -0.150 A 
ATOM     12  C   LIG    1       -3.343   2.512  -1.110  0.00  0.00    -0.110 A 
ATOM     13  C   LIG    1       -4.171   2.778  -2.195  0.00  0.00    +0.020 A 
ATOM     14  C   LIG    1       -5.309   3.405  -1.911  0.00  0.00    -0.070 A 
ATOM     15  S   LIG    1       -5.401   3.705  -0.181  0.00  0.00    +0.070 S 
ATOM     16  C   LIG    1       -1.997   1.807  -1.211  0.00  0.00    +0.260 C 
ENDBRANCH   7   8
ENDBRANCH   1   2
BRANCH   1  17
ATOM     17  S   LIG    1        2.599   4.332   0.000  0.00  0.00    +2.600 S 
ATOM     18  O   LIG    1        3.209   4.073  -1.257  0.00  0.00    -1.040 OA
ATOM     19  O   LIG    1        3.233   4.060   1.242  0.00  0.00    -1.040 OA
BRANCH  17  23
ATOM     20  C   LIG    1        1.560   8.738   0.032  0.00  0.00    -0.030 A 
ATOM     21  C   LIG    1        1.730   8.059   1.224  0.00  0.00    -0.030 A 
ATOM     22  C   LIG    1        2.047   6.714   1.214  0.00  0.00    +0.110 A 
ATOM     23  C   LIG    1        2.195   6.047   0.013  0.00  0.00    -0.630 A 
ATOM     24  C   LIG    1        2.030   6.727  -1.180  0.00  0.00    +0.110 A 
ATOM     25  C   LIG    1        1.708   8.071  -1.170  0.00  0.00    -0.030 A 
BRANCH  20  26
ATOM     26  C   LIG    1        1.214  10.205   0.043  0.00  0.00    +0.080 C 
BRANCH  26  27
ATOM     27  C   LIG    1        2.501  11.033   0.035  0.00  0.00    -0.060 C 
BRANCH  27  29
ATOM     28  O   LIG    1        0.986  12.850   0.058  0.00  0.00    -0.700 OA
ATOM     29  C   LIG    1        2.154  12.499   0.046  0.00  0.00    +0.490 C 
ATOM     30  O   LIG    1        3.042  13.335   0.042  0.00  0.00    -0.710 OA
ENDBRANCH  27  29
ENDBRANCH  26  27
ENDBRANCH  20  26
ENDBRANCH  17  23
ENDBRANCH   1  17
TORSDOF 7
