REMARK  Name = ZINCqH00000054qL.0
REMARK                            x       y       z     vdW  Elec       q    Type
REMARK                         _______ _______ _______ _____ _____    ______ ____
ROOT
ATOM      1  C   LIG    1       -6.642   3.721  -1.007  0.00  0.00    +0.150 C 
ENDROOT
BRANCH   1   6
ATOM      2  C   LIG    1       -8.544   5.122   1.938  0.00  0.00    -0.680 A 
ATOM      3  C   LIG    1       -9.395   4.075   2.240  0.00  0.00    +0.130 A 
ATOM      4  C   LIG    1       -9.356   2.914   1.490  0.00  0.00    +0.000 A 
ATOM      5  C   LIG    1       -8.468   2.801   0.437  0.00  0.00    +0.100 A 
ATOM      6  C   LIG    1       -7.613   3.846   0.138  0.00  0.00    -0.100 A 
ATOM      7  C   LIG    1       -7.653   5.007   0.887  0.00  0.00    +0.140 A 
BRANCH   2   8
ATOM      8  S   LIG    1       -8.594   6.601   2.893  0.00  0.00    +2.690 S 
ATOM      9  O   LIG    1       -7.323   7.219   2.743  0.00  0.00    -0.950 OA
ATOM     10  O   LIG    1       -9.142   6.246   4.155  0.00  0.00    -0.950 OA
BRANCH   8  12
ATOM     11  C   LIG    1      -11.101   7.564   2.573  0.00  0.00    +0.300 C 
ATOM     12  N   LIG    1       -9.693   7.611   2.175  0.00  0.00    -1.000 NA
ATOM     13  C   LIG    1       -9.255   8.552   1.140  0.00  0.00    +0.310 C 
ENDBRANCH   8  12
ENDBRANCH   2   8
ENDBRANCH   1   6
BRANCH   1  14
ATOM     14  S   LIG    1       -5.084   3.026  -0.404  0.00  0.00    -0.000 S 
BRANCH  14  15
ATOM     15  C   LIG    1       -4.162   2.992  -1.906  0.00  0.00    +0.210 A 
ATOM     16  C   LIG    1       -2.829   2.506  -1.925  0.00  0.00    -0.140 A 
ATOM     17  C   LIG    1       -2.156   2.504  -3.142  0.00  0.00    +0.100 A 
ATOM     18  S   LIG    1       -0.538   1.866  -2.918  0.00  0.00    +0.200 S 
ATOM     19  C   LIG    1       -0.794   1.613  -1.192  0.00  0.00    -0.190 A 
ATOM     20  C   LIG    1       -0.013   1.086   0.008  0.00  0.00    +0.130 C 
ATOM     21  C   LIG    1       -0.779   1.605   1.241  0.00  0.00    +0.050 C 
ATOM     22  C   LIG    1       -2.207   1.753   0.673  0.00  0.00    +0.110 C 
ATOM     23  N   LIG    1       -2.785   2.956  -4.237  0.00  0.00    -0.490 NA
ATOM     24  C   LIG    1       -4.021   3.396  -4.170  0.00  0.00    +0.540 A 
ATOM     25  C   LIG    1       -2.013   1.985  -0.826  0.00  0.00    -0.090 A 
ATOM     26  N   LIG    1       -4.702   3.419  -3.039  0.00  0.00    -0.530 NA
ENDBRANCH  14  15
ENDBRANCH   1  14
TORSDOF 5
