REMARK  Name = ZINCpk000000oYaK.0
REMARK                            x       y       z     vdW  Elec       q    Type
REMARK                         _______ _______ _______ _____ _____    ______ ____
ROOT
ATOM      1  C   LIG    1       -4.524  10.893  -1.085  0.00  0.00    +0.650 C 
ATOM      2  N   LIG    1       -4.329   9.559  -1.095  0.00  0.00    -0.600 N 
ATOM      3  C   LIG    1       -5.473   8.637  -1.090  0.00  0.00    +0.300 C 
ATOM      4  C   LIG    1       -5.323   7.676   0.097  0.00  0.00    +0.290 C 
ATOM      5  N   LIG    1       -3.963   7.119   0.081  0.00  0.00    -0.610 N 
ATOM      6  C   LIG    1       -2.819   8.042   0.081  0.00  0.00    +0.280 C 
ATOM      7  C   LIG    1       -3.768   5.785   0.071  0.00  0.00    +0.520 C 
ATOM      8  O   LIG    1       -4.720   5.034   0.076  0.00  0.00    -0.490 OA
ATOM      9  C   LIG    1       -2.970   9.002  -1.111  0.00  0.00    +0.290 C 
ATOM     10  O   LIG    1       -5.653  11.342  -1.071  0.00  0.00    -0.570 OA
ENDROOT
BRANCH   1  11
ATOM     11  O   LIG    1       -3.467  11.727  -1.090  0.00  0.00    -0.370 OA
BRANCH  11  13
ATOM     12  C   LIG    1       -2.437  13.934  -1.086  0.00  0.00    +0.070 C 
ATOM     13  C   LIG    1       -3.752  13.151  -1.078  0.00  0.00    +0.220 C 
ENDBRANCH  11  13
ENDBRANCH   1  11
BRANCH   7  14
ATOM     14  C   LIG    1       -2.368   5.228   0.054  0.00  0.00    +0.230 C 
BRANCH  14  15
ATOM     15  O   LIG    1       -2.424   3.800   0.046  0.00  0.00    -0.250 OA
BRANCH  15  16
ATOM     16  C   LIG    1       -1.238   3.137   0.031  0.00  0.00    +0.230 A 
ATOM     17  C   LIG    1       -0.046   3.845   0.024  0.00  0.00    -0.100 A 
ATOM     18  C   LIG    1        1.160   3.167   0.008  0.00  0.00    +0.200 A 
ATOM     19  C   LIG    1        1.176   1.782   0.000  0.00  0.00    -0.030 A 
ATOM     20  C   LIG    1       -0.013   1.076   0.008  0.00  0.00    +0.190 A 
ATOM     21  F   LIG    1        2.322   3.856   0.001  0.00  0.00    -0.110 F 
ATOM     22  C   LIG    1       -1.219   1.749   0.017  0.00  0.00    -0.090 A 
BRANCH  22  23
ATOM     23  N   LIG    1       -2.490   0.991   0.019  0.00  0.00    +0.030 N 
ATOM     24  O   LIG    1       -3.553   1.585   0.027  0.00  0.00    -0.120 OA
ATOM     25  O   LIG    1       -2.472  -0.227   0.012  0.00  0.00    -0.170 OA
ENDBRANCH  22  23
ENDBRANCH  15  16
ENDBRANCH  14  15
ENDBRANCH   7  14
TORSDOF 6
