REMARK  Name = ZINCtV000002yGpW.0
REMARK                            x       y       z     vdW  Elec       q    Type
REMARK                         _______ _______ _______ _____ _____    ______ ____
ROOT
ATOM      1  N   LIG    1        0.450   1.420   2.445  0.00  0.00    -0.670 N 
ATOM      2  H   LIG    1        0.095   1.186   3.317  0.00  0.00    +0.410 HD
ATOM      3  C   LIG    1        1.596   2.123   2.351  0.00  0.00    +0.500 C 
ATOM      4  O   LIG    1        2.069   2.367   1.261  0.00  0.00    -0.490 OA
ENDROOT
BRANCH   1  11
ATOM      5  C   LIG    1       -0.645  -0.294   1.143  0.00  0.00    -0.090 A 
ATOM      6  C   LIG    1       -1.311  -0.685  -0.002  0.00  0.00    +0.040 A 
ATOM      7  C   LIG    1       -1.559   0.233  -1.007  0.00  0.00    +0.030 A 
ATOM      8  C   LIG    1       -1.142   1.544  -0.868  0.00  0.00    -0.030 A 
ATOM      9  C   LIG    1       -0.479   1.942   0.279  0.00  0.00    -0.060 A 
ATOM     10 CL   LIG    1       -1.456   2.693  -2.131  0.00  0.00    -0.060 Cl
ATOM     11  C   LIG    1       -0.225   1.022   1.286  0.00  0.00    +0.150 A 
BRANCH   5  13
ATOM     12  C   LIG    1       -1.481  -1.211   3.290  0.00  0.00    +0.020 C 
ATOM     13  C   LIG    1       -0.375  -1.296   2.236  0.00  0.00    +0.060 C 
ENDBRANCH   5  13
BRANCH   9  14
ATOM     14  C   LIG    1       -0.030   3.373   0.432  0.00  0.00    +0.070 C 
ATOM     15  C   LIG    1        0.349   3.938  -0.938  0.00  0.00    +0.020 C 
ENDBRANCH   9  14
ENDBRANCH   1  11
BRANCH   3  16
ATOM     16  C   LIG    1        2.288   2.607   3.599  0.00  0.00    +0.070 C 
BRANCH  16  17
ATOM     17  C   LIG    1        3.556   3.373   3.214  0.00  0.00    +0.090 C 
BRANCH  17  18
ATOM     18  C   LIG    1        4.259   3.864   4.481  0.00  0.00    +0.100 C 
BRANCH  18  19
ATOM     19  S   LIG    1        5.758   4.770   4.027  0.00  0.00    +0.080 S 
BRANCH  19  20
ATOM     20  C   LIG    1        6.349   5.207   5.628  0.00  0.00    +0.130 A 
ATOM     21  N   LIG    1        5.782   4.907   6.774  0.00  0.00    -0.280 NA
ATOM     22  N   LIG    1        6.487   5.386   7.738  0.00  0.00    -0.270 NA
ATOM     23  C   LIG    1        7.530   6.009   7.247  0.00  0.00    +0.220 A 
ATOM     24  O   LIG    1        7.468   5.904   5.902  0.00  0.00    -0.200 OA
BRANCH  23  25
ATOM     25  C   LIG    1        8.585   6.695   8.024  0.00  0.00    -0.030 A 
ATOM     26  C   LIG    1        9.648   7.316   7.366  0.00  0.00    +0.050 A 
ATOM     27  C   LIG    1       10.626   7.958   8.096  0.00  0.00    +0.010 A 
ATOM     28  C   LIG    1       10.561   7.979   9.478  0.00  0.00    +0.040 A 
ATOM     29  C   LIG    1        9.512   7.361  10.137  0.00  0.00    +0.020 A 
ATOM     30  C   LIG    1        8.524   6.720   9.418  0.00  0.00    +0.070 A 
ENDBRANCH  23  25
ENDBRANCH  19  20
ENDBRANCH  18  19
ENDBRANCH  17  18
ENDBRANCH  16  17
ENDBRANCH   3  16
TORSDOF 9
