REMARK  Name = ZINCqH0000003psr.0
REMARK                            x       y       z     vdW  Elec       q    Type
REMARK                         _______ _______ _______ _____ _____    ______ ____
ROOT
ATOM      1  C   LIG    1       -1.607  -0.250  -0.015  0.00  0.00    -0.190 A 
ATOM      2  C   LIG    1       -2.227  -0.656  -1.165  0.00  0.00    +0.050 A 
ATOM      3  S   LIG    1       -3.788  -1.246  -0.830  0.00  0.00    +0.310 S 
ATOM      4  C   LIG    1       -3.627  -0.940   0.891  0.00  0.00    -0.250 A 
ATOM      5  C   LIG    1       -4.697  -1.226   1.927  0.00  0.00    +0.120 C 
ATOM      6  C   LIG    1       -4.052  -1.223   3.316  0.00  0.00    -0.010 C 
ATOM      7  C   LIG    1       -5.143  -1.260   4.388  0.00  0.00    +0.030 C 
ATOM      8  C   LIG    1       -3.217   0.052   3.475  0.00  0.00    +0.030 C 
ATOM      9  C   LIG    1       -1.983  -0.040   2.575  0.00  0.00    +0.090 C 
ATOM     10  C   LIG    1       -2.428  -0.416   1.171  0.00  0.00    -0.040 A 
ENDROOT
BRANCH   2  11
ATOM     11  N   LIG    1       -1.661  -0.597  -2.428  0.00  0.00    -0.640 N 
ATOM     12  H   LIG    1       -0.762  -0.248  -2.542  0.00  0.00    +0.420 HD
ATOM     13  C   LIG    1       -2.358  -1.023  -3.500  0.00  0.00    +0.510 C 
ATOM     14  O   LIG    1       -3.481  -1.458  -3.358  0.00  0.00    -0.480 OA
BRANCH  13  15
ATOM     15  C   LIG    1       -1.743  -0.959  -4.874  0.00  0.00    +0.230 C 
BRANCH  15  16
ATOM     16  N   LIG    1       -2.634  -1.614  -5.841  0.00  0.00    -0.520 NA
ATOM     17  C   LIG    1       -2.196  -1.355  -7.218  0.00  0.00    +0.180 C 
ATOM     18  C   LIG    1       -3.224  -1.927  -8.197  0.00  0.00    +0.030 C 
ATOM     19  C   LIG    1       -3.364  -3.433  -7.961  0.00  0.00    -0.030 C 
ATOM     20  C   LIG    1       -3.773  -3.678  -6.506  0.00  0.00    +0.030 C 
ATOM     21  C   LIG    1       -4.435  -4.000  -8.895  0.00  0.00    +0.010 C 
ATOM     22  C   LIG    1       -2.729  -3.055  -5.576  0.00  0.00    +0.170 C 
ENDBRANCH  15  16
ENDBRANCH  13  15
ENDBRANCH   2  11
BRANCH   1  23
ATOM     23  C   LIG    1       -0.251   0.302   0.016  0.00  0.00    +0.540 C 
ATOM     24  O   LIG    1        0.704  -0.438   0.165  0.00  0.00    -0.490 OA
BRANCH  23  25
ATOM     25  O   LIG    1       -0.060   1.630  -0.120  0.00  0.00    -0.350 OA
BRANCH  25  27
ATOM     26  C   LIG    1        1.327   3.627  -0.249  0.00  0.00    +0.070 C 
ATOM     27  C   LIG    1        1.311   2.107  -0.079  0.00  0.00    +0.200 C 
ENDBRANCH  25  27
ENDBRANCH  23  25
ENDBRANCH   1  23
TORSDOF 6
