REMARK  Name = ZINCrH000004mWgD.0
REMARK                            x       y       z     vdW  Elec       q    Type
REMARK                         _______ _______ _______ _____ _____    ______ ____
ROOT
ATOM      1  S   LIG    1        5.889  -1.183  -1.897  0.00  0.00    +2.690 S 
ATOM      2  O   LIG    1        6.342  -2.256  -1.083  0.00  0.00    -0.940 OA
ATOM      3  O   LIG    1        6.764  -0.227  -2.481  0.00  0.00    -0.960 OA
ENDROOT
BRANCH   1   7
ATOM      4  C   LIG    1        3.580  -3.049  -5.322  0.00  0.00    +0.160 A 
ATOM      5  C   LIG    1        4.138  -1.790  -5.463  0.00  0.00    -0.070 A 
ATOM      6  C   LIG    1        4.841  -1.223  -4.416  0.00  0.00    +0.150 A 
ATOM      7  C   LIG    1        4.990  -1.911  -3.227  0.00  0.00    -0.690 A 
ATOM      8  C   LIG    1        4.441  -3.171  -3.079  0.00  0.00    +0.170 A 
ATOM      9  C   LIG    1        3.729  -3.743  -4.122  0.00  0.00    +0.100 A 
BRANCH   9  10
ATOM     10  N   LIG    1        3.167  -5.018  -3.974  0.00  0.00    -0.660 N 
ATOM     11  H   LIG    1        2.378  -5.262  -4.482  0.00  0.00    +0.420 HD
ATOM     12  C   LIG    1        3.724  -5.905  -3.125  0.00  0.00    +0.510 C 
ATOM     13  O   LIG    1        4.666  -5.576  -2.436  0.00  0.00    -0.520 OA
ATOM     14  C   LIG    1        3.174  -7.305  -3.031  0.00  0.00    +0.110 C 
ENDBRANCH   9  10
BRANCH   4  16
ATOM     15  C   LIG    1        2.774  -2.838  -7.549  0.00  0.00    +0.250 C 
ATOM     16  O   LIG    1        2.887  -3.608  -6.350  0.00  0.00    -0.310 OA
ENDBRANCH   4  16
ENDBRANCH   1   7
BRANCH   1  17
ATOM     17  N   LIG    1        4.805  -0.328  -0.983  0.00  0.00    -1.110 NA
ATOM     18  H   LIG    1        4.875   0.638  -0.925  0.00  0.00    +0.420 HD
BRANCH  17  19
ATOM     19  C   LIG    1        3.741  -1.030  -0.261  0.00  0.00    +0.290 C 
BRANCH  19  20
ATOM     20  C   LIG    1        2.400  -0.552  -0.755  0.00  0.00    -0.100 A 
ATOM     21  C   LIG    1        1.367  -1.454  -0.932  0.00  0.00    +0.010 A 
ATOM     22  C   LIG    1        0.137  -1.016  -1.385  0.00  0.00    +0.000 A 
ATOM     23  C   LIG    1       -0.062   0.324  -1.659  0.00  0.00    +0.000 A 
ATOM     24  C   LIG    1        0.971   1.226  -1.482  0.00  0.00    +0.000 A 
ATOM     25  C   LIG    1        2.202   0.788  -1.031  0.00  0.00    +0.020 A 
ENDBRANCH  19  20
BRANCH  19  26
ATOM     26  C   LIG    1        3.865  -0.742   1.236  0.00  0.00    +0.030 C 
BRANCH  26  27
ATOM     27  C   LIG    1        5.179  -1.324   1.761  0.00  0.00    -0.030 C 
ATOM     28  C   LIG    1        5.145  -2.849   1.641  0.00  0.00    +0.030 C 
ATOM     29  C   LIG    1        5.362  -0.931   3.228  0.00  0.00    +0.010 C 
ENDBRANCH  26  27
ENDBRANCH  19  26
ENDBRANCH  17  19
ENDBRANCH   1  17
TORSDOF 8
