REMARK  Name = ZINCqH0000007WwT.0
REMARK                            x       y       z     vdW  Elec       q    Type
REMARK                         _______ _______ _______ _____ _____    ______ ____
ROOT
ATOM      1  C   LIG    1       -0.519  -2.299  -2.975  0.00  0.00    -0.230 A 
ATOM      2  C   LIG    1       -0.571  -3.603  -3.387  0.00  0.00    +0.120 A 
ATOM      3  N   LIG    1       -0.822  -3.621  -4.712  0.00  0.00    -0.390 N 
ATOM      4  C   LIG    1       -0.929  -2.345  -5.190  0.00  0.00    +0.020 A 
ATOM      5  C   LIG    1       -1.200  -1.965  -6.623  0.00  0.00    +0.120 C 
ATOM      6  C   LIG    1       -0.382  -4.813  -2.508  0.00  0.00    +0.150 C 
ATOM      7  C   LIG    1       -0.753  -1.484  -4.172  0.00  0.00    -0.020 A 
ENDROOT
BRANCH   3   8
ATOM      8  C   LIG    1       -0.949  -4.781  -5.488  0.00  0.00    +0.100 A 
ATOM      9  C   LIG    1        0.170  -5.339  -6.092  0.00  0.00    +0.030 A 
ATOM     10  C   LIG    1        0.042  -6.482  -6.857  0.00  0.00    +0.010 A 
ATOM     11  C   LIG    1       -1.199  -7.071  -7.021  0.00  0.00    +0.030 A 
ATOM     12  C   LIG    1       -2.315  -6.518  -6.420  0.00  0.00    +0.020 A 
ATOM     13  C   LIG    1       -2.192  -5.378  -5.650  0.00  0.00    -0.070 A 
ATOM     14  C   LIG    1       -3.408  -4.779  -4.990  0.00  0.00    +0.100 C 
ENDBRANCH   3   8
BRANCH   1  17
ATOM     15  N   LIG    1       -0.244  -0.488  -1.359  0.00  0.00    -0.720 N 
ATOM     16  H   LIG    1       -0.388   0.144  -2.080  0.00  0.00    +0.400 HD
ATOM     17  C   LIG    1       -0.271  -1.812  -1.608  0.00  0.00    +0.600 C 
ATOM     18  O   LIG    1       -0.091  -2.606  -0.703  0.00  0.00    -0.550 OA
BRANCH  15  19
ATOM     19  C   LIG    1        0.002  -0.004   0.002  0.00  0.00    +0.340 C 
BRANCH  19  25
ATOM     20  C   LIG    1       -1.225   2.190   0.020  0.00  0.00    +0.340 A 
ATOM     21  N   LIG    1       -1.248   3.513   0.032  0.00  0.00    -0.540 NA
ATOM     22  C   LIG    1       -0.136   4.224   0.025  0.00  0.00    +0.310 A 
ATOM     23  C   LIG    1        1.099   3.607   0.011  0.00  0.00    -0.070 A 
ATOM     24  C   LIG    1        1.165   2.220   0.003  0.00  0.00    +0.120 A 
ATOM     25  C   LIG    1       -0.018   1.503   0.010  0.00  0.00    -0.180 A 
BRANCH  20  27
ATOM     26  C   LIG    1       -3.600   2.263   0.032  0.00  0.00    +0.260 C 
ATOM     27  O   LIG    1       -2.393   1.499   0.022  0.00  0.00    -0.300 OA
ENDBRANCH  20  27
ENDBRANCH  19  25
ENDBRANCH  15  19
ENDBRANCH   1  17
TORSDOF 5
