REMARK  Name = ZINCvU00000005Ux.0
REMARK                            x       y       z     vdW  Elec       q    Type
REMARK                         _______ _______ _______ _____ _____    ______ ____
ROOT
ATOM      1  C   LIG    1        6.631   0.087  -4.488  0.00  0.00    -0.690 A 
ATOM      2  C   LIG    1        5.967   0.769  -5.492  0.00  0.00    +0.160 A 
ATOM      3  C   LIG    1        4.750   1.377  -5.236  0.00  0.00    +0.000 A 
ATOM      4  C   LIG    1        4.189   1.301  -3.978  0.00  0.00    +0.110 A 
ATOM      5  C   LIG    1        4.856   0.618  -2.960  0.00  0.00    -0.150 A 
ATOM      6  C   LIG    1        6.083   0.008  -3.224  0.00  0.00    +0.200 A 
ENDROOT
BRANCH   5   7
ATOM      7  C   LIG    1        4.263   0.537  -1.608  0.00  0.00    +0.560 C 
ATOM      8  N   LIG    1        3.078   1.127  -1.355  0.00  0.00    -0.720 N 
ATOM      9  H   LIG    1        2.614   1.605  -2.061  0.00  0.00    +0.400 HD
ATOM     10  O   LIG    1        4.844  -0.062  -0.724  0.00  0.00    -0.520 OA
BRANCH   8  11
ATOM     11  C   LIG    1        2.490   1.047  -0.016  0.00  0.00    +0.340 C 
BRANCH  11  12
ATOM     12  C   LIG    1        1.175   1.783   0.000  0.00  0.00    -0.100 A 
ATOM     13  C   LIG    1       -0.013   1.076   0.008  0.00  0.00    +0.080 A 
ATOM     14  C   LIG    1       -1.219   1.750   0.017  0.00  0.00    +0.040 A 
ATOM     15  C   LIG    1       -1.238   3.134   0.031  0.00  0.00    -0.020 A 
ATOM     16  C   LIG    1       -0.050   3.842   0.024  0.00  0.00    +0.050 A 
ATOM     17 CL   LIG    1       -2.754   3.981   0.050  0.00  0.00    -0.050 Cl
ATOM     18  C   LIG    1        1.157   3.166   0.009  0.00  0.00    -0.010 A 
ATOM     19 CL   LIG    1        2.648   4.054  -0.001  0.00  0.00    -0.040 Cl
ENDBRANCH  11  12
ENDBRANCH   8  11
ENDBRANCH   5   7
BRANCH   1  20
ATOM     20  S   LIG    1        8.180  -0.682  -4.824  0.00  0.00    +2.690 S 
ATOM     21  O   LIG    1        8.851  -0.797  -3.577  0.00  0.00    -0.930 OA
ATOM     22  O   LIG    1        8.731  -0.002  -5.944  0.00  0.00    -0.940 OA
BRANCH  20  32
ATOM     23  C   LIG    1        6.626  -3.203  -3.438  0.00  0.00    +0.040 C 
ATOM     24  C   LIG    1        7.762  -3.394  -4.445  0.00  0.00    +0.240 C 
ATOM     25  C   LIG    1        7.452  -4.578  -5.375  0.00  0.00    +0.100 C 
ATOM     26  C   LIG    1        7.407  -3.971  -6.760  0.00  0.00    -0.130 A 
ATOM     27  C   LIG    1        7.175  -4.546  -7.994  0.00  0.00    +0.050 A 
ATOM     28  C   LIG    1        7.185  -3.767  -9.136  0.00  0.00    -0.010 A 
ATOM     29  C   LIG    1        7.429  -2.409  -9.040  0.00  0.00    +0.040 A 
ATOM     30  C   LIG    1        7.661  -1.831  -7.811  0.00  0.00    -0.010 A 
ATOM     31  C   LIG    1        7.652  -2.611  -6.653  0.00  0.00    +0.160 A 
ATOM     32  N   LIG    1        7.861  -2.228  -5.327  0.00  0.00    -0.930 N 
ENDBRANCH  20  32
ENDBRANCH   1  20
TORSDOF 5
