REMARK  Name = ZINCvU0000000JsY.0
REMARK                            x       y       z     vdW  Elec       q    Type
REMARK                         _______ _______ _______ _____ _____    ______ ____
ROOT
ATOM      1  N   LIG    1        4.767   0.607   0.248  0.00  0.00    -0.460 N 
ATOM      2  C   LIG    1        5.881   1.389   0.116  0.00  0.00    +0.160 A 
ATOM      3  N   LIG    1        5.475   2.594  -0.213  0.00  0.00    -0.280 NA
ATOM      4  N   LIG    1        4.193   2.620  -0.302  0.00  0.00    -0.260 NA
ATOM      5  C   LIG    1        3.700   1.434  -0.025  0.00  0.00    +0.260 A 
ENDROOT
BRANCH   5   6
ATOM      6  C   LIG    1        2.276   1.058  -0.014  0.00  0.00    -0.140 A 
ATOM      7  C   LIG    1        1.245   1.923   0.001  0.00  0.00    +0.080 A 
ATOM      8  C   LIG    1       -0.016   1.345   0.009  0.00  0.00    -0.100 A 
ATOM      9  C   LIG    1        0.002  -0.004   0.002  0.00  0.00    -0.160 A 
ATOM     10  C   LIG    1       -1.231  -0.883   0.010  0.00  0.00    +0.110 C 
ATOM     11  C   LIG    1       -2.435  -0.037   0.436  0.00  0.00    +0.030 C 
ATOM     12  C   LIG    1       -2.462   1.245  -0.401  0.00  0.00    -0.010 C 
ATOM     13  C   LIG    1       -1.307   2.153   0.032  0.00  0.00    +0.110 C 
ATOM     14  S   LIG    1        1.661  -0.587  -0.017  0.00  0.00    +0.130 S 
BRANCH  12  15
ATOM     15  C   LIG    1       -3.791   1.971  -0.179  0.00  0.00    +0.000 C 
ATOM     16  C   LIG    1       -3.870   3.185  -1.107  0.00  0.00    +0.000 C 
ENDBRANCH  12  15
ENDBRANCH   5   6
BRANCH   1  17
ATOM     17  C   LIG    1        4.719  -0.813   0.605  0.00  0.00    +0.350 C 
BRANCH  17  19
ATOM     18  C   LIG    1        5.706  -2.570  -0.774  0.00  0.00    +0.070 C 
ATOM     19  C   LIG    1        4.783  -1.648  -0.648  0.00  0.00    -0.070 C 
ENDBRANCH  17  19
ENDBRANCH   1  17
BRANCH   2  20
ATOM     20  S   LIG    1        7.551   0.875   0.346  0.00  0.00    +0.040 S 
BRANCH  20  21
ATOM     21  C   LIG    1        8.409   2.432   0.002  0.00  0.00    +0.200 C 
BRANCH  21  22
ATOM     22  C   LIG    1        9.895   2.228   0.142  0.00  0.00    +0.220 A 
ATOM     23  C   LIG    1       10.697   2.147  -0.976  0.00  0.00    -0.110 A 
ATOM     24  C   LIG    1       12.071   1.958  -0.819  0.00  0.00    +0.530 A 
ATOM     25  N   LIG    1       12.603   1.856   0.434  0.00  0.00    -0.470 N 
ATOM     26  C   LIG    1       13.923   1.670   0.760  0.00  0.00    +0.240 A 
ATOM     27  C   LIG    1       14.265   1.593   2.034  0.00  0.00    +0.020 A 
ATOM     28  S   LIG    1       12.753   1.774   2.941  0.00  0.00    +0.190 S 
ATOM     29  C   LIG    1       11.748   1.945   1.491  0.00  0.00    +0.320 A 
ATOM     30  O   LIG    1       12.795   1.884  -1.799  0.00  0.00    -0.510 OA
ATOM     31  N   LIG    1       10.450   2.129   1.345  0.00  0.00    -0.500 NA
ENDBRANCH  21  22
ENDBRANCH  20  21
ENDBRANCH   2  20
TORSDOF 7
