REMARK  Name = ZINCrH000004m3Xn.0
REMARK                            x       y       z     vdW  Elec       q    Type
REMARK                         _______ _______ _______ _____ _____    ______ ____
ROOT
ATOM      1  C   LIG    1       -1.741   5.215   0.626  0.00  0.00    +0.060 C 
ENDROOT
BRANCH   1   2
ATOM      2  C   LIG    1       -1.720   3.708   0.618  0.00  0.00    +0.510 C 
ATOM      3  N   LIG    1       -0.749   3.044   1.275  0.00  0.00    -0.730 N 
ATOM      4  H   LIG    1       -0.063   3.536   1.753  0.00  0.00    +0.400 HD
ATOM      5  O   LIG    1       -2.578   3.094   0.021  0.00  0.00    -0.540 OA
BRANCH   3   6
ATOM      6  C   LIG    1       -0.729   1.579   1.267  0.00  0.00    +0.230 C 
ATOM      7  C   LIG    1       -0.013   1.086   0.008  0.00  0.00    +0.030 C 
BRANCH   6   8
ATOM      8  C   LIG    1        0.011   1.072   2.506  0.00  0.00    +0.030 C 
BRANCH   8   9
ATOM      9  C   LIG    1       -0.772   1.460   3.762  0.00  0.00    +0.060 C 
BRANCH   9  10
ATOM     10  C   LIG    1       -0.044   0.961   4.983  0.00  0.00    -0.080 A 
ATOM     11  C   LIG    1       -0.319  -0.297   5.486  0.00  0.00    +0.000 A 
ATOM     12  C   LIG    1        0.353  -0.757   6.603  0.00  0.00    +0.000 A 
ATOM     13  C   LIG    1        1.293   0.045   7.223  0.00  0.00    +0.000 A 
ATOM     14  C   LIG    1        1.565   1.305   6.723  0.00  0.00    +0.000 A 
ATOM     15  C   LIG    1        0.896   1.762   5.603  0.00  0.00    +0.000 A 
ENDBRANCH   9  10
ENDBRANCH   8   9
ENDBRANCH   6   8
ENDBRANCH   3   6
ENDBRANCH   1   2
BRANCH   1  16
ATOM     16  C   LIG    1       -2.937   5.714  -0.187  0.00  0.00    +0.090 C 
BRANCH  16  19
ATOM     17  C   LIG    1       -2.306   9.311  -1.159  0.00  0.00    +0.150 A 
ATOM     18  C   LIG    1       -2.289   7.924  -1.163  0.00  0.00    -0.090 A 
ATOM     19  C   LIG    1       -2.957   7.220  -0.179  0.00  0.00    -0.010 A 
ATOM     20  C   LIG    1       -3.649   7.895   0.810  0.00  0.00    -0.090 A 
ATOM     21  C   LIG    1       -3.666   9.281   0.824  0.00  0.00    +0.150 A 
ATOM     22  C   LIG    1       -2.995   9.993  -0.164  0.00  0.00    +0.020 A 
BRANCH  17  24
ATOM     23  C   LIG    1       -0.961   9.236  -3.119  0.00  0.00    +0.240 C 
ATOM     24  O   LIG    1       -1.649  10.002  -2.128  0.00  0.00    -0.300 OA
ENDBRANCH  17  24
BRANCH  21  25
ATOM     25  O   LIG    1       -4.342   9.944   1.800  0.00  0.00    -0.300 OA
ATOM     26  C   LIG    1       -5.008   9.149   2.783  0.00  0.00    +0.240 C 
ENDBRANCH  21  25
BRANCH  22  27
ATOM     27  O   LIG    1       -3.015  11.354  -0.157  0.00  0.00    -0.310 OA
ATOM     28  C   LIG    1       -4.074  11.991  -0.873  0.00  0.00    +0.210 C 
ENDBRANCH  22  27
ENDBRANCH  16  19
ENDBRANCH   1  16
TORSDOF 10
