REMARK  Name = ZINCpe00000bLBaW.0
REMARK                            x       y       z     vdW  Elec       q    Type
REMARK                         _______ _______ _______ _____ _____    ______ ____
ROOT
ATOM      1  C   LIG    1       -4.299  -2.541  -2.186  0.00  0.00    +0.240 C 
ATOM      2  C   LIG    1       -4.414  -4.064  -2.095  0.00  0.00    +0.020 C 
ENDROOT
BRANCH   1   7
ATOM      3  C   LIG    1        0.002  -0.004   0.002  0.00  0.00    +0.530 C 
ATOM      4  N   LIG    1       -1.156  -0.694   0.009  0.00  0.00    -0.610 N 
ATOM      5  C   LIG    1       -2.446   0.009   0.032  0.00  0.00    +0.280 C 
ATOM      6  C   LIG    1       -3.302  -0.504  -1.136  0.00  0.00    +0.020 C 
ATOM      7  C   LIG    1       -3.416  -2.028  -1.046  0.00  0.00    -0.010 C 
ATOM      8  C   LIG    1       -2.023  -2.652  -1.160  0.00  0.00    +0.030 C 
ATOM      9  C   LIG    1       -1.152  -2.163   0.001  0.00  0.00    +0.280 C 
ATOM     10  O   LIG    1        1.060  -0.596  -0.011  0.00  0.00    -0.520 OA
BRANCH   3  11
ATOM     11  C   LIG    1       -0.018   1.503   0.010  0.00  0.00    +0.090 C 
BRANCH  11  13
ATOM     12  C   LIG    1        1.455   3.930   0.009  0.00  0.00    +0.130 C 
ATOM     13  S   LIG    1        1.683   2.131  -0.003  0.00  0.00    -0.180 S 
ENDBRANCH  11  13
ENDBRANCH   3  11
ENDBRANCH   1   7
BRANCH   1  14
ATOM     14  N   LIG    1       -5.632  -1.943  -2.077  0.00  0.00    -0.700 N 
ATOM     15  H   LIG    1       -5.957  -1.636  -1.216  0.00  0.00    +0.410 HD
ATOM     16  C   LIG    1       -6.407  -1.820  -3.173  0.00  0.00    +0.610 C 
ATOM     17  O   LIG    1       -5.999  -2.205  -4.251  0.00  0.00    -0.500 OA
BRANCH  16  18
ATOM     18  C   LIG    1       -7.755  -1.216  -3.063  0.00  0.00    +0.240 A 
ATOM     19  N   LIG    1       -8.596  -1.040  -4.065  0.00  0.00    -0.270 NA
ATOM     20  N   LIG    1       -9.747  -0.446  -3.531  0.00  0.00    -0.330 N 
ATOM     21  C   LIG    1      -10.927  -0.041  -4.078  0.00  0.00    +0.360 A 
ATOM     22  C   LIG    1      -11.866   0.521  -3.276  0.00  0.00    -0.030 A 
ATOM     23  C   LIG    1      -11.598   0.671  -1.908  0.00  0.00    +0.410 A 
ATOM     24  N   LIG    1      -10.451   0.271  -1.409  0.00  0.00    -0.450 NA
ATOM     25  C   LIG    1       -9.517  -0.285  -2.192  0.00  0.00    +0.440 A 
ATOM     26  N   LIG    1       -8.306  -0.759  -1.937  0.00  0.00    -0.500 NA
ENDBRANCH  16  18
ENDBRANCH   1  14
TORSDOF 5
