REMARK  Name = ZINCbu0000000GBQ.0
REMARK                            x       y       z     vdW  Elec       q    Type
REMARK                         _______ _______ _______ _____ _____    ______ ____
ROOT
ATOM      1  C   LIG    1        2.200  -0.080  -1.216  0.00  0.00    +0.160 C 
ATOM      2  C   LIG    1        3.028  -1.381  -1.240  0.00  0.00    +0.060 C 
ATOM      3  C   LIG    1        2.082  -2.421  -1.890  0.00  0.00    +0.030 C 
ATOM      4  C   LIG    1        0.701  -2.041  -1.301  0.00  0.00    +0.040 C 
ATOM      5  C   LIG    1        0.720  -0.500  -1.255  0.00  0.00    -0.010 C 
ENDROOT
BRANCH   1   7
ATOM      6  C   LIG    1        3.900   1.236  -2.280  0.00  0.00    +0.320 C 
ATOM      7  N   LIG    1        2.521   0.744  -2.390  0.00  0.00    -0.510 N 
ATOM      8  H   LIG    1        1.886   1.527  -2.434  0.00  0.00    +0.430 HD
ATOM      9  H   LIG    1        2.427   0.188  -3.226  0.00  0.00    +0.430 HD
ENDBRANCH   1   7
BRANCH   5  10
ATOM     10  C   LIG    1        0.002  -0.004   0.002  0.00  0.00    -0.060 C 
ATOM     11  C   LIG    1       -1.446  -0.498  -0.010  0.00  0.00    +0.040 C 
ATOM     12  C   LIG    1        0.715  -0.544   1.243  0.00  0.00    +0.030 C 
ATOM     13  C   LIG    1        0.019   1.526   0.029  0.00  0.00    +0.020 C 
ENDBRANCH   5  10
TORSDOF 2
