REMARK  Name = ZINCrH00000tj0KL.0
REMARK                            x       y       z     vdW  Elec       q    Type
REMARK                         _______ _______ _______ _____ _____    ______ ____
ROOT
ATOM      1  C   LIG    1       -1.289   1.679   0.056  0.00  0.00    +0.260 C 
ENDROOT
BRANCH   1   2
ATOM      2  N   LIG    1       -0.011   0.963   0.052  0.00  0.00    -0.730 N 
ATOM      3  H   LIG    1        0.002  -0.007   0.043  0.00  0.00    +0.400 HD
ATOM      4  C   LIG    1        1.147   1.652   0.056  0.00  0.00    +0.520 C 
ATOM      5  O   LIG    1        1.131   2.865   0.068  0.00  0.00    -0.540 OA
BRANCH   4   6
ATOM      6  C   LIG    1        2.462   0.916   0.046  0.00  0.00    -0.070 C 
ATOM      7  C   LIG    1        2.552   0.049  -1.212  0.00  0.00    +0.040 C 
ATOM      8  C   LIG    1        3.887  -0.698  -1.223  0.00  0.00    -0.010 C 
ATOM      9  C   LIG    1        3.982  -1.589   0.018  0.00  0.00    +0.020 C 
ATOM     10  C   LIG    1        3.893  -0.722   1.276  0.00  0.00    -0.010 C 
ATOM     11  C   LIG    1        5.042   0.287   1.283  0.00  0.00    +0.010 C 
ATOM     12  C   LIG    1        4.947   1.177   0.042  0.00  0.00    -0.020 C 
ATOM     13  C   LIG    1        5.037   0.311  -1.216  0.00  0.00    +0.010 C 
ATOM     14  C   LIG    1        2.558   0.025   1.286  0.00  0.00    +0.040 C 
ATOM     15  C   LIG    1        3.612   1.925   0.053  0.00  0.00    +0.050 C 
ENDBRANCH   4   6
ENDBRANCH   1   2
BRANCH   1  16
ATOM     16  C   LIG    1       -2.439   0.669   0.043  0.00  0.00    +0.040 C 
BRANCH  16  17
ATOM     17  C   LIG    1       -3.774   1.417   0.047  0.00  0.00    +0.060 C 
BRANCH  17  20
ATOM     18  N   LIG    1       -6.183   0.855   0.036  0.00  0.00    -0.670 N 
ATOM     19  H   LIG    1       -6.374   1.803   0.110  0.00  0.00    +0.410 HD
ATOM     20  C   LIG    1       -4.906   0.423   0.035  0.00  0.00    +0.510 C 
ATOM     21  O   LIG    1       -4.669  -0.767   0.024  0.00  0.00    -0.520 OA
BRANCH  18  27
ATOM     22  C   LIG    1       -8.397   0.279  -0.756  0.00  0.00    +0.100 A 
ATOM     23  C   LIG    1       -9.432  -0.636  -0.862  0.00  0.00    -0.060 A 
ATOM     24  C   LIG    1       -9.313  -1.884  -0.278  0.00  0.00    +0.040 A 
ATOM     25  C   LIG    1       -8.162  -2.224   0.408  0.00  0.00    -0.010 A 
ATOM     26  C   LIG    1       -7.123  -1.318   0.513  0.00  0.00    +0.060 A 
ATOM     27  C   LIG    1       -7.234  -0.065  -0.070  0.00  0.00    +0.110 A 
BRANCH  22  29
ATOM     28  C   LIG    1       -9.735   1.792  -2.013  0.00  0.00    +0.250 C 
ATOM     29  O   LIG    1       -8.514   1.509  -1.325  0.00  0.00    -0.320 OA
ENDBRANCH  22  29
ENDBRANCH  18  27
ENDBRANCH  17  20
ENDBRANCH  16  17
ENDBRANCH   1  16
TORSDOF 7
