REMARK  Name = ZINCrD00000F5LC2.0
REMARK                            x       y       z     vdW  Elec       q    Type
REMARK                         _______ _______ _______ _____ _____    ______ ____
ROOT
ATOM      1  C   LIG    1       -1.181  -2.064  -0.099  0.00  0.00    +0.550 C 
ATOM      2  N   LIG    1       -1.198  -0.721   0.010  0.00  0.00    -0.670 N 
ATOM      3  H   LIG    1       -2.043  -0.251   0.087  0.00  0.00    +0.410 HD
ATOM      4  O   LIG    1       -0.120  -2.661  -0.113  0.00  0.00    -0.520 OA
ENDROOT
BRANCH   2   5
ATOM      5  C   LIG    1        0.003  -0.005   0.013  0.00  0.00    +0.160 A 
ATOM      6  C   LIG    1        1.136  -0.548   0.604  0.00  0.00    +0.030 A 
ATOM      7  C   LIG    1        2.320   0.162   0.605  0.00  0.00    +0.040 A 
ATOM      8  C   LIG    1        2.379   1.413   0.019  0.00  0.00    +0.000 A 
ATOM      9  C   LIG    1        1.252   1.957  -0.571  0.00  0.00    +0.060 A 
ATOM     10  C   LIG    1        0.065   1.252  -0.576  0.00  0.00    -0.130 A 
BRANCH  10  11
ATOM     11  C   LIG    1       -1.161   1.843  -1.225  0.00  0.00    -0.290 C 
BRANCH  11  12
ATOM     12  S   LIG    1       -2.093   2.799   0.003  0.00  0.00    +2.600 S 
ATOM     13  O   LIG    1       -1.370   3.961   0.384  0.00  0.00    -0.950 OA
ATOM     14  O   LIG    1       -2.661   1.937   0.980  0.00  0.00    -0.960 OA
BRANCH  12  15
ATOM     15  N   LIG    1       -3.397   3.384  -0.833  0.00  0.00    -1.250 NA
ATOM     16  H   LIG    1       -3.321   3.570  -1.782  0.00  0.00    +0.410 HD
ATOM     17  H   LIG    1       -4.237   3.542  -0.373  0.00  0.00    +0.420 HD
ENDBRANCH  12  15
ENDBRANCH  11  12
ENDBRANCH  10  11
ENDBRANCH   2   5
BRANCH   1  19
ATOM     18  C   LIG    1       -2.421  -4.151  -0.310  0.00  0.00    +0.150 C 
ATOM     19  C   LIG    1       -2.438  -2.805  -0.201  0.00  0.00    -0.110 C 
BRANCH  18  23
ATOM     20  C   LIG    1       -6.066  -6.300  -0.605  0.00  0.00    +0.150 A 
ATOM     21  C   LIG    1       -4.856  -6.984  -0.621  0.00  0.00    -0.020 A 
ATOM     22  C   LIG    1       -3.670  -6.291  -0.526  0.00  0.00    +0.090 A 
ATOM     23  C   LIG    1       -3.684  -4.896  -0.412  0.00  0.00    -0.130 A 
ATOM     24  C   LIG    1       -4.906  -4.213  -0.391  0.00  0.00    +0.080 A 
ATOM     25  C   LIG    1       -6.086  -4.915  -0.492  0.00  0.00    -0.080 A 
BRANCH  20  26
ATOM     26  O   LIG    1       -7.232  -6.988  -0.700  0.00  0.00    -0.310 OA
BRANCH  26  27
ATOM     27  C   LIG    1       -8.440  -6.224  -0.677  0.00  0.00    +0.180 C 
BRANCH  27  28
ATOM     28  C   LIG    1       -9.641  -7.164  -0.794  0.00  0.00    +0.040 C 
BRANCH  28  30
ATOM     29  C   LIG    1      -12.134  -7.287  -0.886  0.00  0.00    +0.030 C 
ATOM     30  C   LIG    1      -10.934  -6.346  -0.769  0.00  0.00    +0.020 C 
ENDBRANCH  28  30
ENDBRANCH  27  28
ENDBRANCH  26  27
ENDBRANCH  20  26
ENDBRANCH  18  23
ENDBRANCH   1  19
TORSDOF 10
