REMARK  Name = ZINCpk00000xI8eB.0
REMARK                            x       y       z     vdW  Elec       q    Type
REMARK                         _______ _______ _______ _____ _____    ______ ____
ROOT
ATOM      1  C   LIG    1        2.299   8.643   4.645  0.00  0.00    +0.260 C 
ATOM      2  C   LIG    1        3.062   7.327   4.501  0.00  0.00    +0.280 C 
ATOM      3  N   LIG    1        2.904   6.841   3.121  0.00  0.00    -0.620 N 
ATOM      4  C   LIG    1        3.179   7.779   2.021  0.00  0.00    +0.260 C 
ATOM      5  C   LIG    1        2.404   9.075   2.287  0.00  0.00    +0.230 C 
ATOM      6  C   LIG    1        2.513   5.575   2.872  0.00  0.00    +0.520 C 
ATOM      7  O   LIG    1        2.291   4.817   3.791  0.00  0.00    -0.530 OA
ATOM      8  O   LIG    1        2.700   9.539   3.606  0.00  0.00    -0.360 OA
ENDROOT
BRANCH   1  13
ATOM      9  N   LIG    1        1.778   9.288   7.062  0.00  0.00    -0.470 N 
ATOM     10  C   LIG    1        2.459   9.937   8.037  0.00  0.00    +0.380 A 
ATOM     11  N   LIG    1        3.622  10.268   7.546  0.00  0.00    -0.290 NA
ATOM     12  N   LIG    1        3.709   9.860   6.329  0.00  0.00    -0.260 NA
ATOM     13  C   LIG    1        2.602   9.259   5.987  0.00  0.00    +0.170 A 
BRANCH   9  15
ATOM     14  C   LIG    1        0.511   7.246   7.515  0.00  0.00    +0.040 C 
ATOM     15  C   LIG    1        0.427   8.730   7.152  0.00  0.00    +0.310 C 
ENDBRANCH   9  15
ENDBRANCH   1  13
BRANCH   6  16
ATOM     16  C   LIG    1        2.351   5.103   1.450  0.00  0.00    +0.060 C 
BRANCH  16  17
ATOM     17  C   LIG    1        1.903   3.640   1.446  0.00  0.00    +0.040 C 
BRANCH  17  18
ATOM     18  C   LIG    1        1.739   3.160   0.002  0.00  0.00    +0.320 C 
BRANCH  18  19
ATOM     19  N   LIG    1        1.309   1.760  -0.001  0.00  0.00    -0.370 N 
ATOM     20  N   LIG    1       -0.016   1.304   0.009  0.00  0.00    -0.300 NA
ATOM     21  C   LIG    1        0.002  -0.004   0.002  0.00  0.00    +0.070 A 
ATOM     22  C   LIG    1        1.337  -0.423  -0.013  0.00  0.00    -0.120 A 
ATOM     23  C   LIG    1       -1.206  -0.904   0.009  0.00  0.00    +0.160 C 
ATOM     24  C   LIG    1        2.119   0.681  -0.015  0.00  0.00    +0.090 A 
ATOM     25  C   LIG    1        3.626   0.702  -0.028  0.00  0.00    +0.150 C 
ENDBRANCH  18  19
ENDBRANCH  17  18
ENDBRANCH  16  17
ENDBRANCH   6  16
TORSDOF 6
