REMARK  Name = ZINCvU00000005rY.0
REMARK                            x       y       z     vdW  Elec       q    Type
REMARK                         _______ _______ _______ _____ _____    ______ ____
ROOT
ATOM      1  C   LIG    1        0.072   7.430   3.095  0.00  0.00    -0.020 A 
ATOM      2  C   LIG    1       -0.138   8.121   4.214  0.00  0.00    -0.020 A 
ATOM      3  S   LIG    1        0.681   7.386   5.579  0.00  0.00    +0.180 S 
ATOM      4  C   LIG    1        1.331   6.091   4.585  0.00  0.00    +0.120 A 
ATOM      5  N   LIG    1        2.113   5.050   4.898  0.00  0.00    -0.530 NA
ATOM      6  C   LIG    1        2.488   4.185   3.984  0.00  0.00    +0.560 A 
ATOM      7  N   LIG    1        2.115   4.291   2.722  0.00  0.00    -0.590 NA
ATOM      8  C   LIG    1        1.346   5.291   2.316  0.00  0.00    +0.500 A 
ATOM      9  C   LIG    1        0.913   6.252   3.263  0.00  0.00    -0.220 A 
ENDROOT
BRANCH   1  14
ATOM     10  C   LIG    1       -2.163   8.967  -1.984  0.00  0.00    +0.100 C 
ATOM     11  C   LIG    1       -1.578   8.565  -0.655  0.00  0.00    -0.080 A 
ATOM     12  C   LIG    1       -1.905   7.340  -0.101  0.00  0.00    +0.010 A 
ATOM     13  C   LIG    1       -1.373   6.966   1.116  0.00  0.00    +0.030 A 
ATOM     14  C   LIG    1       -0.503   7.825   1.787  0.00  0.00    -0.060 A 
ATOM     15  C   LIG    1       -0.181   9.061   1.226  0.00  0.00    +0.040 A 
ATOM     16  C   LIG    1       -0.716   9.421   0.006  0.00  0.00    +0.010 A 
ENDBRANCH   1  14
BRANCH   8  17
ATOM     17  N   LIG    1        0.968   5.393   0.990  0.00  0.00    -0.680 N 
ATOM     18  H   LIG    1        0.476   6.171   0.684  0.00  0.00    +0.420 HD
BRANCH  17  19
ATOM     19  C   LIG    1        1.309   4.325   0.047  0.00  0.00    +0.410 C 
BRANCH  19  20
ATOM     20  C   LIG    1        1.364   4.887  -1.351  0.00  0.00    -0.110 A 
ATOM     21  C   LIG    1        0.422   5.813  -1.760  0.00  0.00    +0.070 A 
ATOM     22  C   LIG    1        0.475   6.333  -3.039  0.00  0.00    -0.010 A 
ATOM     23  C   LIG    1        1.464   5.918  -3.914  0.00  0.00    +0.110 A 
ATOM     24  C   LIG    1        2.403   4.986  -3.505  0.00  0.00    -0.010 A 
ATOM     25  F   LIG    1        1.513   6.422  -5.167  0.00  0.00    -0.140 F 
ATOM     26  C   LIG    1        2.352   4.471  -2.224  0.00  0.00    +0.060 A 
ENDBRANCH  19  20
BRANCH  19  27
ATOM     27  C   LIG    1        0.262   3.243   0.112  0.00  0.00    +0.190 A 
ATOM     28  N   LIG    1       -1.029   3.434   0.134  0.00  0.00    -0.470 NA
ATOM     29  C   LIG    1       -1.651   2.247   0.189  0.00  0.00    +0.140 A 
ATOM     30  C   LIG    1       -0.709   1.284   0.212  0.00  0.00    +0.130 A 
ATOM     31  N   LIG    1        0.504   1.915   0.160  0.00  0.00    -0.450 N 
ATOM     32  C   LIG    1        1.820   1.271   0.156  0.00  0.00    +0.320 C 
ENDBRANCH  19  27
ENDBRANCH  17  19
ENDBRANCH   8  17
TORSDOF 5
