REMARK  Name = ZINCqH0000050jME.0
REMARK                            x       y       z     vdW  Elec       q    Type
REMARK                         _______ _______ _______ _____ _____    ______ ____
ROOT
ATOM      1  C   LIG    1       -2.546   5.408   0.727  0.00  0.00    +0.520 C 
ATOM      2  N   LIG    1       -3.601   6.232   0.886  0.00  0.00    -0.510 N 
ATOM      3  O   LIG    1       -2.703   4.309   0.238  0.00  0.00    -0.480 OA
ENDROOT
BRANCH   2   4
ATOM      4  C   LIG    1       -3.395   7.603   1.361  0.00  0.00    +0.240 C 
ATOM      5  C   LIG    1       -4.079   7.780   2.718  0.00  0.00    +0.020 C 
ATOM      6  C   LIG    1       -3.864   9.211   3.215  0.00  0.00    +0.020 C 
ATOM      7  C   LIG    1       -4.463  10.196   2.208  0.00  0.00    +0.010 C 
ATOM      8  C   LIG    1       -3.779  10.018   0.852  0.00  0.00    +0.020 C 
ATOM      9  C   LIG    1       -3.994   8.587   0.355  0.00  0.00    +0.020 C 
ENDBRANCH   2   4
BRANCH   2  10
ATOM     10  C   LIG    1       -4.884   5.782   0.599  0.00  0.00    +0.240 A 
ATOM     11  N   LIG    1       -5.972   6.452   0.815  0.00  0.00    -0.500 NA
ATOM     12  C   LIG    1       -7.108   5.872   0.477  0.00  0.00    +0.240 A 
ATOM     13  C   LIG    1       -6.975   4.649  -0.039  0.00  0.00    -0.130 A 
ATOM     14  S   LIG    1       -5.258   4.259  -0.083  0.00  0.00    +0.230 S 
ENDBRANCH   2  10
BRANCH   1  15
ATOM     15  C   LIG    1       -1.171   5.853   1.155  0.00  0.00    +0.200 C 
ATOM     16  C   LIG    1       -1.111   5.923   2.682  0.00  0.00    +0.080 C 
BRANCH  15  17
ATOM     17  O   LIG    1       -0.184   4.903   0.675  0.00  0.00    -0.320 OA
BRANCH  17  18
ATOM     18  C   LIG    1        1.044   5.384   0.400  0.00  0.00    +0.520 C 
ATOM     19  O   LIG    1        1.284   6.564   0.557  0.00  0.00    -0.500 OA
BRANCH  18  24
ATOM     20  C   LIG    1        5.034   1.760  -1.480  0.00  0.00    +0.140 C 
ATOM     21  C   LIG    1        3.997   2.736  -0.987  0.00  0.00    +0.170 A 
ATOM     22  C   LIG    1        4.335   4.069  -0.836  0.00  0.00    -0.030 A 
ATOM     23  C   LIG    1        3.381   4.962  -0.382  0.00  0.00    +0.150 A 
ATOM     24  C   LIG    1        2.100   4.475  -0.093  0.00  0.00    -0.190 A 
ATOM     25  C   LIG    1        1.839   3.115  -0.272  0.00  0.00    +0.340 A 
ATOM     26  N   LIG    1        2.782   2.305  -0.706  0.00  0.00    -0.490 NA
ENDBRANCH  18  24
ENDBRANCH  17  18
ENDBRANCH  15  17
ENDBRANCH   1  15
TORSDOF 6
