REMARK  Name = ZINCrH000004r57F.1
REMARK                            x       y       z     vdW  Elec       q    Type
REMARK                         _______ _______ _______ _____ _____    ______ ____
ROOT
ATOM      1  C   LIG    1        5.461  11.240   0.002  0.00  0.00    +0.110 C 
ATOM      2  C   LIG    1        5.176   9.760  -0.007  0.00  0.00    -0.070 A 
ATOM      3  C   LIG    1        3.870   9.311  -0.006  0.00  0.00    +0.030 A 
ATOM      4  C   LIG    1        3.601   7.957  -0.020  0.00  0.00    +0.040 A 
ATOM      5  C   LIG    1        4.651   7.037  -0.025  0.00  0.00    -0.120 A 
ATOM      6  C   LIG    1        5.970   7.491  -0.027  0.00  0.00    +0.110 A 
ATOM      7  C   LIG    1        6.229   8.852  -0.018  0.00  0.00    +0.140 A 
ENDROOT
BRANCH   5   8
ATOM      8  C   LIG    1        4.365   5.586  -0.035  0.00  0.00    +0.570 C 
ATOM      9  N   LIG    1        3.090   5.150  -0.033  0.00  0.00    -0.520 N 
ATOM     10  H   LIG    1        2.359   5.788  -0.026  0.00  0.00    +0.430 HD
ATOM     11  O   LIG    1        5.281   4.787  -0.044  0.00  0.00    -0.520 OA
BRANCH   9  12
ATOM     12  N   LIG    1        2.820   3.775  -0.042  0.00  0.00    -0.520 N 
ATOM     13  H   LIG    1        3.550   3.137  -0.050  0.00  0.00    +0.430 HD
ATOM     14  C   LIG    1        1.544   3.339  -0.040  0.00  0.00    +0.600 C 
ATOM     15  O   LIG    1        0.627   4.140  -0.031  0.00  0.00    -0.520 OA
BRANCH  14  16
ATOM     16  C   LIG    1        1.262   1.902  -0.050  0.00  0.00    -0.260 A 
ATOM     17  C   LIG    1        0.016   1.339  -0.049  0.00  0.00    +0.130 A 
ATOM     18  C   LIG    1        0.041  -0.035  -0.059  0.00  0.00    +0.050 A 
ATOM     19  C   LIG    1        1.264  -0.581  -0.068  0.00  0.00    -0.220 A 
ATOM     20 BR   LIG    1        1.607  -2.441  -0.083  0.00  0.00    +0.030 Br
ATOM     21  S   LIG    1        2.470   0.625  -0.064  0.00  0.00    +0.270 S 
ENDBRANCH  14  16
ENDBRANCH   9  12
ENDBRANCH   5   8
BRANCH   7  22
ATOM     22  N   LIG    1        7.550   9.313  -0.019  0.00  0.00    -0.660 N 
ATOM     23  H   LIG    1        7.779  10.127  -0.493  0.00  0.00    +0.420 HD
ATOM     24  C   LIG    1        8.504   8.624   0.638  0.00  0.00    +0.610 C 
ATOM     25  O   LIG    1        8.234   7.560   1.163  0.00  0.00    -0.490 OA
BRANCH  24  26
ATOM     26  C   LIG    1        9.867   9.157   0.720  0.00  0.00    -0.090 A 
ATOM     27  C   LIG    1       10.924   8.565   1.351  0.00  0.00    +0.050 A 
ATOM     28  C   LIG    1       12.026   9.417   1.179  0.00  0.00    -0.060 A 
ATOM     29  C   LIG    1       11.599  10.479   0.460  0.00  0.00    +0.210 A 
ATOM     30  O   LIG    1       10.300  10.316   0.180  0.00  0.00    -0.170 OA
ENDBRANCH  24  26
ENDBRANCH   7  22
TORSDOF 5
