REMARK  Name = ZINCrH00000tj0Mt.0
REMARK                            x       y       z     vdW  Elec       q    Type
REMARK                         _______ _______ _______ _____ _____    ______ ____
ROOT
ATOM      1  C   LIG    1       -1.263   1.914  -3.563  0.00  0.00    +0.050 C 
ENDROOT
BRANCH   1   3
ATOM      2  O   LIG    1        0.545   0.655  -2.717  0.00  0.00    -0.520 OA
ATOM      3  C   LIG    1       -0.421   1.338  -2.453  0.00  0.00    +0.560 C 
ATOM      4  N   LIG    1       -0.743   1.582  -1.167  0.00  0.00    -0.610 N 
ATOM      5  C   LIG    1       -0.013   1.086   0.008  0.00  0.00    +0.250 C 
ATOM      6  C   LIG    1       -0.756   1.594   1.262  0.00  0.00    +0.040 C 
ATOM      7  C   LIG    1       -2.187   1.874   0.722  0.00  0.00    +0.040 C 
ATOM      8  C   LIG    1       -1.886   2.391  -0.707  0.00  0.00    +0.250 C 
ENDBRANCH   1   3
BRANCH   1   9
ATOM      9  C   LIG    1       -2.495   1.067  -3.750  0.00  0.00    -0.100 A 
ATOM     10  C   LIG    1       -2.372  -0.268  -4.088  0.00  0.00    +0.030 A 
ATOM     11  C   LIG    1       -3.503  -1.046  -4.256  0.00  0.00    +0.010 A 
ATOM     12  C   LIG    1       -4.756  -0.487  -4.093  0.00  0.00    +0.020 A 
ATOM     13  C   LIG    1       -4.880   0.849  -3.760  0.00  0.00    +0.010 A 
ATOM     14  C   LIG    1       -3.749   1.626  -3.588  0.00  0.00    +0.060 A 
ENDBRANCH   1   9
BRANCH   1  15
ATOM     15  S   LIG    1       -0.305   1.932  -5.099  0.00  0.00    +0.130 S 
BRANCH  15  16
ATOM     16  C   LIG    1       -1.440   2.768  -6.157  0.00  0.00    +0.210 A 
ATOM     17  N   LIG    1       -2.634   3.212  -5.829  0.00  0.00    -0.320 NA
ATOM     18  N   LIG    1       -3.197   3.776  -6.836  0.00  0.00    -0.020 NA
ATOM     19  N   LIG    1       -2.426   3.731  -7.868  0.00  0.00    -0.070 NA
ATOM     20  N   LIG    1       -1.249   3.072  -7.471  0.00  0.00    -0.320 N 
BRANCH  20  21
ATOM     21  C   LIG    1       -0.123   2.790  -8.257  0.00  0.00    +0.140 A 
ATOM     22  C   LIG    1       -0.275   2.474  -9.600  0.00  0.00    +0.060 A 
ATOM     23  C   LIG    1        0.836   2.196 -10.373  0.00  0.00    +0.070 A 
ATOM     24  C   LIG    1        2.099   2.232  -9.810  0.00  0.00    +0.060 A 
ATOM     25  C   LIG    1        2.253   2.547  -8.471  0.00  0.00    -0.010 A 
ATOM     26 CL   LIG    1        3.840   2.591  -7.768  0.00  0.00    -0.040 Cl
ATOM     27  C   LIG    1        1.145   2.831  -7.695  0.00  0.00    +0.040 A 
ENDBRANCH  20  21
ENDBRANCH  15  16
ENDBRANCH   1  15
TORSDOF 5
