REMARK  Name = ZINCpk00000xWuus.0
REMARK                            x       y       z     vdW  Elec       q    Type
REMARK                         _______ _______ _______ _____ _____    ______ ____
ROOT
ATOM      1  N   LIG    1       -2.056   5.008  -1.536  0.00  0.00    -1.060 NA
ENDROOT
BRANCH   1   2
ATOM      2  C   LIG    1       -2.874   6.104  -1.833  0.00  0.00    +0.390 A 
ATOM      3  N   LIG    1       -3.456   6.891  -0.959  0.00  0.00    -0.410 NA
ATOM      4  N   LIG    1       -4.182   7.862  -1.660  0.00  0.00    -0.490 N 
ATOM      5  H   LIG    1       -4.710   8.574  -1.266  0.00  0.00    +0.430 HD
ATOM      6  C   LIG    1       -4.019   7.633  -2.980  0.00  0.00    +0.210 A 
ATOM      7  C   LIG    1       -3.211   6.558  -3.119  0.00  0.00    -0.260 A 
BRANCH   7   8
ATOM      8  C   LIG    1       -2.757   5.951  -4.421  0.00  0.00    +0.100 C 
ATOM      9  C   LIG    1       -1.982   6.996  -5.230  0.00  0.00    +0.050 C 
ATOM     10  C   LIG    1       -1.592   6.399  -6.583  0.00  0.00    +0.240 C 
ATOM     11  N   LIG    1       -2.802   6.008  -7.317  0.00  0.00    -0.500 N 
ATOM     12  C   LIG    1       -3.512   4.955  -6.582  0.00  0.00    +0.240 C 
ATOM     13  H   LIG    1       -3.405   6.811  -7.419  0.00  0.00    +0.420 HD
ATOM     14  H   LIG    1       -2.545   5.665  -8.230  0.00  0.00    +0.420 HD
ATOM     15  C   LIG    1       -3.976   5.497  -5.228  0.00  0.00    +0.050 C 
ENDBRANCH   7   8
ENDBRANCH   1   2
BRANCH   1  17
ATOM     16  O   LIG    1       -2.987   4.179   0.594  0.00  0.00    -1.010 OA
ATOM     17  S   LIG    1       -1.750   4.606   0.041  0.00  0.00    +2.640 S 
ATOM     18  O   LIG    1       -0.982   5.672   0.584  0.00  0.00    -1.010 OA
BRANCH  17  19
ATOM     19  C   LIG    1       -0.697   3.193   0.025  0.00  0.00    -0.410 A 
ATOM     20  N   LIG    1        0.611   3.211   0.013  0.00  0.00    -0.180 NA
ATOM     21  N   LIG    1        1.067   1.886   0.002  0.00  0.00    -0.390 N 
ATOM     22  C   LIG    1       -0.013   1.076   0.008  0.00  0.00    +0.220 A 
ATOM     23  C   LIG    1       -1.116   1.859   0.017  0.00  0.00    -0.030 A 
BRANCH  21  24
ATOM     24  C   LIG    1        2.467   1.456  -0.013  0.00  0.00    +0.360 C 
BRANCH  24  25
ATOM     25  C   LIG    1        3.187   2.103  -1.198  0.00  0.00    +0.440 C 
ATOM     26  F   LIG    1        2.567   1.713  -2.389  0.00  0.00    -0.180 F 
ATOM     27  F   LIG    1        4.524   1.693  -1.212  0.00  0.00    -0.180 F 
ATOM     28  F   LIG    1        3.127   3.496  -1.076  0.00  0.00    -0.160 F 
ENDBRANCH  24  25
ENDBRANCH  21  24
ENDBRANCH  17  19
ENDBRANCH   1  17
TORSDOF 6
