REMARK  Name = ZINCpe000000SuXg.0
REMARK                            x       y       z     vdW  Elec       q    Type
REMARK                         _______ _______ _______ _____ _____    ______ ____
ROOT
ATOM      1  N   LIG    1       -2.606   4.096   0.037  0.00  0.00    -0.520 NA
ATOM      2  C   LIG    1       -3.288   3.748  -1.217  0.00  0.00    +0.200 C 
ATOM      3  C   LIG    1       -4.753   4.184  -1.136  0.00  0.00    +0.210 C 
ATOM      4  N   LIG    1       -4.818   5.631  -0.890  0.00  0.00    -0.480 N 
ATOM      5  C   LIG    1       -4.136   5.980   0.364  0.00  0.00    +0.220 C 
ATOM      6  C   LIG    1       -2.671   5.544   0.283  0.00  0.00    +0.190 C 
ENDROOT
BRANCH   4   7
ATOM      7  C   LIG    1       -6.135   6.077  -0.881  0.00  0.00    +0.320 A 
ATOM      8  C   LIG    1       -6.946   5.846  -1.986  0.00  0.00    +0.000 A 
ATOM      9  C   LIG    1       -8.267   6.295  -1.959  0.00  0.00    +0.040 A 
ATOM     10  C   LIG    1       -8.714   6.971  -0.817  0.00  0.00    +0.000 A 
ATOM     11  C   LIG    1       -7.843   7.163   0.234  0.00  0.00    +0.300 A 
ATOM     12  N   LIG    1       -6.601   6.721   0.177  0.00  0.00    -0.500 NA
BRANCH   9  13
ATOM     13  C   LIG    1       -9.170   6.068  -3.110  0.00  0.00    +0.220 A 
ATOM     14  N   LIG    1      -10.432   6.445  -3.208  0.00  0.00    -0.460 NA
ATOM     15  C   LIG    1      -10.839   6.026  -4.416  0.00  0.00    +0.170 A 
ATOM     16  N   LIG    1       -9.835   5.427  -4.984  0.00  0.00    -0.380 NA
ATOM     17  C   LIG    1      -12.213   6.214  -5.006  0.00  0.00    +0.200 C 
ATOM     18  O   LIG    1       -8.864   5.444  -4.257  0.00  0.00    +0.090 OA
ENDBRANCH   9  13
ENDBRANCH   4   7
BRANCH   1  19
ATOM     19  C   LIG    1       -1.214   3.626   0.028  0.00  0.00    +0.220 C 
BRANCH  19  22
ATOM     20  N   LIG    1       -0.018   1.461   0.010  0.00  0.00    -0.730 N 
ATOM     21  H   LIG    1        0.816   1.957   0.005  0.00  0.00    +0.400 HD
ATOM     22  C   LIG    1       -1.194   2.119   0.019  0.00  0.00    +0.510 C 
ATOM     23  O   LIG    1       -2.236   1.498   0.021  0.00  0.00    -0.520 OA
BRANCH  20  24
ATOM     24  C   LIG    1        0.002  -0.004   0.002  0.00  0.00    +0.300 C 
BRANCH  24  26
ATOM     25  C   LIG    1        1.850  -1.318   0.907  0.00  0.00    +0.040 C 
ATOM     26  C   LIG    1        1.429  -0.487  -0.014  0.00  0.00    -0.060 C 
ENDBRANCH  24  26
ENDBRANCH  20  24
ENDBRANCH  19  22
ENDBRANCH   1  19
TORSDOF 6
