REMARK  Name = ZINCpe00000zsuxg.0
REMARK                            x       y       z     vdW  Elec       q    Type
REMARK                         _______ _______ _______ _____ _____    ______ ____
ROOT
ATOM      1  O   LIG    1       -1.737  -1.174   0.538  0.00  0.00    -0.520 OA
ATOM      2  C   LIG    1       -2.057  -0.163  -0.057  0.00  0.00    +0.570 C 
ATOM      3  N   LIG    1       -1.460   1.009   0.237  0.00  0.00    -0.610 N 
ATOM      4  C   LIG    1       -0.492   1.100   1.339  0.00  0.00    +0.290 C 
ATOM      5  C   LIG    1       -0.947   2.197   2.308  0.00  0.00    +0.260 C 
ATOM      6  N   LIG    1       -1.259   3.408   1.533  0.00  0.00    -0.610 N 
ATOM      7  C   LIG    1       -2.228   3.317   0.432  0.00  0.00    +0.290 C 
ATOM      8  C   LIG    1       -0.663   4.580   1.829  0.00  0.00    +0.560 C 
ATOM      9  O   LIG    1       -0.989   5.590   1.242  0.00  0.00    -0.510 OA
ATOM     10  C   LIG    1       -1.768   2.220  -0.536  0.00  0.00    +0.280 C 
ENDROOT
BRANCH   2  11
ATOM     11  C   LIG    1       -3.095  -0.220  -1.102  0.00  0.00    -0.180 A 
ATOM     12  C   LIG    1       -2.820   0.245  -2.391  0.00  0.00    +0.100 A 
ATOM     13  C   LIG    1       -3.791   0.186  -3.365  0.00  0.00    -0.010 A 
ATOM     14  C   LIG    1       -5.049  -0.326  -3.067  0.00  0.00    +0.160 A 
ATOM     15  C   LIG    1       -5.332  -0.784  -1.787  0.00  0.00    -0.040 A 
ATOM     16  C   LIG    1       -4.364  -0.733  -0.804  0.00  0.00    +0.170 A 
ATOM     17  F   LIG    1       -4.639  -1.178   0.441  0.00  0.00    -0.120 F 
BRANCH  14  18
ATOM     18  O   LIG    1       -6.004  -0.376  -4.030  0.00  0.00    -0.490 OA
ATOM     19  H   LIG    1       -6.554   0.417  -4.080  0.00  0.00    +0.400 HD
ENDBRANCH  14  18
ENDBRANCH   2  11
BRANCH   8  20
ATOM     20  C   LIG    1        0.407   4.636   2.888  0.00  0.00    -0.160 C 
ATOM     21  C   LIG    1        0.333   5.773   3.908  0.00  0.00    +0.140 C 
ATOM     22  C   LIG    1       -0.010   4.343   4.330  0.00  0.00    +0.220 C 
ATOM     23  F   LIG    1        0.908   3.672   5.145  0.00  0.00    -0.150 F 
ATOM     24  F   LIG    1       -1.357   4.045   4.565  0.00  0.00    -0.150 F 
BRANCH  20  25
ATOM     25  C   LIG    1        1.797   4.171   2.446  0.00  0.00    +0.250 C 
BRANCH  25  26
ATOM     26  O   LIG    1        2.267   5.012   1.390  0.00  0.00    -0.560 OA
ATOM     27  H   LIG    1        3.109   4.730   1.009  0.00  0.00    +0.390 HD
ENDBRANCH  25  26
ENDBRANCH  20  25
ENDBRANCH   8  20
TORSDOF 5
