REMARK  Name = ZINC650000003Wvn.0
REMARK                            x       y       z     vdW  Elec       q    Type
REMARK                         _______ _______ _______ _____ _____    ______ ____
ROOT
ATOM      1  O   LIG    1        0.002  -0.004   0.002  0.00  0.00    -0.570 OA
ATOM      2  C   LIG    1       -0.014   1.214   0.009  0.00  0.00    +0.650 A 
ATOM      3  N   LIG    1       -1.116   1.990   0.018  0.00  0.00    -0.640 N 
ATOM      4  H   LIG    1       -2.034   1.677   0.019  0.00  0.00    +0.430 HD
ATOM      5  C   LIG    1       -0.707   3.315   0.026  0.00  0.00    +0.170 A 
ATOM      6  C   LIG    1        0.621   3.333   0.013  0.00  0.00    +0.170 A 
ATOM      7  N   LIG    1        1.066   2.020   0.003  0.00  0.00    -0.640 N 
ATOM      8  H   LIG    1        1.992   1.731  -0.008  0.00  0.00    +0.430 HD
ENDROOT
TORSDOF 0
