REMARK  Name = ZINCrD000000AhBx.0
REMARK                            x       y       z     vdW  Elec       q    Type
REMARK                         _______ _______ _______ _____ _____    ______ ____
ROOT
ATOM      1  O   LIG    1        4.088   5.646  -3.345  0.00  0.00    -0.540 OA
ATOM      2  C   LIG    1        4.413   5.981  -2.225  0.00  0.00    +0.510 C 
ATOM      3  N   LIG    1        3.717   5.536  -1.160  0.00  0.00    -0.730 N 
ATOM      4  H   LIG    1        3.977   5.804  -0.265  0.00  0.00    +0.410 HD
ENDROOT
BRANCH   3   5
ATOM      5  C   LIG    1        2.569   4.647  -1.355  0.00  0.00    +0.280 C 
BRANCH   5   6
ATOM      6  C   LIG    1        2.035   4.198   0.007  0.00  0.00    +0.260 C 
BRANCH   6   7
ATOM      7  N   LIG    1        1.729   5.378   0.827  0.00  0.00    -0.520 NA
ATOM      8  C   LIG    1        0.980   5.001   2.034  0.00  0.00    +0.160 C 
ATOM      9  C   LIG    1        0.735   6.249   2.887  0.00  0.00    +0.220 C 
ATOM     10  O   LIG    1        0.045   7.226   2.104  0.00  0.00    -0.380 OA
ATOM     11  C   LIG    1        0.746   7.617   0.921  0.00  0.00    +0.230 C 
ATOM     12  C   LIG    1        0.991   6.383   0.049  0.00  0.00    +0.150 C 
ENDBRANCH   6   7
BRANCH   6  13
ATOM     13  C   LIG    1        0.782   3.384  -0.189  0.00  0.00    -0.220 A 
ATOM     14  C   LIG    1        0.694   2.061  -0.041  0.00  0.00    +0.020 A 
ATOM     15  C   LIG    1       -0.564   1.531  -0.273  0.00  0.00    +0.000 A 
ATOM     16  C   LIG    1       -1.495   2.422  -0.614  0.00  0.00    -0.060 A 
ATOM     17  S   LIG    1       -0.788   4.032  -0.645  0.00  0.00    +0.120 S 
ENDBRANCH   6  13
ENDBRANCH   5   6
ENDBRANCH   3   5
BRANCH   2  18
ATOM     18  C   LIG    1        5.594   6.895  -2.025  0.00  0.00    +0.050 C 
BRANCH  18  19
ATOM     19  C   LIG    1        6.201   7.250  -3.384  0.00  0.00    +0.130 C 
BRANCH  19  20
ATOM     20  C   LIG    1        7.382   8.164  -3.184  0.00  0.00    -0.170 A 
ATOM     21  C   LIG    1        7.372   9.505  -3.238  0.00  0.00    +0.230 A 
ATOM     22  N   LIG    1        8.630   9.991  -3.006  0.00  0.00    -0.600 N 
ATOM     23  H   LIG    1        8.871  10.930  -2.994  0.00  0.00    +0.420 HD
ATOM     24  C   LIG    1        9.502   8.947  -2.791  0.00  0.00    +0.090 A 
ATOM     25  C   LIG    1       10.864   8.879  -2.516  0.00  0.00    -0.010 A 
ATOM     26  C   LIG    1       11.467   7.652  -2.347  0.00  0.00    +0.020 A 
ATOM     27  C   LIG    1       10.729   6.480  -2.449  0.00  0.00    -0.030 A 
ATOM     28  C   LIG    1        9.390   6.524  -2.720  0.00  0.00    +0.050 A 
ATOM     29  C   LIG    1        8.758   7.757  -2.888  0.00  0.00    -0.100 A 
ENDBRANCH  19  20
ENDBRANCH  18  19
ENDBRANCH   2  18
TORSDOF 7
