REMARK  Name = ZINCrH00000No57C.0
REMARK                            x       y       z     vdW  Elec       q    Type
REMARK                         _______ _______ _______ _____ _____    ______ ____
ROOT
ATOM      1  S   LIG    1        2.918  -1.152  -1.789  0.00  0.00    +2.670 S 
ATOM      2  O   LIG    1        2.472  -2.462  -1.464  0.00  0.00    -0.920 OA
ATOM      3  O   LIG    1        4.167  -0.627  -1.360  0.00  0.00    -0.950 OA
ENDROOT
BRANCH   1   4
ATOM      4  N   LIG    1        1.757  -0.111  -1.231  0.00  0.00    -0.980 NA
ATOM      5  C   LIG    1        2.039   1.325  -1.100  0.00  0.00    +0.230 C 
ATOM      6  C   LIG    1        1.705   1.765   0.329  0.00  0.00    +0.020 C 
ATOM      7  C   LIG    1        0.261   1.376   0.654  0.00  0.00    +0.020 C 
ATOM      8  C   LIG    1        0.109  -0.144   0.569  0.00  0.00    +0.020 C 
ATOM      9  C   LIG    1        3.519   1.585  -1.388  0.00  0.00    +0.040 C 
ATOM     10  C   LIG    1        0.425  -0.606  -0.857  0.00  0.00    +0.280 C 
BRANCH  10  11
ATOM     11  C   LIG    1        0.410  -2.112  -0.915  0.00  0.00    -0.080 A 
ATOM     12  C   LIG    1       -0.032  -2.756  -2.056  0.00  0.00    +0.000 A 
ATOM     13  C   LIG    1       -0.040  -4.137  -2.111  0.00  0.00    +0.010 A 
ATOM     14  C   LIG    1        0.384  -4.874  -1.022  0.00  0.00    +0.010 A 
ATOM     15  C   LIG    1        0.821  -4.231   0.121  0.00  0.00    +0.010 A 
ATOM     16  C   LIG    1        0.835  -2.850   0.174  0.00  0.00    +0.050 A 
ENDBRANCH  10  11
ENDBRANCH   1   4
BRANCH   1  20
ATOM     17  C   LIG    1        2.901  -0.880  -6.307  0.00  0.00    -0.610 A 
ATOM     18  C   LIG    1        3.807  -0.137  -5.573  0.00  0.00    +0.110 A 
ATOM     19  C   LIG    1        3.812  -0.220  -4.193  0.00  0.00    +0.100 A 
ATOM     20  C   LIG    1        2.911  -1.046  -3.547  0.00  0.00    -0.630 A 
ATOM     21  C   LIG    1        2.009  -1.794  -4.282  0.00  0.00    +0.100 A 
ATOM     22  C   LIG    1        2.002  -1.708  -5.661  0.00  0.00    +0.100 A 
BRANCH  17  23
ATOM     23  S   LIG    1        2.895  -0.774  -8.066  0.00  0.00    +2.490 S 
ATOM     24  O   LIG    1        3.429   0.513  -8.341  0.00  0.00    -0.930 OA
ATOM     25  O   LIG    1        1.563  -1.109  -8.432  0.00  0.00    -0.930 OA
BRANCH  23  27
ATOM     26  C   LIG    1        4.129  -2.078 -10.130  0.00  0.00    +0.100 C 
ATOM     27  C   LIG    1        4.047  -2.069  -8.602  0.00  0.00    -0.320 C 
ENDBRANCH  23  27
ENDBRANCH  17  23
ENDBRANCH   1  20
TORSDOF 5
