REMARK  Name = ZINCpk00000KfLO9.0
REMARK                            x       y       z     vdW  Elec       q    Type
REMARK                         _______ _______ _______ _____ _____    ______ ____
ROOT
ATOM      1  C   LIG    1        0.681   7.489  -1.640  0.00  0.00    +0.520 C 
ATOM      2  N   LIG    1        0.330   6.218  -1.365  0.00  0.00    -0.730 N 
ATOM      3  H   LIG    1        0.388   5.538  -2.054  0.00  0.00    +0.400 HD
ATOM      4  O   LIG    1        0.608   8.339  -0.778  0.00  0.00    -0.520 OA
ENDROOT
BRANCH   1   5
ATOM      5  C   LIG    1        1.164   7.855  -3.020  0.00  0.00    +0.110 C 
ATOM      6  C   LIG    1        0.070   7.544  -4.043  0.00  0.00    +0.070 C 
BRANCH   5   9
ATOM      7  C   LIG    1        3.120  10.540  -3.407  0.00  0.00    +0.250 C 
ATOM      8  C   LIG    1        2.697   9.585  -2.282  0.00  0.00    +0.190 C 
ATOM      9  N   LIG    1        1.482   9.289  -3.063  0.00  0.00    -0.440 NA
ATOM     10  C   LIG    1        2.248   9.624  -4.278  0.00  0.00    +0.190 C 
BRANCH   7  14
ATOM     11  C   LIG    1        0.120  14.548  -3.632  0.00  0.00    +0.110 C 
ATOM     12  C   LIG    1        1.301  13.652  -3.359  0.00  0.00    -0.250 A 
ATOM     13  C   LIG    1        1.393  12.340  -3.674  0.00  0.00    +0.250 A 
ATOM     14  N   LIG    1        2.603  11.903  -3.264  0.00  0.00    -0.350 N 
ATOM     15  N   LIG    1        3.273  12.981  -2.673  0.00  0.00    -0.300 NA
ATOM     16  C   LIG    1        2.494  14.030  -2.735  0.00  0.00    +0.230 A 
ENDBRANCH   7  14
ENDBRANCH   5   9
ENDBRANCH   1   5
BRANCH   2  17
ATOM     17  C   LIG    1       -0.140   5.862  -0.023  0.00  0.00    +0.330 C 
BRANCH  17  18
ATOM     18  C   LIG    1       -0.465   4.391   0.021  0.00  0.00    -0.100 A 
ATOM     19  C   LIG    1       -1.740   3.957  -0.290  0.00  0.00    +0.050 A 
ATOM     20  C   LIG    1       -2.042   2.608  -0.255  0.00  0.00    +0.040 A 
ATOM     21  C   LIG    1       -1.069   1.689   0.100  0.00  0.00    +0.040 A 
ATOM     22  O   LIG    1       -1.107   0.329   0.212  0.00  0.00    -0.310 OA
ATOM     23  C   LIG    1        0.051  -0.025   0.991  0.00  0.00    +0.440 C 
ATOM     24  O   LIG    1        0.983   1.040   0.722  0.00  0.00    -0.310 OA
ATOM     25  C   LIG    1        0.216   2.126   0.414  0.00  0.00    +0.030 A 
ATOM     26  C   LIG    1        0.512   3.478   0.373  0.00  0.00    +0.060 A 
ENDBRANCH  17  18
ENDBRANCH   2  17
TORSDOF 5
