REMARK  Name = ZINCkj000005luIs.0
REMARK                            x       y       z     vdW  Elec       q    Type
REMARK                         _______ _______ _______ _____ _____    ______ ____
ROOT
ATOM      1  N   LIG    1        2.581  -5.416   2.468  0.00  0.00    -0.710 N 
ATOM      2  H   LIG    1        2.811  -5.211   3.388  0.00  0.00    +0.420 HD
ENDROOT
BRANCH   1   7
ATOM      3  C   LIG    1        2.286  -9.071   2.565  0.00  0.00    +0.490 A 
ATOM      4  N   LIG    1        1.973  -9.279   1.287  0.00  0.00    -0.590 NA
ATOM      5  C   LIG    1        1.865  -8.272   0.444  0.00  0.00    +0.600 A 
ATOM      6  N   LIG    1        2.055  -7.024   0.822  0.00  0.00    -0.600 NA
ATOM      7  C   LIG    1        2.377  -6.733   2.081  0.00  0.00    +0.470 A 
ATOM      8  C   LIG    1        2.501  -7.767   3.004  0.00  0.00    -0.280 A 
ATOM      9 CL   LIG    1        2.912  -7.441   4.658  0.00  0.00    -0.050 Cl
BRANCH   3  10
ATOM     10  N   LIG    1        2.396 -10.137   3.445  0.00  0.00    -0.820 N 
ATOM     11  H   LIG    1        2.245 -11.043   3.131  0.00  0.00    +0.420 HD
ATOM     12  H   LIG    1        2.624  -9.978   4.374  0.00  0.00    +0.420 HD
ENDBRANCH   3  10
ENDBRANCH   1   7
BRANCH   1  13
ATOM     13  C   LIG    1        2.448  -4.336   1.488  0.00  0.00    +0.260 C 
ATOM     14  C   LIG    1        3.284  -3.133   1.935  0.00  0.00    +0.050 C 
ATOM     15  C   LIG    1        3.079  -1.981   0.950  0.00  0.00    +0.280 C 
ATOM     16  N   LIG    1        1.660  -1.607   0.917  0.00  0.00    -0.380 N 
ATOM     17  C   LIG    1        0.861  -2.733   0.420  0.00  0.00    +0.260 C 
ATOM     18  H   LIG    1        1.355  -1.365   1.849  0.00  0.00    +0.420 HD
ATOM     19  C   LIG    1        0.980  -3.914   1.386  0.00  0.00    +0.050 C 
BRANCH  16  20
ATOM     20  C   LIG    1        1.480  -0.451   0.029  0.00  0.00    +0.140 C 
ATOM     21  C   LIG    1        2.192   0.804   0.604  0.00  0.00    +0.050 C 
ATOM     22  C   LIG    1        1.326   1.937  -0.000  0.00  0.00    +0.240 C 
ATOM     23  O   LIG    1       -0.017   1.428   0.010  0.00  0.00    -0.360 OA
ATOM     24  C   LIG    1        0.002  -0.004   0.002  0.00  0.00    +0.230 C 
ENDBRANCH  16  20
ENDBRANCH   1  13
TORSDOF 4
