REMARK  Name = ZINCrH000004lzRx.0
REMARK                            x       y       z     vdW  Elec       q    Type
REMARK                         _______ _______ _______ _____ _____    ______ ____
ROOT
ATOM      1  C   LIG    1        6.631   0.659   1.111  0.00  0.00    +0.600 C 
ATOM      2  N   LIG    1        6.951   1.890   0.665  0.00  0.00    -0.710 N 
ATOM      3  H   LIG    1        6.252   2.538   0.488  0.00  0.00    +0.420 HD
ATOM      4  O   LIG    1        7.508  -0.155   1.332  0.00  0.00    -0.510 OA
ENDROOT
BRANCH   1   6
ATOM      5  C   LIG    1        4.784  -0.906   1.774  0.00  0.00    -0.080 A 
ATOM      6  C   LIG    1        5.223   0.299   1.329  0.00  0.00    -0.010 A 
ATOM      7  O   LIG    1        4.171   1.118   1.119  0.00  0.00    -0.180 OA
ATOM      8  C   LIG    1        3.013   0.495   1.411  0.00  0.00    +0.070 A 
ATOM      9  C   LIG    1        1.681   0.891   1.366  0.00  0.00    +0.030 A 
ATOM     10  C   LIG    1        0.690   0.008   1.738  0.00  0.00    +0.060 A 
ATOM     11  C   LIG    1        1.005  -1.276   2.159  0.00  0.00    -0.010 A 
ATOM     12  C   LIG    1        2.307  -1.688   2.212  0.00  0.00    +0.070 A 
ATOM     13  C   LIG    1        3.326  -0.808   1.839  0.00  0.00    -0.130 A 
BRANCH   5  14
ATOM     14  C   LIG    1        5.629  -2.103   2.129  0.00  0.00    +0.260 C 
BRANCH  14  16
ATOM     15  C   LIG    1        6.600  -4.087   1.199  0.00  0.00    +0.210 C 
ATOM     16  O   LIG    1        5.809  -2.919   0.970  0.00  0.00    -0.380 OA
ENDBRANCH  14  16
ENDBRANCH   5  14
ENDBRANCH   1   6
BRANCH   2  17
ATOM     17  C   LIG    1        8.355   2.248   0.447  0.00  0.00    +0.290 C 
BRANCH  17  18
ATOM     18  C   LIG    1        8.441   3.690  -0.056  0.00  0.00    +0.270 C 
BRANCH  18  19
ATOM     19  N   LIG    1        7.749   4.580   0.886  0.00  0.00    -0.510 NA
ATOM     20  C   LIG    1        8.243   4.375   2.272  0.00  0.00    +0.170 C 
ATOM     21  C   LIG    1        7.832   5.684   2.992  0.00  0.00    +0.020 C 
ATOM     22  C   LIG    1        8.058   6.761   1.906  0.00  0.00    +0.010 C 
ATOM     23  C   LIG    1        8.015   5.999   0.569  0.00  0.00    +0.160 C 
ENDBRANCH  18  19
BRANCH  18  24
ATOM     24  C   LIG    1        9.887   4.100  -0.164  0.00  0.00    -0.050 A 
ATOM     25  C   LIG    1       10.577   4.260  -1.307  0.00  0.00    -0.040 A 
ATOM     26  C   LIG    1       11.887   4.648  -0.945  0.00  0.00    -0.060 A 
ATOM     27  C   LIG    1       11.922   4.694   0.399  0.00  0.00    +0.160 A 
ATOM     28  O   LIG    1       10.708   4.361   0.867  0.00  0.00    -0.170 OA
ENDBRANCH  18  24
ENDBRANCH  17  18
ENDBRANCH   2  17
TORSDOF 7
