REMARK  Name = ZINCrg00000J1I6j.0
REMARK                            x       y       z     vdW  Elec       q    Type
REMARK                         _______ _______ _______ _____ _____    ______ ____
ROOT
ATOM      1  O   LIG    1       -2.960   7.564   1.524  0.00  0.00    -0.570 OA
ATOM      2  C   LIG    1       -3.943   6.855   1.430  0.00  0.00    +0.710 C 
ATOM      3  N   LIG    1       -3.804   5.518   1.334  0.00  0.00    -0.630 N 
ATOM      4  C   LIG    1       -4.978   4.631   1.329  0.00  0.00    +0.240 C 
ATOM      5  C   LIG    1       -4.861   3.679   0.134  0.00  0.00    +0.230 C 
ATOM      6  O   LIG    1       -3.583   3.039   0.165  0.00  0.00    -0.370 OA
ATOM      7  C   LIG    1       -2.476   3.935   0.041  0.00  0.00    +0.220 C 
ATOM      8  C   LIG    1       -2.471   4.901   1.232  0.00  0.00    +0.320 C 
ATOM      9  N   LIG    1       -5.173   7.406   1.421  0.00  0.00    -0.750 N 
ATOM     10  H   LIG    1       -5.959   6.838   1.421  0.00  0.00    +0.400 HD
ENDROOT
BRANCH   7  11
ATOM     11  C   LIG    1       -1.191   3.148   0.026  0.00  0.00    +0.200 A 
ATOM     12  C   LIG    1       -1.216   1.763   0.013  0.00  0.00    -0.070 A 
ATOM     13  C   LIG    1       -0.011   1.078   0.003  0.00  0.00    +0.340 A 
ATOM     14  N   LIG    1        1.120   1.762  -0.002  0.00  0.00    -0.550 NA
ATOM     15  C   LIG    1        1.110   3.087   0.006  0.00  0.00    +0.490 A 
ATOM     16  N   LIG    1       -0.024   3.772   0.020  0.00  0.00    -0.520 NA
BRANCH  15  17
ATOM     17  N   LIG    1        2.313   3.772   0.001  0.00  0.00    -0.450 N 
ATOM     18  C   LIG    1        2.470   4.582   1.236  0.00  0.00    +0.200 C 
ATOM     19  C   LIG    1        3.999   4.825   1.308  0.00  0.00    +0.030 C 
ATOM     20  C   LIG    1        4.585   3.485   0.806  0.00  0.00    +0.020 C 
ATOM     21  C   LIG    1        3.456   2.835  -0.015  0.00  0.00    +0.220 C 
ENDBRANCH  15  17
ENDBRANCH   7  11
BRANCH   9  22
ATOM     22  C   LIG    1       -5.323   8.863   1.413  0.00  0.00    +0.280 C 
BRANCH  22  23
ATOM     23  C   LIG    1       -6.810   9.223   1.404  0.00  0.00    +0.300 C 
BRANCH  23  24
ATOM     24  N   LIG    1       -6.959  10.681   1.396  0.00  0.00    -0.460 N 
ATOM     25  C   LIG    1       -7.037  11.483   0.289  0.00  0.00    +0.120 A 
ATOM     26  C   LIG    1       -7.168  12.747   0.733  0.00  0.00    +0.140 A 
ATOM     27  N   LIG    1       -7.171  12.718   2.074  0.00  0.00    -0.490 NA
ATOM     28  C   LIG    1       -7.052  11.483   2.478  0.00  0.00    +0.400 A 
ENDBRANCH  23  24
ENDBRANCH  22  23
ENDBRANCH   9  22
TORSDOF 5
