REMARK  Name = ZINCpk00000kJKEu.0
REMARK                            x       y       z     vdW  Elec       q    Type
REMARK                         _______ _______ _______ _____ _____    ______ ____
ROOT
ATOM      1  C   LIG    1       -3.346  -1.883  -4.398  0.00  0.00    +0.520 C 
ATOM      2  N   LIG    1       -2.418  -1.527  -3.487  0.00  0.00    -0.620 N 
ATOM      3  C   LIG    1       -1.082  -1.062  -3.897  0.00  0.00    +0.290 C 
ATOM      4  C   LIG    1       -0.901   0.372  -3.395  0.00  0.00    +0.260 C 
ATOM      5  N   LIG    1       -1.316   0.488  -2.003  0.00  0.00    -0.600 N 
ATOM      6  C   LIG    1       -2.146  -0.354  -1.388  0.00  0.00    +0.500 C 
ATOM      7  O   LIG    1       -2.476  -0.111  -0.246  0.00  0.00    -0.510 OA
ATOM      8  C   LIG    1       -2.698  -1.589  -2.045  0.00  0.00    +0.330 C 
ATOM      9  O   LIG    1       -3.089  -1.822  -5.582  0.00  0.00    -0.520 OA
ENDROOT
BRANCH   5  10
ATOM     10  C   LIG    1       -0.778   1.606  -1.224  0.00  0.00    +0.210 C 
ATOM     11  C   LIG    1       -1.928   2.453  -0.626  0.00  0.00    +0.020 C 
ATOM     12  C   LIG    1       -1.394   2.771   0.793  0.00  0.00    +0.200 C 
ATOM     13  O   LIG    1       -0.705   1.559   1.176  0.00  0.00    -0.360 OA
ATOM     14  C   LIG    1       -0.013   1.086   0.008  0.00  0.00    +0.190 C 
ENDBRANCH   5  10
BRANCH   1  15
ATOM     15  C   LIG    1       -4.704  -2.354  -3.945  0.00  0.00    +0.140 C 
BRANCH  15  22
ATOM     16  C   LIG    1       -7.729  -4.703  -8.911  0.00  0.00    +0.090 C 
ATOM     17  C   LIG    1       -6.732  -4.855  -7.791  0.00  0.00    -0.100 A 
ATOM     18  C   LIG    1       -6.498  -3.799  -6.917  0.00  0.00    +0.100 A 
ATOM     19  N   LIG    1       -7.003  -2.522  -6.816  0.00  0.00    -0.590 N 
ATOM     20  H   LIG    1       -7.670  -2.138  -7.407  0.00  0.00    +0.420 HD
ATOM     21  C   LIG    1       -6.426  -1.875  -5.758  0.00  0.00    +0.240 A 
ATOM     22  C   LIG    1       -5.547  -2.687  -5.149  0.00  0.00    -0.160 A 
ATOM     23  C   LIG    1       -5.559  -3.956  -5.881  0.00  0.00    -0.090 A 
ATOM     24  C   LIG    1       -4.883  -5.168  -5.732  0.00  0.00    +0.040 A 
ATOM     25  C   LIG    1       -5.129  -6.194  -6.601  0.00  0.00    -0.020 A 
ATOM     26  C   LIG    1       -6.050  -6.041  -7.629  0.00  0.00    +0.020 A 
ENDBRANCH  15  22
ENDBRANCH   1  15
TORSDOF 3
