REMARK  Name = ZINCrD0000074xS9.0
REMARK                            x       y       z     vdW  Elec       q    Type
REMARK                         _______ _______ _______ _____ _____    ______ ____
ROOT
ATOM      1  C   LIG    1        5.363   4.031  -0.130  0.00  0.00    +0.020 C 
ENDROOT
BRANCH   1   2
ATOM      2  C   LIG    1        6.324   5.080  -0.626  0.00  0.00    +0.540 C 
ATOM      3  N   LIG    1        5.856   6.224  -1.164  0.00  0.00    -0.610 N 
ATOM      4  C   LIG    1        4.413   6.503  -1.190  0.00  0.00    +0.280 C 
ATOM      5  C   LIG    1        3.995   6.825  -2.623  0.00  0.00    +0.030 C 
ATOM      6  C   LIG    1        4.865   7.963  -3.163  0.00  0.00    -0.010 C 
ATOM      7  C   LIG    1        6.331   7.525  -3.173  0.00  0.00    +0.050 C 
ATOM      8  C   LIG    1        6.777   7.213  -1.741  0.00  0.00    +0.280 C 
ATOM      9  O   LIG    1        7.520   4.896  -0.542  0.00  0.00    -0.520 OA
BRANCH   6  10
ATOM     10  C   LIG    1        4.433   8.303  -4.566  0.00  0.00    +0.520 C 
ATOM     11  O   LIG    1        5.220   8.206  -5.483  0.00  0.00    -0.540 OA
ATOM     12  N   LIG    1        3.172   8.717  -4.801  0.00  0.00    -0.860 N 
ATOM     13  H   LIG    1        2.893   8.936  -5.704  0.00  0.00    +0.400 HD
ATOM     14  H   LIG    1        2.542   8.795  -4.067  0.00  0.00    +0.400 HD
ENDBRANCH   6  10
ENDBRANCH   1   2
BRANCH   1  15
ATOM     15  C   LIG    1        5.051   4.283   1.346  0.00  0.00    +0.020 C 
ATOM     16  C   LIG    1        4.303   5.610   1.490  0.00  0.00    +0.020 C 
ATOM     17  C   LIG    1        6.357   4.346   2.141  0.00  0.00    +0.030 C 
ENDBRANCH   1  15
BRANCH   1  18
ATOM     18  S   LIG    1        6.109   2.393  -0.318  0.00  0.00    +0.020 S 
BRANCH  18  22
ATOM     19  C   LIG    1        3.844  -2.309  -0.029  0.00  0.00    +0.120 C 
ATOM     20  C   LIG    1        3.736  -0.810   0.079  0.00  0.00    -0.010 A 
ATOM     21  C   LIG    1        4.819  -0.014  -0.139  0.00  0.00    -0.020 A 
ATOM     22  C   LIG    1        4.696   1.379  -0.033  0.00  0.00    +0.140 A 
ATOM     23  N   LIG    1        3.547   1.948   0.276  0.00  0.00    -0.490 NA
ATOM     24  C   LIG    1        2.450   1.217   0.501  0.00  0.00    +0.150 A 
ATOM     25  C   LIG    1        1.228   1.829   0.829  0.00  0.00    +0.030 A 
ATOM     26  C   LIG    1        0.126   1.061   1.053  0.00  0.00    +0.040 A 
ATOM     27  C   LIG    1        0.188  -0.327   0.962  0.00  0.00    +0.010 A 
ATOM     28  C   LIG    1        1.355  -0.955   0.646  0.00  0.00    +0.040 A 
ATOM     29  C   LIG    1        2.510  -0.195   0.409  0.00  0.00    -0.110 A 
ENDBRANCH  18  22
ENDBRANCH   1  18
TORSDOF 5
