REMARK  Name = ZINCrD000000fTHS.0
REMARK                            x       y       z     vdW  Elec       q    Type
REMARK                         _______ _______ _______ _____ _____    ______ ____
ROOT
ATOM      1  C   LIG    1        2.191   0.929  -5.593  0.00  0.00    +0.190 A 
ATOM      2  N   LIG    1        1.458   1.095  -4.518  0.00  0.00    -0.470 NA
ATOM      3  C   LIG    1        1.545   2.403  -4.219  0.00  0.00    +0.180 A 
ATOM      4  N   LIG    1        2.319   2.954  -5.105  0.00  0.00    -0.380 NA
ATOM      5  O   LIG    1        2.701   2.125  -5.904  0.00  0.00    +0.080 OA
ENDROOT
BRANCH   1  11
ATOM      6  C   LIG    1        4.797  -2.950  -6.680  0.00  0.00    +0.530 C 
ATOM      7  N   LIG    1        4.137  -1.882  -7.170  0.00  0.00    -0.610 N 
ATOM      8  C   LIG    1        3.624  -1.886  -8.546  0.00  0.00    +0.280 C 
ATOM      9  C   LIG    1        2.131  -1.544  -8.517  0.00  0.00    +0.030 C 
ATOM     10  C   LIG    1        1.929  -0.222  -7.774  0.00  0.00    +0.040 C 
ATOM     11  C   LIG    1        2.420  -0.364  -6.332  0.00  0.00    +0.110 C 
ATOM     12  C   LIG    1        3.916  -0.692  -6.337  0.00  0.00    +0.300 C 
ATOM     13  O   LIG    1        5.295  -2.901  -5.575  0.00  0.00    -0.530 OA
BRANCH   6  15
ATOM     14  C   LIG    1        5.668  -5.272  -6.706  0.00  0.00    +0.050 C 
ATOM     15  C   LIG    1        4.917  -4.206  -7.506  0.00  0.00    -0.080 C 
ATOM     16  C   LIG    1        5.684  -3.898  -8.793  0.00  0.00    +0.040 C 
ATOM     17  C   LIG    1        3.519  -4.721  -7.856  0.00  0.00    +0.040 C 
ENDBRANCH   6  15
ENDBRANCH   1  11
BRANCH   3  18
ATOM     18  C   LIG    1        0.874   3.100  -3.064  0.00  0.00    +0.230 C 
BRANCH  18  19
ATOM     19  C   LIG    1       -0.479   3.602  -3.497  0.00  0.00    -0.120 A 
ATOM     20  C   LIG    1       -1.595   2.796  -3.357  0.00  0.00    +0.080 A 
ATOM     21  C   LIG    1       -2.835   3.247  -3.761  0.00  0.00    -0.010 A 
ATOM     22  C   LIG    1       -2.975   4.521  -4.305  0.00  0.00    +0.110 A 
ATOM     23  O   LIG    1       -4.087   5.154  -4.769  0.00  0.00    -0.300 OA
ATOM     24  C   LIG    1       -3.837   6.569  -4.829  0.00  0.00    +0.240 C 
ATOM     25  C   LIG    1       -2.305   6.637  -5.037  0.00  0.00    +0.070 C 
ATOM     26  C   LIG    1       -1.848   5.323  -4.434  0.00  0.00    -0.180 A 
ATOM     27  C   LIG    1       -0.610   4.869  -4.037  0.00  0.00    +0.080 A 
ENDBRANCH  18  19
ENDBRANCH   3  18
TORSDOF 4
