REMARK  Name = ZINCtV000002AHCF.0
REMARK                            x       y       z     vdW  Elec       q    Type
REMARK                         _______ _______ _______ _____ _____    ______ ____
ROOT
ATOM      1  C   LIG    1       -2.130   3.856   0.029  0.00  0.00    +0.170 C 
ENDROOT
BRANCH   1   4
ATOM      2  C   LIG    1       -5.486   5.269   0.068  0.00  0.00    +0.110 A 
ATOM      3  N   LIG    1       -4.401   4.725  -0.404  0.00  0.00    -0.460 NA
ATOM      4  C   LIG    1       -3.432   4.486   0.451  0.00  0.00    +0.080 A 
ATOM      5  C   LIG    1       -3.672   4.843   1.717  0.00  0.00    -0.070 A 
ATOM      6  S   LIG    1       -5.290   5.537   1.798  0.00  0.00    +0.160 S 
BRANCH   2  13
ATOM      7  C   LIG    1       -7.796   6.196  -0.099  0.00  0.00    +0.160 A 
ATOM      8  C   LIG    1       -8.916   6.519  -0.848  0.00  0.00    -0.050 A 
ATOM      9  C   LIG    1       -8.941   6.255  -2.205  0.00  0.00    +0.110 A 
ATOM     10  C   LIG    1       -7.849   5.672  -2.824  0.00  0.00    -0.130 A 
ATOM     11  C   LIG    1       -6.724   5.350  -2.092  0.00  0.00    +0.150 A 
ATOM     12 BR   LIG    1       -7.898   5.316  -4.681  0.00  0.00    -0.040 Br
ATOM     13  C   LIG    1       -6.687   5.612  -0.722  0.00  0.00    -0.050 A 
BRANCH   7  15
ATOM     14  C   LIG    1       -8.940   7.048   1.803  0.00  0.00    +0.250 C 
ATOM     15  O   LIG    1       -7.773   6.451   1.236  0.00  0.00    -0.310 OA
ENDBRANCH   7  15
ENDBRANCH   2  13
ENDBRANCH   1   4
BRANCH   1  16
ATOM     16  S   LIG    1       -2.257   2.052   0.174  0.00  0.00    -0.150 S 
BRANCH  16  17
ATOM     17  C   LIG    1       -0.622   1.484  -0.368  0.00  0.00    +0.010 C 
ATOM     18  C   LIG    1        0.441   1.970   0.620  0.00  0.00    +0.080 C 
BRANCH  17  19
ATOM     19  C   LIG    1       -0.606  -0.022  -0.421  0.00  0.00    +0.530 C 
ATOM     20  N   LIG    1        0.325  -0.661  -1.159  0.00  0.00    -0.670 N 
ATOM     21  H   LIG    1        0.951  -0.151  -1.696  0.00  0.00    +0.410 HD
ATOM     22  O   LIG    1       -1.430  -0.660   0.200  0.00  0.00    -0.490 OA
BRANCH  20  23
ATOM     23  C   LIG    1        0.387  -2.059  -1.148  0.00  0.00    +0.130 A 
ATOM     24  C   LIG    1        0.457  -2.743   0.058  0.00  0.00    -0.070 A 
ATOM     25  C   LIG    1        0.514  -4.123   0.065  0.00  0.00    +0.020 A 
ATOM     26  C   LIG    1        0.512  -4.823  -1.128  0.00  0.00    +0.020 A 
ATOM     27  C   LIG    1        0.447  -4.144  -2.331  0.00  0.00    +0.020 A 
ATOM     28  C   LIG    1        0.465  -1.982   1.358  0.00  0.00    +0.090 C 
ATOM     29  C   LIG    1        0.385  -2.764  -2.345  0.00  0.00    -0.090 A 
ATOM     30  C   LIG    1        0.315  -2.025  -3.656  0.00  0.00    +0.080 C 
ENDBRANCH  20  23
ENDBRANCH  17  19
ENDBRANCH  16  17
ENDBRANCH   1  16
TORSDOF 7
