REMARK  Name = ZINCtV000002IN5u.0
REMARK                            x       y       z     vdW  Elec       q    Type
REMARK                         _______ _______ _______ _____ _____    ______ ____
ROOT
ATOM      1  C   LIG    1       -1.112   0.752   0.611  0.00  0.00    -0.140 A 
ATOM      2  C   LIG    1       -1.611   1.761  -0.145  0.00  0.00    +0.120 A 
ATOM      3  N   LIG    1       -0.904   2.915   0.100  0.00  0.00    -0.590 N 
ATOM      4  H   LIG    1       -1.071   3.772  -0.321  0.00  0.00    +0.420 HD
ATOM      5  C   LIG    1        0.088   2.666   1.024  0.00  0.00    +0.110 A 
ATOM      6  C   LIG    1        1.073   3.460   1.602  0.00  0.00    -0.010 A 
ATOM      7  C   LIG    1        1.943   2.912   2.519  0.00  0.00    +0.040 A 
ATOM      8  C   LIG    1        1.849   1.574   2.874  0.00  0.00    -0.020 A 
ATOM      9  C   LIG    1        0.889   0.775   2.320  0.00  0.00    +0.050 A 
ATOM     10  C   LIG    1       -0.001   1.308   1.383  0.00  0.00    -0.100 A 
ENDROOT
BRANCH   2  11
ATOM     11  C   LIG    1       -2.749   1.641  -1.082  0.00  0.00    -0.050 A 
ATOM     12  C   LIG    1       -2.824   0.556  -1.958  0.00  0.00    +0.080 A 
ATOM     13  C   LIG    1       -3.890   0.447  -2.826  0.00  0.00    -0.010 A 
ATOM     14  C   LIG    1       -4.880   1.417  -2.838  0.00  0.00    +0.110 A 
ATOM     15  C   LIG    1       -4.807   2.499  -1.974  0.00  0.00    -0.010 A 
ATOM     16  F   LIG    1       -5.919   1.308  -3.694  0.00  0.00    -0.140 F 
ATOM     17  C   LIG    1       -3.748   2.615  -1.099  0.00  0.00    +0.050 A 
ENDBRANCH   2  11
BRANCH   1  18
ATOM     18  C   LIG    1       -1.608  -0.670   0.650  0.00  0.00    +0.130 C 
BRANCH  18  19
ATOM     19  C   LIG    1       -2.687  -0.805   1.726  0.00  0.00    +0.060 C 
BRANCH  19  22
ATOM     20  N   LIG    1       -4.143  -2.583   2.643  0.00  0.00    -0.680 N 
ATOM     21  H   LIG    1       -4.476  -1.937   3.285  0.00  0.00    +0.410 HD
ATOM     22  C   LIG    1       -3.183  -2.227   1.765  0.00  0.00    +0.510 C 
ATOM     23  O   LIG    1       -2.720  -3.052   1.007  0.00  0.00    -0.520 OA
BRANCH  20  31
ATOM     24  C   LIG    1       -5.099  -3.621   0.172  0.00  0.00    +0.090 C 
ATOM     25  C   LIG    1       -5.135  -4.430   1.444  0.00  0.00    -0.070 A 
ATOM     26  C   LIG    1       -5.638  -5.716   1.432  0.00  0.00    +0.010 A 
ATOM     27  C   LIG    1       -5.676  -6.456   2.599  0.00  0.00    +0.000 A 
ATOM     28  C   LIG    1       -5.206  -5.914   3.781  0.00  0.00    +0.010 A 
ATOM     29  C   LIG    1       -4.697  -4.630   3.799  0.00  0.00    -0.100 A 
ATOM     30  C   LIG    1       -4.185  -4.039   5.087  0.00  0.00    +0.090 C 
ATOM     31  C   LIG    1       -4.657  -3.884   2.628  0.00  0.00    +0.140 A 
ENDBRANCH  20  31
ENDBRANCH  19  22
ENDBRANCH  18  19
ENDBRANCH   1  18
TORSDOF 5
