REMARK  Name = ZINCpe00000MJMnl.0
REMARK                            x       y       z     vdW  Elec       q    Type
REMARK                         _______ _______ _______ _____ _____    ______ ____
ROOT
ATOM      1  N   LIG    1       -3.520   4.038   2.036  0.00  0.00    -0.670 NA
ATOM      2  H   LIG    1       -4.272   4.710   2.028  0.00  0.00    +0.350 HD
ENDROOT
BRANCH   1   3
ATOM      3  C   LIG    1       -2.383   4.511   1.234  0.00  0.00    +0.200 C 
ATOM      4  C   LIG    1       -2.283   6.053   1.272  0.00  0.00    +0.030 C 
ATOM      5  C   LIG    1       -1.842   6.430  -0.126  0.00  0.00    +0.520 C 
ATOM      6  N   LIG    1       -2.036   5.400  -0.966  0.00  0.00    -0.610 N 
ATOM      7  C   LIG    1       -1.708   5.424  -2.393  0.00  0.00    +0.310 C 
ATOM      8  O   LIG    1       -1.380   7.506  -0.441  0.00  0.00    -0.520 OA
ATOM      9  C   LIG    1       -2.620   4.247  -0.270  0.00  0.00    +0.310 C 
BRANCH   9  10
ATOM     10  C   LIG    1       -1.927   2.977  -0.692  0.00  0.00    +0.080 A 
ATOM     11  C   LIG    1       -0.628   2.860  -1.055  0.00  0.00    -0.120 A 
ATOM     12  C   LIG    1       -0.390   1.519  -1.375  0.00  0.00    +0.220 A 
ATOM     13  N   LIG    1       -1.503   0.854  -1.200  0.00  0.00    -0.290 NA
ATOM     14  N   LIG    1       -2.488   1.752  -0.769  0.00  0.00    -0.350 N 
ATOM     15  C   LIG    1       -3.880   1.421  -0.458  0.00  0.00    +0.360 C 
ENDBRANCH   9  10
ENDBRANCH   1   3
BRANCH   1  16
ATOM     16  C   LIG    1       -3.103   3.730   3.410  0.00  0.00    +0.280 C 
BRANCH  16  21
ATOM     17  C   LIG    1       -6.218   3.383   5.522  0.00  0.00    +0.150 A 
ATOM     18  C   LIG    1       -6.342   1.998   5.515  0.00  0.00    -0.110 A 
ATOM     19  C   LIG    1       -5.413   1.242   4.827  0.00  0.00    +0.300 A 
ATOM     20  N   LIG    1       -4.416   1.817   4.182  0.00  0.00    -0.470 NA
ATOM     21  C   LIG    1       -4.261   3.128   4.163  0.00  0.00    +0.150 A 
ATOM     22  C   LIG    1       -5.146   3.954   4.832  0.00  0.00    +0.020 A 
BRANCH  17  24
ATOM     23  C   LIG    1       -8.173   3.487   6.869  0.00  0.00    +0.250 C 
ATOM     24  O   LIG    1       -7.112   4.159   6.187  0.00  0.00    -0.300 OA
ENDBRANCH  17  24
BRANCH  22  25
ATOM     25  O   LIG    1       -4.978   5.304   4.815  0.00  0.00    -0.320 OA
ATOM     26  C   LIG    1       -4.275   5.885   5.916  0.00  0.00    +0.230 C 
ENDBRANCH  22  25
ENDBRANCH  16  21
ENDBRANCH   1  16
TORSDOF 6
