REMARK  Name = ZINCkj000005hUKY.1
REMARK                            x       y       z     vdW  Elec       q    Type
REMARK                         _______ _______ _______ _____ _____    ______ ____
ROOT
ATOM      1  O   LIG    1       -3.059   1.805  -2.796  0.00  0.00    -0.330 OA
ENDROOT
BRANCH   1   6
ATOM      2  C   LIG    1       -5.052   1.096  -5.767  0.00  0.00    -0.080 A 
ATOM      3  C   LIG    1       -5.166   2.378  -6.308  0.00  0.00    +0.070 A 
ATOM      4  C   LIG    1       -4.576   3.450  -5.669  0.00  0.00    +0.050 A 
ATOM      5  C   LIG    1       -3.872   3.259  -4.495  0.00  0.00    -0.030 A 
ATOM      6  C   LIG    1       -3.753   1.987  -3.950  0.00  0.00    +0.100 A 
ATOM      7  C   LIG    1       -4.337   0.904  -4.584  0.00  0.00    +0.070 A 
BRANCH   2   8
ATOM      8  C   LIG    1       -5.682  -0.054  -6.448  0.00  0.00    +0.510 C 
ATOM      9  O   LIG    1       -5.582  -1.169  -5.976  0.00  0.00    -0.500 OA
BRANCH   8  11
ATOM     10  C   LIG    1       -6.959  -1.042  -8.206  0.00  0.00    +0.290 C 
ATOM     11  O   LIG    1       -6.367   0.133  -7.592  0.00  0.00    -0.350 OA
ENDBRANCH   8  11
ENDBRANCH   2   8
ENDBRANCH   1   6
BRANCH   1  12
ATOM     12  C   LIG    1       -2.478   2.966  -2.198  0.00  0.00    +0.230 C 
BRANCH  12  13
ATOM     13  C   LIG    1       -1.742   2.566  -0.917  0.00  0.00    +0.300 C 
BRANCH  13  14
ATOM     14  N   LIG    1       -0.609   1.695  -1.255  0.00  0.00    -0.390 N 
ATOM     15  C   LIG    1        0.405   2.466  -2.005  0.00  0.00    +0.250 C 
ATOM     16  C   LIG    1        1.766   1.903  -1.524  0.00  0.00    +0.080 C 
ATOM     17  C   LIG    1        1.483   1.643  -0.021  0.00  0.00    +0.090 C 
ATOM     18  C   LIG    1        0.010   1.184  -0.018  0.00  0.00    +0.180 C 
ATOM     19  H   LIG    1       -0.932   0.922  -1.817  0.00  0.00    +0.430 HD
BRANCH  18  20
ATOM     20  C   LIG    1       -0.712   1.756   1.204  0.00  0.00    +0.230 C 
BRANCH  20  21
ATOM     21  O   LIG    1       -0.527   3.172   1.246  0.00  0.00    -0.570 OA
ATOM     22  H   LIG    1       -0.959   3.602   1.997  0.00  0.00    +0.410 HD
ENDBRANCH  20  21
ENDBRANCH  18  20
ENDBRANCH  13  14
ENDBRANCH  12  13
ENDBRANCH   1  12
TORSDOF 8
