REMARK  Name = ZINCkj000005hUKY.0
REMARK                            x       y       z     vdW  Elec       q    Type
REMARK                         _______ _______ _______ _____ _____    ______ ____
ROOT
ATOM      1  O   LIG    1       -4.995   1.867   1.666  0.00  0.00    -0.320 OA
ENDROOT
BRANCH   1   6
ATOM      2  C   LIG    1       -8.225   0.923   3.075  0.00  0.00    -0.080 A 
ATOM      3  C   LIG    1       -8.888   0.494   1.923  0.00  0.00    +0.070 A 
ATOM      4  C   LIG    1       -8.243   0.529   0.703  0.00  0.00    +0.050 A 
ATOM      5  C   LIG    1       -6.944   0.994   0.616  0.00  0.00    -0.030 A 
ATOM      6  C   LIG    1       -6.275   1.417   1.757  0.00  0.00    +0.100 A 
ATOM      7  C   LIG    1       -6.911   1.386   2.986  0.00  0.00    +0.070 A 
BRANCH   2   8
ATOM      8  C   LIG    1       -8.912   0.887   4.382  0.00  0.00    +0.510 C 
ATOM      9  O   LIG    1       -8.333   1.260   5.383  0.00  0.00    -0.500 OA
BRANCH   8  11
ATOM     10  C   LIG    1      -10.791   0.432   5.782  0.00  0.00    +0.290 C 
ATOM     11  O   LIG    1      -10.180   0.439   4.465  0.00  0.00    -0.350 OA
ENDBRANCH   8  11
ENDBRANCH   2   8
ENDBRANCH   1   6
BRANCH   1  12
ATOM     12  C   LIG    1       -4.400   1.872   0.367  0.00  0.00    +0.230 C 
BRANCH  12  13
ATOM     13  C   LIG    1       -2.970   2.407   0.463  0.00  0.00    +0.290 C 
BRANCH  13  14
ATOM     14  N   LIG    1       -2.154   1.483   1.261  0.00  0.00    -0.390 N 
ATOM     15  C   LIG    1       -2.557   1.531   2.691  0.00  0.00    +0.270 C 
ATOM     16  C   LIG    1       -1.328   1.004   3.462  0.00  0.00    +0.060 C 
ATOM     17  C   LIG    1       -0.128   1.258   2.526  0.00  0.00    +0.080 C 
ATOM     18  C   LIG    1       -0.733   1.918   1.269  0.00  0.00    +0.180 C 
ATOM     19  H   LIG    1       -2.233   0.542   0.905  0.00  0.00    +0.430 HD
BRANCH  18  20
ATOM     20  C   LIG    1       -0.017   1.425   0.010  0.00  0.00    +0.230 C 
BRANCH  20  21
ATOM     21  O   LIG    1        0.002  -0.004   0.002  0.00  0.00    -0.580 OA
ATOM     22  H   LIG    1        0.442  -0.387  -0.769  0.00  0.00    +0.410 HD
ENDBRANCH  20  21
ENDBRANCH  18  20
ENDBRANCH  13  14
ENDBRANCH  12  13
ENDBRANCH   1  12
TORSDOF 8
