REMARK  Name = ZINCrD000000BWaz.0
REMARK                            x       y       z     vdW  Elec       q    Type
REMARK                         _______ _______ _______ _____ _____    ______ ____
ROOT
ATOM      1  C   LIG    1       -2.129  -3.079   0.096  0.00  0.00    +0.100 A 
ATOM      2  C   LIG    1       -3.420  -2.573   0.104  0.00  0.00    +0.150 A 
ATOM      3  C   LIG    1       -4.498  -3.434   0.199  0.00  0.00    -0.670 A 
ATOM      4  C   LIG    1       -4.293  -4.798   0.285  0.00  0.00    +0.130 A 
ATOM      5  C   LIG    1       -3.008  -5.309   0.277  0.00  0.00    +0.010 A 
ATOM      6  C   LIG    1       -1.923  -4.455   0.177  0.00  0.00    +0.140 A 
ENDROOT
BRANCH   1   9
ATOM      7  O   LIG    1       -2.110  -0.624   1.126  0.00  0.00    -0.500 OA
ATOM      8  C   LIG    1       -1.085  -0.996   0.585  0.00  0.00    +0.590 C 
ATOM      9  N   LIG    1       -1.035  -2.209  -0.000  0.00  0.00    -0.670 N 
ATOM     10  H   LIG    1       -0.241  -2.480  -0.487  0.00  0.00    +0.410 HD
BRANCH   8  11
ATOM     11  C   LIG    1        0.093  -0.126   0.568  0.00  0.00    -0.280 A 
ATOM     12  C   LIG    1        0.165   1.114   1.121  0.00  0.00    +0.140 A 
ATOM     13  C   LIG    1        1.401   1.732   0.966  0.00  0.00    -0.140 A 
ATOM     14  C   LIG    1        2.302   0.993   0.297  0.00  0.00    -0.210 A 
ATOM     15  C   LIG    1        3.621   1.747   0.174  0.00  0.00    +0.120 C 
ATOM     16  C   LIG    1        3.266   3.218   0.468  0.00  0.00    +0.050 C 
ATOM     17  C   LIG    1        2.024   3.069   1.368  0.00  0.00    +0.100 C 
ATOM     18  S   LIG    1        1.637  -0.517  -0.169  0.00  0.00    +0.220 S 
ENDBRANCH   8  11
ENDBRANCH   1   9
BRANCH   3  19
ATOM     19  S   LIG    1       -6.138  -2.790   0.211  0.00  0.00    +2.690 S 
ATOM     20  O   LIG    1       -6.039  -1.446   0.662  0.00  0.00    -0.940 OA
ATOM     21  O   LIG    1       -6.949  -3.766   0.850  0.00  0.00    -0.950 OA
BRANCH  19  22
ATOM     22  N   LIG    1       -6.648  -2.717  -1.363  0.00  0.00    -1.000 NA
ATOM     23  C   LIG    1       -6.423  -1.509  -2.168  0.00  0.00    +0.290 C 
ATOM     24  C   LIG    1       -5.702  -1.911  -3.464  0.00  0.00    +0.010 C 
ATOM     25  C   LIG    1       -6.513  -2.998  -4.175  0.00  0.00    +0.010 C 
ATOM     26  C   LIG    1       -6.612  -4.233  -3.276  0.00  0.00    +0.010 C 
ATOM     27  C   LIG    1       -7.338  -3.858  -1.980  0.00  0.00    +0.290 C 
ENDBRANCH  19  22
ENDBRANCH   3  19
BRANCH   6  28
ATOM     28  O   LIG    1       -0.659  -4.957   0.163  0.00  0.00    -0.490 OA
ATOM     29  H   LIG    1       -0.261  -5.045   1.040  0.00  0.00    +0.400 HD
ENDBRANCH   6  28
TORSDOF 5
