REMARK  Name = ZINCqH00000032RL.0
REMARK                            x       y       z     vdW  Elec       q    Type
REMARK                         _______ _______ _______ _____ _____    ______ ____
ROOT
ATOM      1  C   LIG    1       -2.639  -3.101  -3.715  0.00  0.00    -0.680 A 
ATOM      2  C   LIG    1       -3.544  -2.902  -2.688  0.00  0.00    +0.150 A 
ATOM      3  C   LIG    1       -3.195  -2.139  -1.588  0.00  0.00    +0.000 A 
ATOM      4  C   LIG    1       -1.940  -1.573  -1.507  0.00  0.00    +0.100 A 
ATOM      5  C   LIG    1       -1.021  -1.770  -2.539  0.00  0.00    -0.150 A 
ATOM      6  C   LIG    1       -1.382  -2.535  -3.649  0.00  0.00    +0.180 A 
ENDROOT
BRANCH   5   7
ATOM      7  C   LIG    1        0.326  -1.166  -2.459  0.00  0.00    +0.560 C 
ATOM      8  N   LIG    1        0.483   0.061  -1.925  0.00  0.00    -0.600 N 
ATOM      9  C   LIG    1       -0.684   0.861  -1.530  0.00  0.00    +0.250 C 
ATOM     10  C   LIG    1       -0.593   2.233  -2.206  0.00  0.00    +0.010 C 
ATOM     11  C   LIG    1        0.754   2.876  -1.866  0.00  0.00    +0.010 C 
ATOM     12  C   LIG    1        1.889   1.999  -2.399  0.00  0.00    +0.020 C 
ATOM     13  C   LIG    1        1.825   0.624  -1.725  0.00  0.00    +0.230 C 
ATOM     14  O   LIG    1        1.291  -1.776  -2.876  0.00  0.00    -0.520 OA
BRANCH  13  15
ATOM     15  C   LIG    1        2.869  -0.303  -2.352  0.00  0.00    +0.070 C 
BRANCH  15  16
ATOM     16  C   LIG    1        4.265   0.290  -2.151  0.00  0.00    -0.040 C 
ATOM     17  C   LIG    1        5.297  -0.580  -2.870  0.00  0.00    +0.010 C 
ATOM     18  C   LIG    1        4.589   0.335  -0.656  0.00  0.00    +0.000 C 
ENDBRANCH  15  16
ENDBRANCH  13  15
ENDBRANCH   5   7
BRANCH   1  19
ATOM     19  S   LIG    1       -3.093  -4.072  -5.113  0.00  0.00    +2.690 S 
ATOM     20  O   LIG    1       -4.141  -4.930  -4.681  0.00  0.00    -0.950 OA
ATOM     21  O   LIG    1       -1.882  -4.551  -5.680  0.00  0.00    -0.950 OA
BRANCH  19  22
ATOM     22  N   LIG    1       -3.759  -3.046  -6.228  0.00  0.00    -0.990 NA
BRANCH  22  24
ATOM     23  C   LIG    1       -2.919  -3.222  -8.519  0.00  0.00    +0.010 C 
ATOM     24  C   LIG    1       -2.906  -2.399  -7.229  0.00  0.00    +0.280 C 
ENDBRANCH  22  24
BRANCH  22  25
ATOM     25  C   LIG    1       -5.200  -2.784  -6.215  0.00  0.00    +0.290 C 
ATOM     26  C   LIG    1       -5.480  -1.510  -5.415  0.00  0.00    +0.000 C 
ENDBRANCH  22  25
ENDBRANCH  19  22
ENDBRANCH   1  19
TORSDOF 7
