REMARK  Name = ZINCqH0000066ljT.0
REMARK                            x       y       z     vdW  Elec       q    Type
REMARK                         _______ _______ _______ _____ _____    ______ ____
ROOT
ATOM      1  C   LIG    1        6.355  -0.282   9.100  0.00  0.00    +0.110 C 
ATOM      2  C   LIG    1        5.033  -1.034   8.932  0.00  0.00    +0.030 C 
ATOM      3  C   LIG    1        3.989  -0.094   8.321  0.00  0.00    +0.310 C 
ATOM      4  N   LIG    1        4.529   0.465   7.074  0.00  0.00    -0.620 N 
ATOM      5  C   LIG    1        5.841   1.125   7.105  0.00  0.00    +0.270 C 
ATOM      6  C   LIG    1        3.836   0.368   5.922  0.00  0.00    +0.710 C 
ATOM      7  N   LIG    1        4.387   0.791   4.766  0.00  0.00    -0.690 N 
ATOM      8  H   LIG    1        5.308   1.094   4.751  0.00  0.00    +0.410 HD
ATOM      9  O   LIG    1        2.714  -0.101   5.924  0.00  0.00    -0.560 OA
ATOM     10  C   LIG    1        6.861   0.176   7.731  0.00  0.00    +0.020 C 
ENDROOT
BRANCH   7  11
ATOM     11  C   LIG    1        3.630   0.793   3.590  0.00  0.00    +0.190 A 
ATOM     12  C   LIG    1        4.242   0.545   2.368  0.00  0.00    -0.020 A 
ATOM     13  C   LIG    1        3.492   0.542   1.208  0.00  0.00    +0.070 A 
ATOM     14  C   LIG    1        2.135   0.796   1.260  0.00  0.00    -0.100 A 
ATOM     15  C   LIG    1        1.520   1.044   2.476  0.00  0.00    +0.130 A 
ATOM     16  F   LIG    1        0.192   1.287   2.524  0.00  0.00    -0.130 F 
ATOM     17  C   LIG    1        2.265   1.042   3.641  0.00  0.00    +0.000 A 
BRANCH  14  18
ATOM     18  C   LIG    1        1.321   0.797  -0.009  0.00  0.00    +0.000 C 
ATOM     19  C   LIG    1        1.293  -0.492  -0.832  0.00  0.00    +0.030 C 
ATOM     20  C   LIG    1        2.080   0.719  -1.335  0.00  0.00    +0.030 C 
ENDBRANCH  14  18
ENDBRANCH   7  11
BRANCH   1  24
ATOM     21  C   LIG    1        8.919  -2.678  10.044  0.00  0.00    +0.180 A 
ATOM     22  N   LIG    1        8.574  -2.157  11.189  0.00  0.00    -0.290 NA
ATOM     23  N   LIG    1        7.660  -1.271  11.004  0.00  0.00    -0.290 NA
ATOM     24  C   LIG    1        7.374  -1.194   9.733  0.00  0.00    +0.180 A 
ATOM     25  N   LIG    1        8.168  -2.083   9.087  0.00  0.00    -0.580 N 
ATOM     26  H   LIG    1        8.193  -2.256   8.133  0.00  0.00    +0.430 HD
BRANCH  21  28
ATOM     27  C   LIG    1       11.290  -3.293  10.435  0.00  0.00    +0.040 C 
ATOM     28  C   LIG    1        9.961  -3.745   9.826  0.00  0.00    +0.140 C 
ENDBRANCH  21  28
ENDBRANCH   1  24
TORSDOF 4
