REMARK  Name = ZINCpk00000eaVir.2
REMARK                            x       y       z     vdW  Elec       q    Type
REMARK                         _______ _______ _______ _____ _____    ______ ____
ROOT
ATOM      1  C   LIG    1        4.113  -1.081  -1.670  0.00  0.00    +0.260 C 
ENDROOT
BRANCH   1   2
ATOM      2  C   LIG    1        4.346   0.383  -1.292  0.00  0.00    +0.010 C 
ATOM      3  C   LIG    1        5.844   0.695  -1.358  0.00  0.00    +0.010 C 
ATOM      4  C   LIG    1        6.075   2.144  -0.920  0.00  0.00    +0.030 C 
ATOM      5  C   LIG    1        5.519   2.340   0.492  0.00  0.00    +0.170 C 
ATOM      6  N   LIG    1        4.084   2.030   0.502  0.00  0.00    -0.530 NA
ATOM      7  C   LIG    1        3.487   2.340   1.808  0.00  0.00    +0.190 C 
ATOM      8  C   LIG    1        3.841   0.630   0.131  0.00  0.00    +0.210 C 
BRANCH   8   9
ATOM      9  C   LIG    1        2.363   0.343   0.195  0.00  0.00    +0.080 A 
ATOM     10  C   LIG    1        1.368   1.198  -0.137  0.00  0.00    -0.090 A 
ATOM     11  C   LIG    1        0.150   0.542   0.066  0.00  0.00    +0.220 A 
ATOM     12  N   LIG    1        0.404  -0.664   0.503  0.00  0.00    -0.290 NA
ATOM     13  N   LIG    1        1.794  -0.814   0.594  0.00  0.00    -0.370 N 
ATOM     14  C   LIG    1        2.504  -2.015   1.042  0.00  0.00    +0.340 C 
ENDBRANCH   8   9
ENDBRANCH   1   2
BRANCH   1  16
ATOM     15  C   LIG    1        4.364  -2.511  -3.627  0.00  0.00    +0.500 C 
ATOM     16  N   LIG    1        4.487  -1.289  -3.071  0.00  0.00    -0.720 N 
ATOM     17  H   LIG    1        4.822  -0.548  -3.599  0.00  0.00    +0.400 HD
ATOM     18  O   LIG    1        3.945  -3.438  -2.968  0.00  0.00    -0.520 OA
BRANCH  15  19
ATOM     19  C   LIG    1        4.749  -2.725  -5.069  0.00  0.00    +0.370 C 
BRANCH  19  26
ATOM     20  C   LIG    1        6.836  -5.002  -4.812  0.00  0.00    +0.150 C 
ATOM     21  C   LIG    1        5.424  -5.127  -5.324  0.00  0.00    +0.090 A 
ATOM     22  C   LIG    1        4.830  -6.264  -5.756  0.00  0.00    -0.120 A 
ATOM     23  C   LIG    1        3.526  -5.945  -6.149  0.00  0.00    +0.080 A 
ATOM     24  N   LIG    1        3.342  -4.664  -5.954  0.00  0.00    -0.290 NA
ATOM     25  C   LIG    1        2.508  -6.910  -6.701  0.00  0.00    +0.160 C 
ATOM     26  N   LIG    1        4.525  -4.127  -5.431  0.00  0.00    -0.360 N 
ENDBRANCH  19  26
ENDBRANCH  15  19
ENDBRANCH   1  16
TORSDOF 5
