REMARK  Name = ZINCvU0000000AVj.1
REMARK                            x       y       z     vdW  Elec       q    Type
REMARK                         _______ _______ _______ _____ _____    ______ ____
ROOT
ATOM      1  C   LIG    1       -5.543  -0.462  -1.201  0.00  0.00    +0.100 C 
ATOM      2  C   LIG    1       -5.819  -1.340  -0.218  0.00  0.00    -0.060 C 
ENDROOT
BRANCH   2   3
ATOM      3  C   LIG    1       -6.566  -0.904   0.965  0.00  0.00    +0.160 A 
ATOM      4  N   LIG    1       -7.732  -1.350   1.310  0.00  0.00    -0.460 NA
ATOM      5  C   LIG    1       -8.288  -0.857   2.423  0.00  0.00    +0.080 A 
ATOM      6  C   LIG    1       -9.535  -1.180   3.005  0.00  0.00    +0.070 A 
ATOM      7  C   LIG    1       -9.944  -0.565   4.148  0.00  0.00    +0.030 A 
ATOM      8  C   LIG    1       -9.148   0.389   4.766  0.00  0.00    +0.040 A 
ATOM      9  C   LIG    1       -7.927   0.724   4.223  0.00  0.00    +0.060 A 
ATOM     10  C   LIG    1       -7.491   0.106   3.053  0.00  0.00    -0.180 A 
ATOM     11  S   LIG    1       -6.012   0.304   2.116  0.00  0.00    +0.110 S 
ENDBRANCH   2   3
BRANCH   1  15
ATOM     12  C   LIG    1       -7.246   3.427  -1.109  0.00  0.00    +0.120 A 
ATOM     13  C   LIG    1       -7.956   2.347  -0.605  0.00  0.00    -0.030 A 
ATOM     14  C   LIG    1       -7.407   1.083  -0.632  0.00  0.00    +0.030 A 
ATOM     15  C   LIG    1       -6.131   0.887  -1.170  0.00  0.00    -0.080 A 
ATOM     16  C   LIG    1       -5.418   1.975  -1.683  0.00  0.00    -0.010 A 
ATOM     17  C   LIG    1       -5.974   3.239  -1.647  0.00  0.00    +0.100 A 
BRANCH  12  19
ATOM     18  C   LIG    1       -9.100   4.792  -0.514  0.00  0.00    +0.240 C 
ATOM     19  O   LIG    1       -7.793   4.671  -1.079  0.00  0.00    -0.300 OA
ENDBRANCH  12  19
BRANCH  17  20
ATOM     20  O   LIG    1       -5.281   4.301  -2.141  0.00  0.00    -0.310 OA
ATOM     21  C   LIG    1       -3.983   4.036  -2.677  0.00  0.00    +0.240 C 
ENDBRANCH  17  20
ENDBRANCH   1  15
BRANCH   2  22
ATOM     22  C   LIG    1       -5.359  -2.771  -0.334  0.00  0.00    +0.160 C 
BRANCH  22  23
ATOM     23  C   LIG    1       -4.042  -2.934   0.380  0.00  0.00    +0.500 C 
ATOM     24  N   LIG    1       -3.436  -4.138   0.408  0.00  0.00    -0.630 N 
ATOM     25  H   LIG    1       -3.848  -4.899  -0.031  0.00  0.00    +0.430 HD
ATOM     26  O   LIG    1       -3.527  -1.983   0.929  0.00  0.00    -0.450 OA
BRANCH  24  27
ATOM     27  C   LIG    1       -2.221  -4.289   1.067  0.00  0.00    +0.230 A 
ATOM     28  N   LIG    1       -1.575  -3.350   1.690  0.00  0.00    -0.270 NA
ATOM     29  N   LIG    1       -0.480  -3.656   2.239  0.00  0.00    -0.230 NA
ATOM     30  C   LIG    1       -0.101  -4.890   2.128  0.00  0.00    +0.010 A 
ATOM     31  C   LIG    1        1.161  -5.486   2.696  0.00  0.00    +0.210 C 
ATOM     32  S   LIG    1       -1.331  -5.747   1.199  0.00  0.00    +0.110 S 
ENDBRANCH  24  27
ENDBRANCH  22  23
ENDBRANCH   2  22
TORSDOF 7
