REMARK  Name = ZINCbw0000000Hbl.0
REMARK                            x       y       z     vdW  Elec       q    Type
REMARK                         _______ _______ _______ _____ _____    ______ ____
ROOT
ATOM      1  C   LIG    1        2.157   1.548   1.239  0.00  0.00    -0.040 C 
ATOM      2  C   LIG    1        1.300   1.859   0.010  0.00  0.00    +0.050 C 
ATOM      3  C   LIG    1       -0.051   1.153   0.138  0.00  0.00    -0.030 C 
ATOM      4  C   LIG    1        0.171  -0.357   0.236  0.00  0.00    +0.010 C 
ATOM      5  C   LIG    1        1.027  -0.668   1.465  0.00  0.00    -0.010 C 
ATOM      6  C   LIG    1        1.248  -2.179   1.564  0.00  0.00    +0.000 C 
ATOM      7  C   LIG    1       -0.907   1.464  -1.091  0.00  0.00    +0.020 C 
ATOM      8  C   LIG    1        2.378   0.038   1.337  0.00  0.00    +0.030 C 
ENDROOT
BRANCH   1  10
ATOM      9  C   LIG    1        1.394   3.509   2.784  0.00  0.00    +0.050 C 
ATOM     10  C   LIG    1        1.451   2.034   2.479  0.00  0.00    +0.360 C 
ATOM     11  O   LIG    1        0.932   1.242   3.228  0.00  0.00    -0.450 OA
ENDBRANCH   1  10
TORSDOF 1
