REMARK  Name = ZINCvU0000000A3Q.0
REMARK                            x       y       z     vdW  Elec       q    Type
REMARK                         _______ _______ _______ _____ _____    ______ ____
ROOT
ATOM      1  O   LIG    1        1.034   0.608   2.927  0.00  0.00    -0.320 OA
ENDROOT
BRANCH   1   2
ATOM      2  C   LIG    1       -0.171   0.311   2.404  0.00  0.00    +0.530 C 
ATOM      3  O   LIG    1       -1.179   0.490   3.058  0.00  0.00    -0.480 OA
BRANCH   2  12
ATOM      4  C   LIG    1       -0.492   0.058  -1.343  0.00  0.00    +0.170 A 
ATOM      5  N   LIG    1       -0.449  -1.235  -1.546  0.00  0.00    -0.450 NA
ATOM      6  C   LIG    1       -0.325  -2.103  -0.538  0.00  0.00    +0.130 A 
ATOM      7  C   LIG    1       -0.288  -3.489  -0.776  0.00  0.00    +0.060 A 
ATOM      8  C   LIG    1       -0.161  -4.350   0.269  0.00  0.00    +0.040 A 
ATOM      9  C   LIG    1       -0.067  -3.883   1.578  0.00  0.00    +0.030 A 
ATOM     10  C   LIG    1       -0.099  -2.547   1.847  0.00  0.00    +0.010 A 
ATOM     11  C   LIG    1       -0.229  -1.632   0.795  0.00  0.00    -0.070 A 
ATOM     12  C   LIG    1       -0.267  -0.234   1.033  0.00  0.00    -0.060 A 
ATOM     13  C   LIG    1       -0.399   0.606  -0.066  0.00  0.00    -0.080 A 
ATOM     14  C   LIG    1       -0.446   2.100   0.124  0.00  0.00    +0.120 C 
BRANCH   4  16
ATOM     15  C   LIG    1        0.745   1.353  -3.058  0.00  0.00    +0.040 C 
ATOM     16  C   LIG    1       -0.640   0.980  -2.526  0.00  0.00    +0.100 C 
ENDBRANCH   4  16
ENDBRANCH   2  12
ENDBRANCH   1   2
BRANCH   1  17
ATOM     17  C   LIG    1        1.052   1.139   4.279  0.00  0.00    +0.190 C 
ATOM     18  C   LIG    1        1.161  -0.014   5.278  0.00  0.00    +0.080 C 
BRANCH  17  19
ATOM     19  C   LIG    1        2.235   2.058   4.441  0.00  0.00    +0.520 C 
ATOM     20  N   LIG    1        2.456   2.671   5.621  0.00  0.00    -0.670 N 
ATOM     21  H   LIG    1        1.813   2.581   6.342  0.00  0.00    +0.420 HD
ATOM     22  O   LIG    1        2.989   2.248   3.509  0.00  0.00    -0.490 OA
BRANCH  20  23
ATOM     23  C   LIG    1        3.613   3.436   5.807  0.00  0.00    +0.150 A 
ATOM     24  C   LIG    1        4.797   3.070   5.181  0.00  0.00    +0.050 A 
ATOM     25  C   LIG    1        5.936   3.830   5.361  0.00  0.00    +0.040 A 
ATOM     26  C   LIG    1        5.900   4.948   6.174  0.00  0.00    +0.060 A 
ATOM     27  C   LIG    1        4.724   5.312   6.803  0.00  0.00    -0.160 A 
ATOM     28  C   LIG    1        3.581   4.559   6.622  0.00  0.00    +0.040 A 
BRANCH  27  29
ATOM     29  C   LIG    1        4.690   6.532   7.689  0.00  0.00    +0.510 C 
ATOM     30  F   LIG    1        3.410   7.095   7.657  0.00  0.00    -0.180 F 
ATOM     31  F   LIG    1        5.623   7.467   7.229  0.00  0.00    -0.170 F 
ATOM     32  F   LIG    1        5.005   6.164   9.001  0.00  0.00    -0.170 F 
ENDBRANCH  27  29
ENDBRANCH  20  23
ENDBRANCH  17  19
ENDBRANCH   1  17
TORSDOF 7
