REMARK  Name = ZINCvU00000004NV.0
REMARK                            x       y       z     vdW  Elec       q    Type
REMARK                         _______ _______ _______ _____ _____    ______ ____
ROOT
ATOM      1  N   LIG    1        0.131   2.677   4.748  0.00  0.00    -0.670 N 
ATOM      2  H   LIG    1        1.056   2.396   4.826  0.00  0.00    +0.410 HD
ATOM      3  C   LIG    1       -0.520   2.536   3.576  0.00  0.00    +0.510 C 
ATOM      4  O   LIG    1       -1.699   2.809   3.501  0.00  0.00    -0.500 OA
ENDROOT
BRANCH   1   8
ATOM      5  C   LIG    1       -1.833   4.323   8.039  0.00  0.00    +0.100 A 
ATOM      6  C   LIG    1       -2.530   3.523   7.143  0.00  0.00    +0.010 A 
ATOM      7  C   LIG    1       -1.879   2.978   6.054  0.00  0.00    +0.050 A 
ATOM      8  C   LIG    1       -0.529   3.230   5.854  0.00  0.00    +0.120 A 
ATOM      9  C   LIG    1        0.170   4.025   6.753  0.00  0.00    +0.000 A 
ATOM     10  C   LIG    1       -0.481   4.575   7.839  0.00  0.00    -0.020 A 
BRANCH   5  15
ATOM     11  C   LIG    1       -4.268   7.394  12.104  0.00  0.00    +0.030 C 
ATOM     12  C   LIG    1       -3.516   6.975  10.839  0.00  0.00    -0.030 C 
ATOM     13  C   LIG    1       -2.286   6.149  11.225  0.00  0.00    +0.030 C 
ATOM     14  C   LIG    1       -1.572   5.682   9.955  0.00  0.00    +0.170 C 
ATOM     15  N   LIG    1       -2.491   4.875   9.143  0.00  0.00    -0.490 N 
ATOM     16  C   LIG    1       -3.657   5.662   8.721  0.00  0.00    +0.180 C 
ATOM     17  C   LIG    1       -4.434   6.128   9.954  0.00  0.00    +0.030 C 
ENDBRANCH   5  15
ENDBRANCH   1   8
BRANCH   3  18
ATOM     18  C   LIG    1        0.218   2.039   2.360  0.00  0.00    +0.220 C 
BRANCH  18  19
ATOM     19  N   LIG    1       -0.706   1.974   1.220  0.00  0.00    -0.670 NA
ATOM     20  H   LIG    1       -1.141   2.869   1.055  0.00  0.00    +0.360 HD
BRANCH  19  21
ATOM     21  C   LIG    1       -0.020   1.492   0.013  0.00  0.00    +0.290 C 
BRANCH  21  22
ATOM     22  C   LIG    1       -0.744   1.994  -1.210  0.00  0.00    -0.110 A 
ATOM     23  C   LIG    1       -2.126   2.013  -1.235  0.00  0.00    +0.070 A 
ATOM     24  C   LIG    1       -2.791   2.478  -2.354  0.00  0.00    -0.010 A 
ATOM     25  C   LIG    1       -2.072   2.914  -3.454  0.00  0.00    +0.100 A 
ATOM     26  C   LIG    1       -0.688   2.888  -3.430  0.00  0.00    -0.010 A 
ATOM     27  F   LIG    1       -2.721   3.363  -4.551  0.00  0.00    -0.140 F 
ATOM     28  C   LIG    1       -0.025   2.428  -2.308  0.00  0.00    +0.050 A 
ENDBRANCH  21  22
BRANCH  21  29
ATOM     29  C   LIG    1       -0.011  -0.015   0.008  0.00  0.00    -0.170 A 
ATOM     30  C   LIG    1        1.014  -0.776  -0.380  0.00  0.00    +0.000 A 
ATOM     31  C   LIG    1        0.793  -2.140  -0.294  0.00  0.00    +0.000 A 
ATOM     32  C   LIG    1       -0.414  -2.486   0.156  0.00  0.00    -0.070 A 
ATOM     33  S   LIG    1       -1.350  -1.039   0.507  0.00  0.00    +0.150 S 
ENDBRANCH  21  29
ENDBRANCH  19  21
ENDBRANCH  18  19
ENDBRANCH   3  18
TORSDOF 7
