REMARK  Name = ZINCvU00000004YB.0
REMARK                            x       y       z     vdW  Elec       q    Type
REMARK                         _______ _______ _______ _____ _____    ______ ____
ROOT
ATOM      1  C   LIG    1       -3.850   0.192  -1.765  0.00  0.00    +0.090 C 
ATOM      2  N   LIG    1       -4.356   1.291  -1.306  0.00  0.00    -0.200 NA
ATOM      3  N   LIG    1       -3.584   1.887  -0.326  0.00  0.00    -0.560 N 
ATOM      4  C   LIG    1       -2.502   0.956   0.066  0.00  0.00    +0.260 C 
ATOM      5  C   LIG    1       -1.220   1.747   0.017  0.00  0.00    -0.170 A 
ATOM      6  C   LIG    1       -0.013   1.076   0.008  0.00  0.00    +0.050 A 
ATOM      7  C   LIG    1        1.177   1.780   0.000  0.00  0.00    -0.020 A 
ATOM      8  C   LIG    1        1.155   3.162   0.008  0.00  0.00    +0.050 A 
ATOM      9  C   LIG    1       -0.048   3.835   0.013  0.00  0.00    -0.020 A 
ATOM     10  C   LIG    1       -1.253   3.134   0.011  0.00  0.00    +0.150 A 
ATOM     11  O   LIG    1       -2.398   3.861  -0.030  0.00  0.00    -0.330 OA
ATOM     12  C   LIG    1       -3.656   3.239   0.242  0.00  0.00    +0.530 C 
ATOM     13  C   LIG    1       -2.547  -0.128  -1.020  0.00  0.00    +0.090 C 
ENDROOT
BRANCH   1  17
ATOM     14  C   LIG    1       -5.550  -2.193  -4.839  0.00  0.00    +0.140 A 
ATOM     15  C   LIG    1       -6.189  -1.029  -4.432  0.00  0.00    -0.010 A 
ATOM     16  C   LIG    1       -5.641  -0.252  -3.434  0.00  0.00    +0.090 A 
ATOM     17  C   LIG    1       -4.440  -0.636  -2.833  0.00  0.00    -0.060 A 
ATOM     18  C   LIG    1       -3.797  -1.804  -3.249  0.00  0.00    +0.080 A 
ATOM     19  C   LIG    1       -4.356  -2.579  -4.244  0.00  0.00    -0.080 A 
BRANCH  14  21
ATOM     20  C   LIG    1       -5.385  -4.141  -6.192  0.00  0.00    +0.250 C 
ATOM     21  O   LIG    1       -6.094  -2.957  -5.822  0.00  0.00    -0.320 OA
ENDBRANCH  14  21
ENDBRANCH   1  17
BRANCH  12  22
ATOM     22  C   LIG    1       -4.776   4.013  -0.405  0.00  0.00    -0.130 A 
ATOM     23  C   LIG    1       -5.133   3.746  -1.714  0.00  0.00    +0.120 A 
ATOM     24  C   LIG    1       -6.163   4.450  -2.308  0.00  0.00    -0.060 A 
ATOM     25  C   LIG    1       -6.831   5.434  -1.593  0.00  0.00    +0.120 A 
ATOM     26  C   LIG    1       -6.467   5.704  -0.282  0.00  0.00    +0.000 A 
ATOM     27  C   LIG    1       -5.441   4.993   0.309  0.00  0.00    +0.090 A 
BRANCH  25  28
ATOM     28  O   LIG    1       -7.840   6.132  -2.178  0.00  0.00    -0.320 OA
BRANCH  28  29
ATOM     29  C   LIG    1       -8.160   5.800  -3.530  0.00  0.00    +0.590 C 
ATOM     30  F   LIG    1       -8.542   4.456  -3.603  0.00  0.00    -0.200 F 
ATOM     31  F   LIG    1       -7.039   6.011  -4.340  0.00  0.00    -0.200 F 
ENDBRANCH  28  29
ENDBRANCH  25  28
ENDBRANCH  12  22
TORSDOF 5
