REMARK  Name = ZINCrD000003Lkzo.0
REMARK                            x       y       z     vdW  Elec       q    Type
REMARK                         _______ _______ _______ _____ _____    ______ ____
ROOT
ATOM      1  C   LIG    1       -4.940   1.312   0.033  0.00  0.00    +0.260 C 
ATOM      2  C   LIG    1       -6.114   2.287  -0.082  0.00  0.00    +0.030 C 
ENDROOT
BRANCH   1   3
ATOM      3  N   LIG    1       -5.055   0.554   1.281  0.00  0.00    -0.690 N 
ATOM      4  H   LIG    1       -4.584   0.853   2.075  0.00  0.00    +0.420 HD
BRANCH   3  10
ATOM      5  C   LIG    1       -6.765  -3.118   3.840  0.00  0.00    +0.160 C 
ATOM      6  C   LIG    1       -6.665  -2.358   2.543  0.00  0.00    +0.230 A 
ATOM      7  C   LIG    1       -7.344  -2.798   1.418  0.00  0.00    -0.090 A 
ATOM      8  C   LIG    1       -7.225  -2.069   0.244  0.00  0.00    +0.140 A 
ATOM      9  N   LIG    1       -6.476  -0.979   0.235  0.00  0.00    -0.540 NA
ATOM     10  C   LIG    1       -5.835  -0.588   1.327  0.00  0.00    +0.580 A 
ATOM     11  N   LIG    1       -5.928  -1.262   2.464  0.00  0.00    -0.550 NA
BRANCH   8  12
ATOM     12  C   LIG    1       -7.945  -2.510  -1.004  0.00  0.00    +0.520 C 
ATOM     13  F   LIG    1       -8.079  -3.902  -0.997  0.00  0.00    -0.170 F 
ATOM     14  F   LIG    1       -7.211  -2.118  -2.129  0.00  0.00    -0.160 F 
ATOM     15  F   LIG    1       -9.212  -1.919  -1.045  0.00  0.00    -0.170 F 
ENDBRANCH   8  12
ENDBRANCH   3  10
ENDBRANCH   1   3
BRANCH   1  16
ATOM     16  C   LIG    1       -3.626   2.095   0.031  0.00  0.00    +0.030 C 
BRANCH  16  17
ATOM     17  C   LIG    1       -2.449   1.117   0.020  0.00  0.00    +0.260 C 
BRANCH  17  18
ATOM     18  N   LIG    1       -1.191   1.867   0.018  0.00  0.00    -0.740 N 
ATOM     19  H   LIG    1       -1.204   2.837   0.023  0.00  0.00    +0.400 HD
ATOM     20  C   LIG    1       -0.014   1.209   0.009  0.00  0.00    +0.510 C 
ATOM     21  O   LIG    1        0.002  -0.004   0.002  0.00  0.00    -0.520 OA
BRANCH  20  22
ATOM     22  C   LIG    1        1.280   1.980   0.001  0.00  0.00    +0.070 C 
BRANCH  22  23
ATOM     23  C   LIG    1        2.457   1.002  -0.016  0.00  0.00    +0.180 C 
ATOM     24  C   LIG    1        3.798   1.774  -0.080  0.00  0.00    +0.030 C 
ATOM     25  C   LIG    1        4.767   0.736   0.549  0.00  0.00    -0.100 C 
ATOM     26  C   LIG    1        3.870   0.045   1.599  0.00  0.00    +0.200 C 
ATOM     27  C   LIG    1        5.250  -0.268  -0.500  0.00  0.00    +0.040 C 
ATOM     28  C   LIG    1        5.952   1.433   1.219  0.00  0.00    +0.040 C 
ATOM     29  O   LIG    1        2.507   0.262   1.215  0.00  0.00    -0.370 OA
ENDBRANCH  22  23
ENDBRANCH  20  22
ENDBRANCH  17  18
ENDBRANCH  16  17
ENDBRANCH   1  16
TORSDOF 8
