REMARK  Name = ZINCvU0000000DMF.0
REMARK                            x       y       z     vdW  Elec       q    Type
REMARK                         _______ _______ _______ _____ _____    ______ ____
ROOT
ATOM      1  C   LIG    1        1.333   3.037  -0.189  0.00  0.00    -0.130 A 
ATOM      2  C   LIG    1        1.320   1.640  -0.143  0.00  0.00    +0.110 A 
ATOM      3  C   LIG    1        0.122   0.966  -0.094  0.00  0.00    +0.040 A 
ATOM      4  C   LIG    1       -1.077   1.673  -0.095  0.00  0.00    +0.150 A 
ATOM      5  C   LIG    1       -1.068   3.065  -0.135  0.00  0.00    +0.020 A 
ATOM      6  C   LIG    1        0.128   3.745  -0.184  0.00  0.00    +0.050 A 
ENDROOT
BRANCH   1   8
ATOM      7  O   LIG    1        3.664   3.146  -0.246  0.00  0.00    -0.510 OA
ATOM      8  C   LIG    1        2.616   3.763  -0.242  0.00  0.00    +0.560 C 
ATOM      9  N   LIG    1        2.627   5.110  -0.286  0.00  0.00    -0.650 N 
ATOM     10  H   LIG    1        1.792   5.600  -0.343  0.00  0.00    +0.420 HD
BRANCH   9  11
ATOM     11  C   LIG    1        3.840   5.799  -0.248  0.00  0.00    +0.160 A 
ATOM     12  C   LIG    1        4.962   5.264  -0.843  0.00  0.00    +0.040 A 
ATOM     13  C   LIG    1        6.176   5.944  -0.817  0.00  0.00    +0.040 A 
ATOM     14  C   LIG    1        6.291   7.150  -0.195  0.00  0.00    +0.020 A 
ATOM     15  C   LIG    1        5.172   7.726   0.428  0.00  0.00    -0.090 A 
ATOM     16  C   LIG    1        5.258   8.971   1.080  0.00  0.00    +0.090 A 
ATOM     17  C   LIG    1        4.130   9.472   1.665  0.00  0.00    -0.030 A 
ATOM     18  C   LIG    1        2.939   8.752   1.605  0.00  0.00    +0.290 A 
ATOM     19  N   LIG    1        2.863   7.593   0.997  0.00  0.00    -0.480 NA
ATOM     20  C   LIG    1        3.929   7.048   0.405  0.00  0.00    +0.110 A 
ENDBRANCH   9  11
ENDBRANCH   1   8
BRANCH   4  21
ATOM     21  N   LIG    1       -2.287   0.989  -0.051  0.00  0.00    -1.060 N 
ATOM     22  H   LIG    1       -2.832   0.915  -0.851  0.00  0.00    +0.430 HD
BRANCH  21  23
ATOM     23  S   LIG    1       -2.797   0.299   1.365  0.00  0.00    +2.690 S 
ATOM     24  O   LIG    1       -1.707  -0.470   1.853  0.00  0.00    -0.930 OA
ATOM     25  O   LIG    1       -4.082  -0.250   1.104  0.00  0.00    -0.940 OA
BRANCH  23  26
ATOM     26  C   LIG    1       -3.041   1.605   2.523  0.00  0.00    -0.680 A 
ATOM     27  C   LIG    1       -1.976   2.075   3.268  0.00  0.00    +0.180 A 
ATOM     28  C   LIG    1       -2.165   3.103   4.173  0.00  0.00    +0.000 A 
ATOM     29  C   LIG    1       -3.423   3.655   4.341  0.00  0.00    +0.170 A 
ATOM     30  C   LIG    1       -4.491   3.180   3.597  0.00  0.00    -0.100 A 
ATOM     31 CL   LIG    1       -6.070   3.872   3.805  0.00  0.00    -0.030 Cl
ATOM     32  F   LIG    1       -3.609   4.656   5.229  0.00  0.00    -0.110 F 
ATOM     33  C   LIG    1       -4.299   2.156   2.688  0.00  0.00    +0.180 A 
ENDBRANCH  23  26
ENDBRANCH  21  23
ENDBRANCH   4  21
TORSDOF 5
