REMARK  Name = ZINCb70000002hos.0
REMARK                            x       y       z     vdW  Elec       q    Type
REMARK                         _______ _______ _______ _____ _____    ______ ____
ROOT
ATOM      1  C   LIG    1       -2.990   2.339   1.701  0.00  0.00    +0.180 C 
ATOM      2  C   LIG    1       -2.781   1.982   3.175  0.00  0.00    +0.260 C 
ATOM      3  N   LIG    1       -3.562   2.901   4.015  0.00  0.00    -0.510 N 
ATOM      4  C   LIG    1       -3.117   4.281   3.775  0.00  0.00    +0.250 C 
ATOM      5  C   LIG    1       -3.326   4.633   2.300  0.00  0.00    +0.250 C 
ATOM      6  H   LIG    1       -3.426   2.667   4.987  0.00  0.00    +0.440 HD
ATOM      7  H   LIG    1       -4.541   2.818   3.783  0.00  0.00    +0.430 HD
ATOM      8  O   LIG    1       -2.608   3.701   1.487  0.00  0.00    -0.340 OA
ENDROOT
BRANCH   1  12
ATOM      9  C   LIG    1       -0.804   1.620  -1.206  0.00  0.00    +0.000 C 
ATOM     10  C   LIG    1       -0.013   1.086   0.008  0.00  0.00    +0.220 C 
ATOM     11  O   LIG    1       -0.731   1.573   1.163  0.00  0.00    -0.370 OA
ATOM     12  C   LIG    1       -2.131   1.423   0.827  0.00  0.00    +0.180 C 
ATOM     13  C   LIG    1       -2.230   1.847  -0.655  0.00  0.00    +0.020 C 
ENDBRANCH   1  12
TORSDOF 1
