REMARK  Name = ZINCpk00000KfKLl.2
REMARK                            x       y       z     vdW  Elec       q    Type
REMARK                         _______ _______ _______ _____ _____    ______ ____
ROOT
ATOM      1  C   LIG    1       -0.155  -2.293   0.237  0.00  0.00    +0.290 C 
ATOM      2  C   LIG    1       -0.680  -0.855   0.232  0.00  0.00    +0.200 C 
ATOM      3  N   LIG    1        0.434   0.068  -0.033  0.00  0.00    -0.510 NA
ATOM      4  C   LIG    1        1.071  -0.241  -1.321  0.00  0.00    +0.160 C 
ATOM      5  C   LIG    1        1.579  -1.685  -1.300  0.00  0.00    +0.250 C 
ATOM      6  O   LIG    1        0.488  -2.564  -1.011  0.00  0.00    -0.390 OA
ENDROOT
BRANCH   1  11
ATOM      7  C   LIG    1       -3.049  -4.213   1.265  0.00  0.00    +0.230 A 
ATOM      8  N   LIG    1       -2.755  -4.884   0.182  0.00  0.00    -0.310 NA
ATOM      9  N   LIG    1       -1.626  -4.270  -0.383  0.00  0.00    -0.460 N 
ATOM     10  H   LIG    1       -1.167  -4.533  -1.196  0.00  0.00    +0.450 HD
ATOM     11  C   LIG    1       -1.305  -3.248   0.429  0.00  0.00    +0.290 A 
ATOM     12  N   LIG    1       -2.169  -3.223   1.411  0.00  0.00    -0.520 NA
BRANCH   7  13
ATOM     13  C   LIG    1       -4.196  -4.509   2.196  0.00  0.00    +0.150 C 
BRANCH  13  15
ATOM     14  C   LIG    1       -6.601  -4.040   2.684  0.00  0.00    +0.030 C 
ATOM     15  C   LIG    1       -5.436  -3.739   1.738  0.00  0.00    +0.010 C 
ENDBRANCH  13  15
ENDBRANCH   7  13
ENDBRANCH   1  11
BRANCH   3  16
ATOM     16  C   LIG    1       -0.018   1.465   0.010  0.00  0.00    +0.190 C 
ATOM     17  C   LIG    1       -1.293   1.614  -0.822  0.00  0.00    +0.030 C 
BRANCH  16  18
ATOM     18  C   LIG    1       -0.300   1.858   1.437  0.00  0.00    +0.530 C 
ATOM     19  N   LIG    1       -0.459   3.157   1.759  0.00  0.00    -0.630 N 
ATOM     20  H   LIG    1       -0.392   3.839   1.073  0.00  0.00    +0.420 HD
ATOM     21  O   LIG    1       -0.384   1.006   2.296  0.00  0.00    -0.490 OA
BRANCH  19  22
ATOM     22  C   LIG    1       -0.721   3.521   3.080  0.00  0.00    +0.250 A 
ATOM     23  N   LIG    1       -0.891   4.732   3.541  0.00  0.00    -0.390 NA
ATOM     24  O   LIG    1       -1.105   4.727   4.731  0.00  0.00    +0.100 OA
ATOM     25  C   LIG    1       -1.096   3.483   5.232  0.00  0.00    -0.020 A 
ATOM     26  C   LIG    1       -1.317   3.090   6.670  0.00  0.00    +0.190 C 
ATOM     27  C   LIG    1       -0.848   2.651   4.195  0.00  0.00    -0.040 A 
ENDBRANCH  19  22
ENDBRANCH  16  18
ENDBRANCH   3  16
TORSDOF 6
