REMARK  Name = ZINCpk00000KfKLl.1
REMARK                            x       y       z     vdW  Elec       q    Type
REMARK                         _______ _______ _______ _____ _____    ______ ____
ROOT
ATOM      1  C   LIG    1        4.952   3.056   2.554  0.00  0.00    +0.290 C 
ATOM      2  C   LIG    1        4.827   4.502   2.065  0.00  0.00    +0.180 C 
ATOM      3  N   LIG    1        5.843   5.328   2.733  0.00  0.00    -0.510 NA
ATOM      4  C   LIG    1        7.194   4.818   2.458  0.00  0.00    +0.150 C 
ATOM      5  C   LIG    1        7.294   3.369   2.942  0.00  0.00    +0.250 C 
ATOM      6  O   LIG    1        6.280   2.587   2.306  0.00  0.00    -0.370 OA
ENDROOT
BRANCH   1   9
ATOM      7  C   LIG    1        2.211   0.994   1.411  0.00  0.00    +0.290 A 
ATOM      8  N   LIG    1        2.827   1.711   2.315  0.00  0.00    -0.530 NA
ATOM      9  C   LIG    1        3.966   2.189   1.814  0.00  0.00    +0.230 A 
ATOM     10  N   LIG    1        4.086   1.787   0.576  0.00  0.00    -0.290 NA
ATOM     11  N   LIG    1        2.954   1.007   0.291  0.00  0.00    -0.480 N 
ATOM     12  H   LIG    1        2.749   0.565  -0.548  0.00  0.00    +0.440 HD
BRANCH   7  13
ATOM     13  C   LIG    1        0.894   0.283   1.591  0.00  0.00    +0.150 C 
BRANCH  13  15
ATOM     14  C   LIG    1       -0.186  -1.895   2.166  0.00  0.00    +0.030 C 
ATOM     15  C   LIG    1        1.150  -1.173   1.982  0.00  0.00    +0.010 C 
ENDBRANCH  13  15
ENDBRANCH   7  13
ENDBRANCH   1   9
BRANCH   3  16
ATOM     16  C   LIG    1        5.721   6.737   2.334  0.00  0.00    +0.190 C 
ATOM     17  C   LIG    1        5.602   6.827   0.811  0.00  0.00    +0.030 C 
BRANCH  16  18
ATOM     18  C   LIG    1        4.492   7.335   2.970  0.00  0.00    +0.530 C 
ATOM     19  N   LIG    1        4.320   8.671   2.978  0.00  0.00    -0.630 N 
ATOM     20  H   LIG    1        4.987   9.249   2.575  0.00  0.00    +0.420 HD
ATOM     21  O   LIG    1        3.658   6.613   3.474  0.00  0.00    -0.490 OA
BRANCH  19  22
ATOM     22  C   LIG    1        3.183   9.225   3.567  0.00  0.00    +0.250 A 
ATOM     23  N   LIG    1        2.884  10.494   3.656  0.00  0.00    -0.390 NA
ATOM     24  O   LIG    1        1.827  10.662   4.219  0.00  0.00    +0.100 OA
ATOM     25  C   LIG    1        1.276   9.499   4.597  0.00  0.00    -0.020 A 
ATOM     26  C   LIG    1       -0.030   9.317   5.326  0.00  0.00    +0.190 C 
ATOM     27  C   LIG    1        2.121   8.522   4.195  0.00  0.00    -0.040 A 
ENDBRANCH  19  22
ENDBRANCH  16  18
ENDBRANCH   3  16
TORSDOF 6
