REMARK  Name = ZINCpk00000KfKLl.0
REMARK                            x       y       z     vdW  Elec       q    Type
REMARK                         _______ _______ _______ _____ _____    ______ ____
ROOT
ATOM      1  C   LIG    1       -0.742   0.000   4.687  0.00  0.00    +0.290 C 
ATOM      2  C   LIG    1       -1.048   1.042   3.607  0.00  0.00    +0.190 C 
ATOM      3  N   LIG    1       -0.506   0.580   2.321  0.00  0.00    -0.510 NA
ATOM      4  C   LIG    1       -1.086  -0.718   1.947  0.00  0.00    +0.150 C 
ATOM      5  C   LIG    1       -0.779  -1.742   3.043  0.00  0.00    +0.250 C 
ATOM      6  O   LIG    1       -1.286  -1.262   4.292  0.00  0.00    -0.390 OA
ENDROOT
BRANCH   1  10
ATOM      7  C   LIG    1       -2.518   0.479   7.821  0.00  0.00    +0.180 A 
ATOM      8  N   LIG    1       -1.859   1.598   7.687  0.00  0.00    -0.280 NA
ATOM      9  N   LIG    1       -1.168   1.566   6.603  0.00  0.00    -0.280 NA
ATOM     10  C   LIG    1       -1.363   0.430   5.991  0.00  0.00    +0.180 A 
ATOM     11  N   LIG    1       -2.222  -0.294   6.748  0.00  0.00    -0.560 N 
ATOM     12  H   LIG    1       -2.557  -1.185   6.561  0.00  0.00    +0.430 HD
BRANCH   7  13
ATOM     13  C   LIG    1       -3.437   0.115   8.958  0.00  0.00    +0.150 C 
BRANCH  13  15
ATOM     14  C   LIG    1       -3.623  -0.113  11.439  0.00  0.00    +0.020 C 
ATOM     15  C   LIG    1       -2.689   0.258  10.285  0.00  0.00    +0.020 C 
ENDBRANCH  13  15
ENDBRANCH   7  13
ENDBRANCH   1  10
BRANCH   3  16
ATOM     16  C   LIG    1       -0.729   1.579   1.267  0.00  0.00    +0.150 C 
ATOM     17  C   LIG    1       -0.186   2.934   1.726  0.00  0.00    +0.080 C 
BRANCH  16  18
ATOM     18  C   LIG    1       -0.015   1.152   0.010  0.00  0.00    +0.530 C 
ATOM     19  N   LIG    1       -0.471   1.551  -1.193  0.00  0.00    -0.630 N 
ATOM     20  H   LIG    1       -1.260   2.114  -1.251  0.00  0.00    +0.420 HD
ATOM     21  O   LIG    1        0.970   0.448   0.082  0.00  0.00    -0.490 OA
BRANCH  19  22
ATOM     22  C   LIG    1        0.189   1.155  -2.356  0.00  0.00    +0.250 A 
ATOM     23  N   LIG    1       -0.137   1.457  -3.586  0.00  0.00    -0.390 NA
ATOM     24  O   LIG    1        0.632   0.968  -4.380  0.00  0.00    +0.100 OA
ATOM     25  C   LIG    1        1.588   0.252  -3.771  0.00  0.00    -0.020 A 
ATOM     26  C   LIG    1        2.710  -0.503  -4.436  0.00  0.00    +0.190 C 
ATOM     27  C   LIG    1        1.348   0.339  -2.443  0.00  0.00    -0.040 A 
ENDBRANCH  19  22
ENDBRANCH  16  18
ENDBRANCH   3  16
TORSDOF 6
