REMARK  Name = ZINCrD00000l3RNG.0
REMARK                            x       y       z     vdW  Elec       q    Type
REMARK                         _______ _______ _______ _____ _____    ______ ____
ROOT
ATOM      1  O   LIG    1        0.111   7.747  -3.791  0.00  0.00    -0.520 OA
ATOM      2  C   LIG    1        0.140   8.402  -2.771  0.00  0.00    +0.550 C 
ATOM      3  N   LIG    1        0.178   9.748  -2.834  0.00  0.00    -0.720 N 
ATOM      4  H   LIG    1        0.202  10.271  -2.018  0.00  0.00    +0.410 HD
ENDROOT
BRANCH   3   5
ATOM      5  C   LIG    1        0.185  10.420  -4.136  0.00  0.00    +0.400 C 
BRANCH   5   6
ATOM      6  C   LIG    1        0.231  11.912  -3.931  0.00  0.00    -0.030 A 
ATOM      7  C   LIG    1        1.349  12.658  -3.835  0.00  0.00    -0.010 A 
ATOM      8  C   LIG    1        0.939  13.993  -3.648  0.00  0.00    -0.030 A 
ATOM      9  C   LIG    1       -0.420  13.989  -3.641  0.00  0.00    +0.040 A 
ATOM     10  O   LIG    1       -0.836  12.720  -3.819  0.00  0.00    -0.160 OA
BRANCH   9  11
ATOM     11  C   LIG    1       -1.291  15.171  -3.474  0.00  0.00    -0.000 A 
ATOM     12  C   LIG    1       -0.728  16.436  -3.297  0.00  0.00    +0.050 A 
ATOM     13  C   LIG    1       -1.546  17.537  -3.146  0.00  0.00    +0.050 A 
ATOM     14  C   LIG    1       -2.922  17.387  -3.159  0.00  0.00    -0.080 A 
ATOM     15  C   LIG    1       -3.486  16.134  -3.328  0.00  0.00    +0.050 A 
ATOM     16 BR   LIG    1       -4.036  18.900  -2.944  0.00  0.00    -0.040 Br
ATOM     17  C   LIG    1       -2.679  15.027  -3.485  0.00  0.00    +0.040 A 
ENDBRANCH   9  11
ENDBRANCH   5   6
ENDBRANCH   3   5
BRANCH   2  18
ATOM     18  C   LIG    1        0.133   7.711  -1.431  0.00  0.00    -0.340 C 
BRANCH  18  19
ATOM     19  S   LIG    1        0.078   5.915  -1.678  0.00  0.00    +2.450 S 
ATOM     20  O   LIG    1       -1.164   5.578  -2.281  0.00  0.00    -0.910 OA
ATOM     21  O   LIG    1        1.286   5.507  -2.305  0.00  0.00    -0.900 OA
BRANCH  19  22
ATOM     22  C   LIG    1        0.077   5.302   0.029  0.00  0.00    -0.270 C 
BRANCH  22  23
ATOM     23  C   LIG    1        0.033   3.795   0.022  0.00  0.00    +0.120 A 
ATOM     24  C   LIG    1       -1.188   3.148   0.030  0.00  0.00    -0.010 A 
ATOM     25  C   LIG    1       -1.217   1.761   0.017  0.00  0.00    +0.070 A 
ATOM     26  C   LIG    1       -0.013   1.076   0.008  0.00  0.00    -0.020 A 
ATOM     27  C   LIG    1        1.170   1.792   0.001  0.00  0.00    +0.280 A 
ATOM     28  N   LIG    1        1.160   3.110   0.007  0.00  0.00    -0.470 NA
ENDBRANCH  22  23
ENDBRANCH  19  22
ENDBRANCH  18  19
ENDBRANCH   2  18
TORSDOF 7
