REMARK  Name = ZINCrD00000l8sPU.0
REMARK                            x       y       z     vdW  Elec       q    Type
REMARK                         _______ _______ _______ _____ _____    ______ ____
ROOT
ATOM      1  N   LIG    1       -0.061   4.168   0.009  0.00  0.00    -0.720 N 
ATOM      2  H   LIG    1       -0.885   3.658   0.021  0.00  0.00    +0.410 HD
ATOM      3  C   LIG    1        1.126   3.531  -0.016  0.00  0.00    +0.580 C 
ATOM      4  O   LIG    1        2.160   4.171  -0.030  0.00  0.00    -0.530 OA
ENDROOT
BRANCH   3   5
ATOM      5  C   LIG    1        1.171   2.055  -0.026  0.00  0.00    -0.240 A 
ATOM      6  C   LIG    1       -0.015   1.308  -0.009  0.00  0.00    +0.380 A 
ATOM      7  N   LIG    1        0.003  -0.004  -0.018  0.00  0.00    -0.500 NA
ATOM      8  C   LIG    1        1.142  -0.689  -0.042  0.00  0.00    +0.330 A 
ATOM      9  C   LIG    1        2.379  -0.010  -0.059  0.00  0.00    -0.240 A 
ATOM     10  C   LIG    1        3.414  -1.039  -0.084  0.00  0.00    +0.300 A 
ATOM     11  N   LIG    1        2.818  -2.197  -0.080  0.00  0.00    -0.230 NA
ATOM     12  N   LIG    1        1.431  -2.024  -0.055  0.00  0.00    -0.380 N 
ATOM     13  C   LIG    1        2.396   1.386  -0.052  0.00  0.00    +0.240 A 
BRANCH  12  14
ATOM     14  C   LIG    1        0.443  -3.106  -0.044  0.00  0.00    +0.270 C 
ATOM     15  C   LIG    1        0.652  -3.976   1.196  0.00  0.00    +0.050 C 
ATOM     16  C   LIG    1        0.609  -3.961  -1.302  0.00  0.00    +0.050 C 
ENDBRANCH  12  14
ENDBRANCH   3   5
BRANCH   1  17
ATOM     17  C   LIG    1       -0.106   5.633   0.019  0.00  0.00    +0.320 C 
BRANCH  17  20
ATOM     18  N   LIG    1       -1.828   7.408   0.061  0.00  0.00    -0.660 N 
ATOM     19  H   LIG    1       -1.113   8.059   0.133  0.00  0.00    +0.420 HD
ATOM     20  C   LIG    1       -1.541   6.091   0.048  0.00  0.00    +0.510 C 
ATOM     21  O   LIG    1       -2.438   5.275   0.059  0.00  0.00    -0.510 OA
BRANCH  18  29
ATOM     22  C   LIG    1       -2.493   9.961   1.126  0.00  0.00    +0.110 C 
ATOM     23  C   LIG    1       -3.525   9.075   0.477  0.00  0.00    -0.110 A 
ATOM     24  C   LIG    1       -4.839   9.495   0.386  0.00  0.00    -0.020 A 
ATOM     25  C   LIG    1       -5.786   8.680  -0.210  0.00  0.00    +0.020 A 
ATOM     26  C   LIG    1       -5.422   7.446  -0.715  0.00  0.00    +0.050 A 
ATOM     27  C   LIG    1       -4.110   7.024  -0.630  0.00  0.00    +0.030 A 
ATOM     28 CL   LIG    1       -5.301  11.044   1.018  0.00  0.00    -0.060 Cl
ATOM     29  C   LIG    1       -3.157   7.835  -0.029  0.00  0.00    +0.160 A 
ENDBRANCH  18  29
ENDBRANCH  17  20
ENDBRANCH   1  17
TORSDOF 5
