REMARK  Name = ZINCrg000000sFtH.0
REMARK                            x       y       z     vdW  Elec       q    Type
REMARK                         _______ _______ _______ _____ _____    ______ ____
ROOT
ATOM      1  C   LIG    1       -1.200  -0.720   0.010  0.00  0.00    +0.320 A 
ATOM      2  C   LIG    1       -2.414  -0.036   0.025  0.00  0.00    -0.060 A 
ATOM      3  C   LIG    1       -3.605  -0.729   0.033  0.00  0.00    +0.100 A 
ATOM      4  C   LIG    1       -3.598  -2.117   0.025  0.00  0.00    -0.030 A 
ATOM      5  N   LIG    1       -4.588  -3.082   0.029  0.00  0.00    -0.510 N 
ATOM      6  H   LIG    1       -5.545  -2.924   0.039  0.00  0.00    +0.450 HD
ATOM      7  C   LIG    1       -3.972  -4.294   0.016  0.00  0.00    +0.370 C 
ATOM      8  N   LIG    1       -2.680  -4.139   0.005  0.00  0.00    -0.500 N 
ATOM      9  H   LIG    1       -2.031  -4.860  -0.005  0.00  0.00    +0.450 HD
ATOM     10  C   LIG    1       -2.378  -2.815   0.010  0.00  0.00    +0.100 A 
ATOM     11  C   LIG    1       -1.177  -2.102  -0.004  0.00  0.00    -0.040 A 
ENDROOT
BRANCH   7  12
ATOM     12  C   LIG    1       -4.682  -5.624   0.015  0.00  0.00    +0.070 C 
ATOM     13  C   LIG    1       -5.526  -5.870  -1.247  0.00  0.00    +0.050 C 
ATOM     14  C   LIG    1       -6.585  -6.491  -0.319  0.00  0.00    +0.040 C 
ATOM     15  C   LIG    1       -6.001  -5.618   0.804  0.00  0.00    +0.050 C 
ENDBRANCH   7  12
BRANCH   1  16
ATOM     16  N   LIG    1        0.002  -0.004   0.002  0.00  0.00    -1.060 NA
BRANCH  16  17
ATOM     17  S   LIG    1       -0.020   1.652   0.011  0.00  0.00    +2.650 S 
ATOM     18  O   LIG    1       -0.558   2.039   1.268  0.00  0.00    -1.020 OA
ATOM     19  O   LIG    1       -0.582   2.052  -1.231  0.00  0.00    -0.990 OA
BRANCH  17  23
ATOM     20  C   LIG    1        4.143   3.640   2.309  0.00  0.00    +0.350 C 
ATOM     21  N   LIG    1        3.526   3.106   1.092  0.00  0.00    -0.530 N 
ATOM     22  C   LIG    1        2.222   2.693   1.118  0.00  0.00    +0.490 A 
ATOM     23  C   LIG    1        1.655   2.196  -0.002  0.00  0.00    -0.800 A 
ATOM     24  C   LIG    1        2.424   2.124  -1.189  0.00  0.00    +0.580 A 
ATOM     25  N   LIG    1        3.704   2.546  -1.175  0.00  0.00    -0.560 N 
ATOM     26  C   LIG    1        4.509   2.477  -2.397  0.00  0.00    +0.340 C 
ATOM     27  O   LIG    1        1.933   1.683  -2.213  0.00  0.00    -0.480 OA
ATOM     28  C   LIG    1        4.246   3.032  -0.042  0.00  0.00    +0.700 A 
ATOM     29  O   LIG    1        5.402   3.409  -0.044  0.00  0.00    -0.530 OA
ENDBRANCH  17  23
ENDBRANCH  16  17
ENDBRANCH   1  16
TORSDOF 4
