REMARK  Name = ZINCnE000001RsNW.0
REMARK                            x       y       z     vdW  Elec       q    Type
REMARK                         _______ _______ _______ _____ _____    ______ ____
ROOT
ATOM      1  C   LIG    1        1.966  -4.247  -3.080  0.00  0.00    -0.200 A 
ATOM      2  C   LIG    1        2.310  -5.588  -3.157  0.00  0.00    +0.100 A 
ATOM      3  C   LIG    1        2.508  -6.318  -2.000  0.00  0.00    -0.120 A 
ATOM      4  C   LIG    1        2.369  -5.714  -0.764  0.00  0.00    +0.080 A 
ATOM      5  C   LIG    1        2.031  -4.375  -0.678  0.00  0.00    -0.160 A 
ATOM      6  C   LIG    1        1.831  -3.636  -1.833  0.00  0.00    +0.340 A 
ENDROOT
BRANCH   1   7
ATOM      7  S   LIG    1        1.706  -3.316  -4.553  0.00  0.00    +0.100 S 
BRANCH   7  13
ATOM      8  C   LIG    1       -0.377  -1.703  -6.553  0.00  0.00    +0.340 C 
ATOM      9  N   LIG    1       -0.832  -2.528  -5.431  0.00  0.00    -0.480 N 
ATOM     10  C   LIG    1       -2.123  -2.757  -5.044  0.00  0.00    +0.340 A 
ATOM     11  N   LIG    1       -2.084  -3.543  -4.006  0.00  0.00    -0.290 NA
ATOM     12  N   LIG    1       -0.865  -3.830  -3.715  0.00  0.00    -0.280 NA
ATOM     13  C   LIG    1       -0.054  -3.229  -4.554  0.00  0.00    +0.180 A 
ENDBRANCH   7  13
ENDBRANCH   1   7
BRANCH   6  14
ATOM     14  N   LIG    1        1.489  -2.281  -1.748  0.00  0.00    -1.060 NA
BRANCH  14  15
ATOM     15  S   LIG    1        1.323  -1.560  -0.267  0.00  0.00    +2.620 S 
ATOM     16  O   LIG    1        0.194  -2.164   0.349  0.00  0.00    -1.010 OA
ATOM     17  O   LIG    1        2.616  -1.550   0.322  0.00  0.00    -1.020 OA
BRANCH  15  18
ATOM     18  C   LIG    1        0.893   0.125  -0.552  0.00  0.00    -0.700 A 
ATOM     19  C   LIG    1       -0.350   0.592  -0.665  0.00  0.00    +0.140 A 
ATOM     20  C   LIG    1       -0.444   1.955  -0.888  0.00  0.00    +0.010 A 
ATOM     21  C   LIG    1        0.726   2.595  -0.956  0.00  0.00    -0.140 A 
ATOM     22 CL   LIG    1        0.921   4.298  -1.226  0.00  0.00    -0.020 Cl
ATOM     23  S   LIG    1        2.039   1.447  -0.732  0.00  0.00    +0.260 S 
ENDBRANCH  15  18
ENDBRANCH  14  15
ENDBRANCH   6  14
TORSDOF 5
