REMARK  Name = ZINCpe000000UPGW.0
REMARK                            x       y       z     vdW  Elec       q    Type
REMARK                         _______ _______ _______ _____ _____    ______ ____
ROOT
ATOM      1  C   LIG    1       -0.736   1.583   1.264  0.00  0.00    -0.020 C 
ATOM      2  C   LIG    1       -0.878   3.105   1.196  0.00  0.00    +0.050 C 
ATOM      3  C   LIG    1       -1.712   3.490  -0.028  0.00  0.00    +0.020 C 
ATOM      4  C   LIG    1       -0.997   3.015  -1.297  0.00  0.00    +0.260 C 
ATOM      5  N   LIG    1       -0.729   1.575  -1.178  0.00  0.00    -0.610 N 
ATOM      6  C   LIG    1       -1.132   0.720  -2.138  0.00  0.00    +0.520 C 
ATOM      7  O   LIG    1       -0.904  -0.466  -2.028  0.00  0.00    -0.530 OA
ATOM      8  C   LIG    1       -0.013   1.086   0.008  0.00  0.00    +0.290 C 
ENDROOT
BRANCH   1  11
ATOM      9  N   LIG    1        0.315  -0.094   2.748  0.00  0.00    -0.720 N 
ATOM     10  H   LIG    1       -0.015  -0.784   2.151  0.00  0.00    +0.400 HD
ATOM     11  C   LIG    1        0.061   1.203   2.486  0.00  0.00    +0.530 C 
ATOM     12  O   LIG    1        0.473   2.065   3.233  0.00  0.00    -0.530 OA
BRANCH   9  16
ATOM     13  C   LIG    1        1.935  -4.128   3.386  0.00  0.00    +0.290 C 
ATOM     14  N   LIG    1        1.942  -2.682   3.622  0.00  0.00    -0.630 N 
ATOM     15  C   LIG    1        0.868  -1.948   4.301  0.00  0.00    +0.280 C 
ATOM     16  C   LIG    1        1.089  -0.463   3.936  0.00  0.00    +0.250 C 
ATOM     17  C   LIG    1        2.606  -0.434   3.639  0.00  0.00    +0.060 C 
ATOM     18  C   LIG    1        2.934  -1.857   3.245  0.00  0.00    +0.520 C 
ATOM     19  O   LIG    1        3.945  -2.203   2.671  0.00  0.00    -0.530 OA
ENDBRANCH   9  16
ENDBRANCH   1  11
BRANCH   6  20
ATOM     20  C   LIG    1       -1.865   1.237  -3.349  0.00  0.00    +0.100 C 
BRANCH  20  21
ATOM     21  C   LIG    1       -2.201   0.087  -4.263  0.00  0.00    -0.070 A 
ATOM     22  C   LIG    1       -1.314  -0.290  -5.254  0.00  0.00    +0.010 A 
ATOM     23  C   LIG    1       -1.620  -1.348  -6.090  0.00  0.00    +0.000 A 
ATOM     24  C   LIG    1       -2.817  -2.023  -5.939  0.00  0.00    +0.000 A 
ATOM     25  C   LIG    1       -3.706  -1.643  -4.951  0.00  0.00    +0.000 A 
ATOM     26  C   LIG    1       -3.398  -0.588  -4.113  0.00  0.00    +0.010 A 
ENDBRANCH  20  21
ENDBRANCH   6  20
TORSDOF 4
