REMARK  Name = ZINCrD000000AeB9.0
REMARK                            x       y       z     vdW  Elec       q    Type
REMARK                         _______ _______ _______ _____ _____    ______ ____
ROOT
ATOM      1  O   LIG    1       -2.344   0.250   0.026  0.00  0.00    -0.500 OA
ATOM      2  C   LIG    1       -1.412  -0.526   0.013  0.00  0.00    +0.520 C 
ATOM      3  N   LIG    1       -1.640  -1.854   0.008  0.00  0.00    -0.620 N 
ATOM      4  H   LIG    1       -0.894  -2.474  -0.003  0.00  0.00    +0.430 HD
ENDROOT
BRANCH   3   5
ATOM      5  C   LIG    1       -2.944  -2.335   0.018  0.00  0.00    +0.270 A 
ATOM      6  N   LIG    1       -3.280  -3.587   0.014  0.00  0.00    -0.500 NA
ATOM      7  C   LIG    1       -4.577  -3.861   0.026  0.00  0.00    +0.130 A 
ATOM      8  C   LIG    1       -5.393  -2.792   0.040  0.00  0.00    -0.110 A 
ATOM      9  S   LIG    1       -4.396  -1.339   0.044  0.00  0.00    +0.210 S 
BRANCH   7  10
ATOM     10  C   LIG    1       -5.093  -5.252   0.023  0.00  0.00    -0.020 A 
ATOM     11  C   LIG    1       -6.467  -5.488   0.041  0.00  0.00    +0.020 A 
ATOM     12  C   LIG    1       -6.941  -6.784   0.032  0.00  0.00    +0.010 A 
ATOM     13  C   LIG    1       -6.057  -7.848   0.017  0.00  0.00    +0.010 A 
ATOM     14  C   LIG    1       -4.692  -7.619   0.005  0.00  0.00    +0.010 A 
ATOM     15  C   LIG    1       -4.207  -6.327   0.008  0.00  0.00    +0.040 A 
ENDBRANCH   7  10
ENDBRANCH   3   5
BRANCH   2  16
ATOM     16  C   LIG    1        0.002  -0.004   0.002  0.00  0.00    +0.070 C 
BRANCH  16  17
ATOM     17  C   LIG    1       -0.019   1.526   0.010  0.00  0.00    +0.320 C 
BRANCH  17  18
ATOM     18  N   LIG    1        1.356   2.033   0.000  0.00  0.00    -0.600 N 
ATOM     19  C   LIG    1        2.065   2.291   1.132  0.00  0.00    +0.540 C 
ATOM     20  C   LIG    1        3.484   2.476   0.694  0.00  0.00    +0.000 C 
ATOM     21  C   LIG    1        4.371   3.451   1.432  0.00  0.00    +0.060 C 
ATOM     22  C   LIG    1        5.728   3.452   0.704  0.00  0.00    +0.020 C 
ATOM     23  C   LIG    1        5.586   3.795  -0.775  0.00  0.00    +0.020 C 
ATOM     24  C   LIG    1        4.552   2.893  -1.477  0.00  0.00    +0.050 C 
ATOM     25  C   LIG    1        3.252   3.076  -0.725  0.00  0.00    +0.000 C 
ATOM     26  O   LIG    1        1.635   2.355   2.264  0.00  0.00    -0.460 OA
ATOM     27  C   LIG    1        2.045   2.297  -1.143  0.00  0.00    +0.540 C 
ATOM     28  O   LIG    1        1.743   1.969  -2.270  0.00  0.00    -0.460 OA
ENDBRANCH  17  18
ENDBRANCH  16  17
ENDBRANCH   2  16
TORSDOF 5
