REMARK  Name = ZINCrH000004rrxp.0
REMARK                            x       y       z     vdW  Elec       q    Type
REMARK                         _______ _______ _______ _____ _____    ______ ____
ROOT
ATOM      1  C   LIG    1        1.293  -5.468  -1.758  0.00  0.00    +0.230 C 
ATOM      2  C   LIG    1        1.625  -5.924  -0.313  0.00  0.00    +0.040 C 
ATOM      3  C   LIG    1        1.256  -4.661   0.505  0.00  0.00    +0.220 C 
ATOM      4  N   LIG    1        0.057  -4.114  -0.164  0.00  0.00    -0.460 N 
ATOM      5  C   LIG    1        0.050  -4.575  -1.565  0.00  0.00    +0.220 C 
ENDROOT
BRANCH   4   6
ATOM      6  C   LIG    1        0.038  -2.725  -0.097  0.00  0.00    +0.350 A 
ATOM      7  N   LIG    1        0.018  -2.014  -1.213  0.00  0.00    -0.500 NA
ATOM      8  C   LIG    1       -0.006  -0.695  -1.193  0.00  0.00    +0.370 A 
ATOM      9  C   LIG    1        0.002  -0.004   0.002  0.00  0.00    -0.260 A 
ATOM     10  C   LIG    1        0.023  -0.712   1.197  0.00  0.00    +0.170 A 
ATOM     11  C   LIG    1        0.041  -2.095   1.145  0.00  0.00    -0.110 A 
ATOM     12 CL   LIG    1        0.067  -3.030   2.607  0.00  0.00    -0.030 Cl
BRANCH   9  13
ATOM     13  C   LIG    1       -0.018   1.503   0.010  0.00  0.00    +0.520 C 
ATOM     14  F   LIG    1       -0.673   1.954   1.161  0.00  0.00    -0.170 F 
ATOM     15  F   LIG    1       -0.695   1.966  -1.123  0.00  0.00    -0.170 F 
ATOM     16  F   LIG    1        1.294   1.987   0.000  0.00  0.00    -0.170 F 
ENDBRANCH   9  13
ENDBRANCH   4   6
BRANCH   1  18
ATOM     17  C   LIG    1        1.952  -7.232  -3.305  0.00  0.00    +0.560 C 
ATOM     18  N   LIG    1        0.976  -6.621  -2.604  0.00  0.00    -0.720 N 
ATOM     19  H   LIG    1        0.064  -6.945  -2.660  0.00  0.00    +0.400 HD
ATOM     20  O   LIG    1        3.096  -6.826  -3.235  0.00  0.00    -0.520 OA
BRANCH  17  26
ATOM     21  C   LIG    1       -1.389 -10.454  -5.129  0.00  0.00    +0.090 C 
ATOM     22  C   LIG    1        0.028  -9.948  -5.039  0.00  0.00    -0.100 A 
ATOM     23  C   LIG    1        1.031 -10.576  -5.759  0.00  0.00    +0.060 A 
ATOM     24  C   LIG    1        2.333 -10.121  -5.686  0.00  0.00    -0.010 A 
ATOM     25  C   LIG    1        2.644  -9.028  -4.892  0.00  0.00    +0.160 A 
ATOM     26  C   LIG    1        1.633  -8.393  -4.157  0.00  0.00    -0.170 A 
ATOM     27  C   LIG    1        0.320  -8.863  -4.241  0.00  0.00    +0.060 A 
BRANCH  25  28
ATOM     28  O   LIG    1        3.921  -8.577  -4.824  0.00  0.00    -0.480 OA
ATOM     29  H   LIG    1        4.446  -8.988  -4.123  0.00  0.00    +0.400 HD
ENDBRANCH  25  28
ENDBRANCH  17  26
ENDBRANCH   1  18
TORSDOF 5
