REMARK  Name = ZINCkj000005i5dh.1
REMARK                            x       y       z     vdW  Elec       q    Type
REMARK                         _______ _______ _______ _____ _____    ______ ____
ROOT
ATOM      1  N   LIG    1       -0.030  -0.007  -0.012  0.00  0.00    -0.710 N 
ATOM      2  H   LIG    1       -0.425  -0.502   0.723  0.00  0.00    +0.420 HD
ATOM      3  C   LIG    1        0.560  -0.665  -1.029  0.00  0.00    +0.500 C 
ATOM      4  O   LIG    1        1.054  -0.045  -1.948  0.00  0.00    -0.490 OA
ENDROOT
BRANCH   3   5
ATOM      5  C   LIG    1        0.605  -2.157  -1.026  0.00  0.00    +0.400 C 
ATOM      6  O   LIG    1        0.199  -2.775  -0.064  0.00  0.00    -0.410 OA
BRANCH   5   7
ATOM      7  C   LIG    1        1.143  -2.880  -2.192  0.00  0.00    -0.170 A 
ATOM      8  C   LIG    1        1.726  -2.174  -3.250  0.00  0.00    +0.110 A 
ATOM      9  C   LIG    1        2.232  -2.857  -4.334  0.00  0.00    +0.030 A 
ATOM     10  C   LIG    1        2.155  -4.240  -4.383  0.00  0.00    -0.050 A 
ATOM     11  C   LIG    1        1.574  -4.946  -3.342  0.00  0.00    +0.040 A 
ATOM     12 BR   LIG    1        2.846  -5.168  -5.879  0.00  0.00    -0.030 Br
ATOM     13  C   LIG    1        1.069  -4.277  -2.249  0.00  0.00    +0.110 A 
ENDBRANCH   5   7
ENDBRANCH   3   5
BRANCH   1  14
ATOM     14  C   LIG    1       -0.075   1.458  -0.015  0.00  0.00    +0.290 C 
BRANCH  14  15
ATOM     15  C   LIG    1       -0.794   1.948   1.243  0.00  0.00    +0.260 C 
BRANCH  15  16
ATOM     16  N   LIG    1       -0.839   3.417   1.240  0.00  0.00    -0.380 N 
ATOM     17  C   LIG    1        0.527   3.949   1.340  0.00  0.00    +0.330 C 
ATOM     18  H   LIG    1       -1.263   3.739   0.383  0.00  0.00    +0.440 HD
BRANCH  16  19
ATOM     19  C   LIG    1       -1.631   3.885   2.385  0.00  0.00    +0.290 C 
BRANCH  19  20
ATOM     20  C   LIG    1       -1.783   5.406   2.312  0.00  0.00    +0.210 C 
BRANCH  20  22
ATOM     21  C   LIG    1       -2.748   7.159   0.993  0.00  0.00    +0.240 C 
ATOM     22  O   LIG    1       -2.547   5.754   1.156  0.00  0.00    -0.400 OA
ENDBRANCH  20  22
ENDBRANCH  19  20
ENDBRANCH  16  19
ENDBRANCH  15  16
ENDBRANCH  14  15
ENDBRANCH   1  14
TORSDOF 8
