REMARK  Name = ZINCkj000005i5dh.0
REMARK                            x       y       z     vdW  Elec       q    Type
REMARK                         _______ _______ _______ _____ _____    ______ ____
ROOT
ATOM      1  N   LIG    1       -0.180  -0.408  -0.695  0.00  0.00    -0.710 N 
ATOM      2  H   LIG    1        0.677  -0.841  -0.558  0.00  0.00    +0.420 HD
ATOM      3  C   LIG    1       -0.234   0.917  -0.933  0.00  0.00    +0.500 C 
ATOM      4  O   LIG    1       -1.306   1.459  -1.110  0.00  0.00    -0.490 OA
ENDROOT
BRANCH   3   5
ATOM      5  C   LIG    1        1.024   1.719  -0.985  0.00  0.00    +0.400 C 
ATOM      6  O   LIG    1        2.087   1.197  -0.719  0.00  0.00    -0.410 OA
BRANCH   5   7
ATOM      7  C   LIG    1        0.976   3.143  -1.360  0.00  0.00    -0.170 A 
ATOM      8  C   LIG    1       -0.257   3.781  -1.539  0.00  0.00    +0.110 A 
ATOM      9  C   LIG    1       -0.294   5.115  -1.884  0.00  0.00    +0.030 A 
ATOM     10  C   LIG    1        0.885   5.821  -2.065  0.00  0.00    -0.050 A 
ATOM     11  C   LIG    1        2.109   5.194  -1.895  0.00  0.00    +0.040 A 
ATOM     12 BR   LIG    1        0.823   7.648  -2.547  0.00  0.00    -0.030 Br
ATOM     13  C   LIG    1        2.162   3.862  -1.544  0.00  0.00    +0.110 A 
ENDBRANCH   5   7
ENDBRANCH   3   5
BRANCH   1  14
ATOM     14  C   LIG    1       -1.415  -1.194  -0.644  0.00  0.00    +0.290 C 
BRANCH  14  15
ATOM     15  C   LIG    1       -1.076  -2.659  -0.361  0.00  0.00    +0.250 C 
BRANCH  15  16
ATOM     16  N   LIG    1       -2.314  -3.447  -0.310  0.00  0.00    -0.380 N 
ATOM     17  C   LIG    1       -2.952  -3.445  -1.633  0.00  0.00    +0.330 C 
ATOM     18  H   LIG    1       -2.943  -3.042   0.367  0.00  0.00    +0.440 HD
BRANCH  16  19
ATOM     19  C   LIG    1       -2.000  -4.829   0.079  0.00  0.00    +0.290 C 
BRANCH  19  20
ATOM     20  C   LIG    1       -1.476  -4.847   1.517  0.00  0.00    +0.190 C 
BRANCH  20  22
ATOM     21  C   LIG    1       -2.111  -4.367   3.777  0.00  0.00    +0.240 C 
ATOM     22  O   LIG    1       -2.499  -4.389   2.402  0.00  0.00    -0.400 OA
ENDBRANCH  20  22
ENDBRANCH  19  20
ENDBRANCH  16  19
ENDBRANCH  15  16
ENDBRANCH  14  15
ENDBRANCH   1  14
TORSDOF 8
