REMARK  Name = ZINCpk00000KfLFz.0
REMARK                            x       y       z     vdW  Elec       q    Type
REMARK                         _______ _______ _______ _____ _____    ______ ____
ROOT
ATOM      1  C   LIG    1       -2.324  -0.295  -0.094  0.00  0.00    +0.160 A 
ATOM      2  C   LIG    1       -1.087  -0.930  -0.107  0.00  0.00    -0.080 A 
ATOM      3  C   LIG    1       -1.016  -2.301  -0.215  0.00  0.00    +0.090 A 
ATOM      4  C   LIG    1       -2.189  -3.053  -0.324  0.00  0.00    -0.160 A 
ATOM      5  C   LIG    1       -3.430  -2.410  -0.317  0.00  0.00    +0.140 A 
ATOM      6  C   LIG    1       -3.493  -1.040  -0.202  0.00  0.00    +0.020 A 
ENDROOT
BRANCH   4   7
ATOM      7  C   LIG    1       -2.117  -4.522  -0.447  0.00  0.00    +0.570 C 
ATOM      8  N   LIG    1       -0.919  -5.140  -0.455  0.00  0.00    -0.720 N 
ATOM      9  H   LIG    1       -0.104  -4.619  -0.379  0.00  0.00    +0.410 HD
ATOM     10  O   LIG    1       -3.138  -5.175  -0.543  0.00  0.00    -0.530 OA
BRANCH   8  11
ATOM     11  C   LIG    1       -0.848  -6.598  -0.577  0.00  0.00    +0.300 C 
BRANCH  11  12
ATOM     12  C   LIG    1        0.595  -7.033  -0.559  0.00  0.00    +0.510 C 
ATOM     13  O   LIG    1        1.477  -6.207  -0.454  0.00  0.00    -0.540 OA
ATOM     14  N   LIG    1        0.905  -8.341  -0.659  0.00  0.00    -0.850 N 
ATOM     15  H   LIG    1        1.834  -8.621  -0.648  0.00  0.00    +0.410 HD
ATOM     16  H   LIG    1        0.201  -9.002  -0.743  0.00  0.00    +0.410 HD
ENDBRANCH  11  12
ENDBRANCH   8  11
ENDBRANCH   4   7
BRANCH   1  17
ATOM     17  O   LIG    1       -2.390   1.056   0.019  0.00  0.00    -0.240 OA
BRANCH  17  21
ATOM     18  C   LIG    1        1.153   3.175  -0.025  0.00  0.00    -0.010 A 
ATOM     19  C   LIG    1        0.594   2.769   1.189  0.00  0.00    +0.160 A 
ATOM     20  C   LIG    1       -0.591   2.066   1.200  0.00  0.00    +0.050 A 
ATOM     21  C   LIG    1       -1.227   1.754   0.004  0.00  0.00    +0.180 A 
ATOM     22  C   LIG    1       -0.677   2.161  -1.206  0.00  0.00    -0.060 A 
ATOM     23  C   LIG    1        0.506   2.864  -1.226  0.00  0.00    +0.170 A 
BRANCH  22  24
ATOM     24  N   LIG    1       -1.362   1.831  -2.476  0.00  0.00    +0.030 N 
ATOM     25  O   LIG    1       -2.409   1.209  -2.460  0.00  0.00    -0.120 OA
ATOM     26  O   LIG    1       -0.878   2.182  -3.538  0.00  0.00    -0.150 OA
ENDBRANCH  22  24
BRANCH  18  28
ATOM     27  N   LIG    1        3.361   4.485  -0.053  0.00  0.00    -0.370 NA
ATOM     28  C   LIG    1        2.384   3.905  -0.041  0.00  0.00    +0.240 C 
ENDBRANCH  18  28
ENDBRANCH  17  21
ENDBRANCH   1  17
TORSDOF 7
