REMARK  Name = ZINCpk00000KfLFZ.2
REMARK                            x       y       z     vdW  Elec       q    Type
REMARK                         _______ _______ _______ _____ _____    ______ ____
ROOT
ATOM      1  C   LIG    1       -0.822   3.023   1.213  0.00  0.00    +0.130 C 
ATOM      2  C   LIG    1       -1.692   3.492   2.402  0.00  0.00    +0.040 C 
ATOM      3  C   LIG    1       -2.528   4.644   1.785  0.00  0.00    +0.180 C 
ATOM      4  N   LIG    1       -2.810   4.162   0.409  0.00  0.00    -0.500 NA
ATOM      5  C   LIG    1       -1.572   3.494  -0.047  0.00  0.00    +0.180 C 
ENDROOT
BRANCH   1   6
ATOM      6  N   LIG    1       -0.700   1.560   1.217  0.00  0.00    -0.520 NA
ATOM      7  C   LIG    1       -0.013   1.086   0.008  0.00  0.00    +0.200 C 
BRANCH   6   8
ATOM      8  C   LIG    1       -0.016   1.091   2.429  0.00  0.00    +0.310 C 
BRANCH   8  11
ATOM      9  C   LIG    1       -0.800  -2.365   2.962  0.00  0.00    +0.180 A 
ATOM     10  N   LIG    1       -1.103  -1.101   3.132  0.00  0.00    -0.470 NA
ATOM     11  C   LIG    1       -0.125  -0.409   2.520  0.00  0.00    +0.180 A 
ATOM     12  N   LIG    1        0.711  -1.272   2.026  0.00  0.00    -0.380 NA
ATOM     13  O   LIG    1        0.342  -2.402   2.269  0.00  0.00    +0.080 OA
BRANCH   9  15
ATOM     14  C   LIG    1       -2.601  -3.973   2.396  0.00  0.00    +0.060 C 
ATOM     15  C   LIG    1       -1.586  -3.551   3.460  0.00  0.00    +0.180 C 
ENDBRANCH   9  15
ENDBRANCH   8  11
ENDBRANCH   6   8
ENDBRANCH   1   6
BRANCH   4  16
ATOM     16  C   LIG    1       -3.164   5.278  -0.478  0.00  0.00    +0.220 C 
BRANCH  16  17
ATOM     17  C   LIG    1       -4.277   6.081   0.144  0.00  0.00    -0.090 A 
ATOM     18  C   LIG    1       -3.979   7.142   0.980  0.00  0.00    +0.030 A 
ATOM     19  C   LIG    1       -4.995   7.885   1.555  0.00  0.00    +0.000 A 
ATOM     20  C   LIG    1       -6.313   7.572   1.297  0.00  0.00    +0.040 A 
ATOM     21  C   LIG    1       -6.621   6.502   0.456  0.00  0.00    -0.140 A 
ATOM     22  C   LIG    1       -5.592   5.760  -0.125  0.00  0.00    +0.100 A 
BRANCH  21  23
ATOM     23  C   LIG    1       -8.032   6.159   0.176  0.00  0.00    +0.560 C 
ATOM     24  O   LIG    1       -8.297   5.227  -0.558  0.00  0.00    -0.540 OA
ATOM     25  N   LIG    1       -9.024   6.881   0.734  0.00  0.00    -0.850 N 
ATOM     26  H   LIG    1       -9.950   6.657   0.550  0.00  0.00    +0.410 HD
ATOM     27  H   LIG    1       -8.812   7.625   1.319  0.00  0.00    +0.400 HD
ENDBRANCH  21  23
ENDBRANCH  16  17
ENDBRANCH   4  16
TORSDOF 7
