REMARK  Name = ZINCpe000027pGRN.1
REMARK                            x       y       z     vdW  Elec       q    Type
REMARK                         _______ _______ _______ _____ _____    ______ ____
ROOT
ATOM      1  C   LIG    1       -4.754  -1.601  -7.047  0.00  0.00    +0.010 C 
ATOM      2  C   LIG    1       -4.962  -2.541  -5.856  0.00  0.00    +0.080 C 
ATOM      3  C   LIG    1       -4.285  -1.947  -4.619  0.00  0.00    +0.210 C 
ATOM      4  N   LIG    1       -2.851  -1.771  -4.882  0.00  0.00    -0.490 N 
ATOM      5  C   LIG    1       -2.625  -0.835  -5.991  0.00  0.00    +0.200 C 
ATOM      6  C   LIG    1       -3.253  -1.395  -7.269  0.00  0.00    +0.050 C 
ENDROOT
BRANCH   4   7
ATOM      7  C   LIG    1       -2.178  -1.354  -3.731  0.00  0.00    +0.170 A 
ATOM      8  C   LIG    1       -0.808  -1.129  -3.768  0.00  0.00    -0.020 A 
ATOM      9  C   LIG    1       -0.146  -0.718  -2.628  0.00  0.00    +0.150 A 
ATOM     10  C   LIG    1       -0.846  -0.529  -1.450  0.00  0.00    -0.710 A 
ATOM     11  C   LIG    1       -2.209  -0.758  -1.409  0.00  0.00    +0.150 A 
ATOM     12  C   LIG    1       -2.878  -1.164  -2.546  0.00  0.00    -0.050 A 
BRANCH  10  13
ATOM     13  S   LIG    1        0.002  -0.004   0.002  0.00  0.00    +2.700 S 
ATOM     14  O   LIG    1       -0.792  -0.422   1.104  0.00  0.00    -0.960 OA
ATOM     15  O   LIG    1        1.360  -0.386  -0.166  0.00  0.00    -0.960 OA
BRANCH  13  16
ATOM     16  N   LIG    1       -0.020   1.652   0.011  0.00  0.00    -1.250 NA
ATOM     17  H   LIG    1       -0.867   2.125   0.018  0.00  0.00    +0.420 HD
ATOM     18  H   LIG    1        0.813   2.148   0.006  0.00  0.00    +0.420 HD
ENDBRANCH  13  16
ENDBRANCH  10  13
ENDBRANCH   4   7
BRANCH   1  21
ATOM     19  N   LIG    1       -5.305  -1.553  -9.458  0.00  0.00    -0.620 N 
ATOM     20  H   LIG    1       -4.866  -0.690  -9.509  0.00  0.00    +0.430 HD
ATOM     21  C   LIG    1       -5.368  -2.209  -8.282  0.00  0.00    +0.520 C 
ATOM     22  O   LIG    1       -5.917  -3.288  -8.218  0.00  0.00    -0.450 OA
BRANCH  19  27
ATOM     23  C   LIG    1       -6.798  -2.291 -14.092  0.00  0.00    +0.240 C 
ATOM     24  C   LIG    1       -6.530  -2.451 -12.618  0.00  0.00    +0.160 A 
ATOM     25  N   LIG    1       -6.882  -3.461 -11.877  0.00  0.00    -0.270 NA
ATOM     26  N   LIG    1       -6.490  -3.264 -10.667  0.00  0.00    -0.260 NA
ATOM     27  C   LIG    1       -5.870  -2.113 -10.595  0.00  0.00    +0.380 A 
ATOM     28  O   LIG    1       -5.887  -1.571 -11.826  0.00  0.00    -0.240 OA
ENDBRANCH  19  27
ENDBRANCH   1  21
TORSDOF 5
