REMARK  Name = ZINCrD00000F5LkL.0
REMARK                            x       y       z     vdW  Elec       q    Type
REMARK                         _______ _______ _______ _____ _____    ______ ____
ROOT
ATOM      1  C   LIG    1       -4.347   5.695  -2.969  0.00  0.00    +0.250 C 
ATOM      2  C   LIG    1       -3.046   5.789  -3.769  0.00  0.00    +0.030 C 
ENDROOT
BRANCH   1   3
ATOM      3  C   LIG    1       -5.161   6.975  -3.166  0.00  0.00    -0.010 C 
ATOM      4  C   LIG    1       -6.540   6.871  -2.463  0.00  0.00    +0.060 C 
ATOM      5  C   LIG    1       -7.421   7.835  -3.287  0.00  0.00    +0.240 C 
ATOM      6  N   LIG    1       -6.788   7.986  -4.605  0.00  0.00    -0.610 N 
ATOM      7  C   LIG    1       -7.239   8.765  -5.609  0.00  0.00    +0.610 C 
ATOM      8  O   LIG    1       -6.631   8.814  -6.662  0.00  0.00    -0.520 OA
ATOM      9  C   LIG    1       -5.577   7.146  -4.648  0.00  0.00    +0.290 C 
BRANCH   7  10
ATOM     10  C   LIG    1       -8.461   9.553  -5.431  0.00  0.00    -0.250 A 
ATOM     11  C   LIG    1       -9.017  10.376  -6.371  0.00  0.00    +0.130 A 
ATOM     12  C   LIG    1      -10.166  10.995  -5.940  0.00  0.00    -0.060 A 
ATOM     13  C   LIG    1      -10.540  10.690  -4.689  0.00  0.00    -0.180 A 
ATOM     14 CL   LIG    1      -11.948  11.330  -3.900  0.00  0.00    +0.020 Cl
ATOM     15 CL   LIG    1      -11.065  12.092  -6.941  0.00  0.00    -0.020 Cl
ATOM     16  S   LIG    1       -9.453   9.584  -3.980  0.00  0.00    +0.300 S 
ENDBRANCH   7  10
ENDBRANCH   1   3
BRANCH   1  17
ATOM     17  N   LIG    1       -4.034   5.529  -1.547  0.00  0.00    -1.120 NA
ATOM     18  H   LIG    1       -3.859   6.307  -0.995  0.00  0.00    +0.420 HD
BRANCH  17  19
ATOM     19  S   LIG    1       -3.978   4.013  -0.883  0.00  0.00    +2.610 S 
ATOM     20  O   LIG    1       -3.679   4.241   0.487  0.00  0.00    -0.940 OA
ATOM     21  O   LIG    1       -5.206   3.414  -1.274  0.00  0.00    -0.950 OA
BRANCH  19  22
ATOM     22  C   LIG    1       -2.583   3.205  -1.714  0.00  0.00    -0.340 C 
BRANCH  22  27
ATOM     23  C   LIG    1       -0.613   0.567   1.746  0.00  0.00    +0.060 C 
ATOM     24  C   LIG    1       -1.480   0.510   0.486  0.00  0.00    +0.150 C 
ATOM     25  C   LIG    1       -0.607   0.218  -0.755  0.00  0.00    +0.010 C 
ATOM     26  C   LIG    1       -1.242   1.072  -1.874  0.00  0.00    +0.020 C 
ATOM     27  C   LIG    1       -2.427   1.780  -1.180  0.00  0.00    +0.170 C 
ATOM     28  O   LIG    1       -2.074   1.802   0.221  0.00  0.00    -0.360 OA
ENDBRANCH  22  27
ENDBRANCH  19  22
ENDBRANCH  17  19
ENDBRANCH   1  17
TORSDOF 6
