REMARK  Name = ZINCtV00000L6ji0.0
REMARK                            x       y       z     vdW  Elec       q    Type
REMARK                         _______ _______ _______ _____ _____    ______ ____
ROOT
ATOM      1  N   LIG    1        3.942  -0.631  -0.039  0.00  0.00    -0.850 N 
ATOM      2  N   LIG    1        2.616  -0.203  -0.018  0.00  0.00    -0.200 NA
ATOM      3  C   LIG    1        2.476   1.077  -0.016  0.00  0.00    +0.140 C 
ATOM      4  C   LIG    1        3.838   1.734  -0.025  0.00  0.00    +0.100 C 
ATOM      5  C   LIG    1        4.823   0.548  -0.041  0.00  0.00    +0.280 C 
ENDROOT
BRANCH   3   6
ATOM      6  C   LIG    1        1.187   1.792   0.000  0.00  0.00    -0.030 A 
ATOM      7  C   LIG    1       -0.013   1.076   0.008  0.00  0.00    +0.070 A 
ATOM      8  C   LIG    1       -1.216   1.751   0.017  0.00  0.00    +0.030 A 
ATOM      9  C   LIG    1       -1.237   3.134   0.029  0.00  0.00    +0.070 A 
ATOM     10  C   LIG    1       -0.052   3.851   0.022  0.00  0.00    -0.090 A 
ATOM     11 BR   LIG    1       -0.093   5.741   0.032  0.00  0.00    -0.040 Br
ATOM     12  C   LIG    1        1.159   3.188   0.008  0.00  0.00    +0.080 A 
ENDBRANCH   3   6
BRANCH   5  13
ATOM     13  C   LIG    1        5.691   0.563   1.190  0.00  0.00    -0.100 A 
ATOM     14  C   LIG    1        5.199   0.083   2.389  0.00  0.00    +0.030 A 
ATOM     15  C   LIG    1        5.997   0.092   3.518  0.00  0.00    +0.050 A 
ATOM     16  C   LIG    1        7.285   0.593   3.450  0.00  0.00    -0.080 A 
ATOM     17  C   LIG    1        7.775   1.078   2.251  0.00  0.00    +0.050 A 
ATOM     18 BR   LIG    1        8.375   0.612   4.995  0.00  0.00    -0.040 Br
ATOM     19  C   LIG    1        6.978   1.063   1.122  0.00  0.00    +0.060 A 
ENDBRANCH   5  13
BRANCH   1  20
ATOM     20  S   LIG    1        4.445  -2.209  -0.052  0.00  0.00    +2.710 S 
ATOM     21  O   LIG    1        5.794  -2.196  -0.498  0.00  0.00    -0.930 OA
ATOM     22  O   LIG    1        3.420  -2.952  -0.697  0.00  0.00    -0.930 OA
BRANCH  20  27
ATOM     23  C   LIG    1        4.562  -4.093   5.679  0.00  0.00    +0.090 C 
ATOM     24  C   LIG    1        4.533  -3.623   4.248  0.00  0.00    -0.020 A 
ATOM     25  C   LIG    1        3.382  -3.768   3.495  0.00  0.00    -0.010 A 
ATOM     26  C   LIG    1        3.356  -3.337   2.183  0.00  0.00    +0.130 A 
ATOM     27  C   LIG    1        4.479  -2.759   1.622  0.00  0.00    -0.690 A 
ATOM     28  C   LIG    1        5.632  -2.618   2.372  0.00  0.00    +0.140 A 
ATOM     29  C   LIG    1        5.657  -3.045   3.687  0.00  0.00    -0.010 A 
ENDBRANCH  20  27
ENDBRANCH   1  20
TORSDOF 4
