REMARK  Name = ZINCpk000005Plh8.0
REMARK                            x       y       z     vdW  Elec       q    Type
REMARK                         _______ _______ _______ _____ _____    ______ ____
ROOT
ATOM      1  N   LIG    1        3.522  -0.713   0.020  0.00  0.00    -0.480 N 
ATOM      2  C   LIG    1        4.395  -0.229   1.099  0.00  0.00    +0.180 C 
ATOM      3  C   LIG    1        5.684  -1.054   1.115  0.00  0.00    +0.240 C 
ATOM      4  O   LIG    1        6.312  -0.972  -0.168  0.00  0.00    -0.370 OA
ATOM      5  C   LIG    1        5.490  -1.436  -1.242  0.00  0.00    +0.170 C 
ATOM      6  C   LIG    1        4.199  -0.615  -1.281  0.00  0.00    +0.180 C 
ENDROOT
BRANCH   1  14
ATOM      7  C   LIG    1        1.121  -2.156  -0.624  0.00  0.00    +0.130 C 
ATOM      8  C   LIG    1        1.127  -0.685  -0.299  0.00  0.00    -0.180 A 
ATOM      9  C   LIG    1       -0.045   0.045  -0.298  0.00  0.00    +0.320 A 
ATOM     10  N   LIG    1       -0.002   1.338  -0.008  0.00  0.00    -0.520 NA
ATOM     11  C   LIG    1        1.139   1.932   0.277  0.00  0.00    +0.330 A 
ATOM     12  N   LIG    1        2.282   1.274   0.288  0.00  0.00    -0.540 NA
ATOM     13  C   LIG    1        1.139   3.404   0.600  0.00  0.00    +0.170 C 
ATOM     14  C   LIG    1        2.319  -0.025   0.008  0.00  0.00    +0.340 A 
ENDBRANCH   1  14
BRANCH   5  15
ATOM     15  C   LIG    1        6.239  -1.274  -2.566  0.00  0.00    +0.300 C 
BRANCH  15  16
ATOM     16  N   LIG    1        7.415  -2.148  -2.572  0.00  0.00    -0.720 N 
ATOM     17  H   LIG    1        7.606  -2.709  -1.805  0.00  0.00    +0.400 HD
ATOM     18  C   LIG    1        8.231  -2.172  -3.645  0.00  0.00    +0.520 C 
ATOM     19  O   LIG    1        7.992  -1.470  -4.604  0.00  0.00    -0.520 OA
BRANCH  18  20
ATOM     20  C   LIG    1        9.440  -3.071  -3.651  0.00  0.00    +0.160 C 
ATOM     21  C   LIG    1       10.422  -2.613  -2.571  0.00  0.00    +0.040 C 
BRANCH  20  22
ATOM     22  O   LIG    1       10.075  -3.007  -4.930  0.00  0.00    -0.350 OA
BRANCH  22  23
ATOM     23  C   LIG    1       10.748  -4.210  -5.306  0.00  0.00    +0.160 C 
BRANCH  23  24
ATOM     24  C   LIG    1       11.386  -4.028  -6.684  0.00  0.00    -0.010 C 
ATOM     25  C   LIG    1       10.289  -3.833  -7.733  0.00  0.00    +0.020 C 
ATOM     26  C   LIG    1       12.210  -5.269  -7.033  0.00  0.00    +0.030 C 
ENDBRANCH  23  24
ENDBRANCH  22  23
ENDBRANCH  20  22
ENDBRANCH  18  20
ENDBRANCH  15  16
ENDBRANCH   5  15
TORSDOF 7
