REMARK  Name = ZINCqH0000007KRg.0
REMARK                            x       y       z     vdW  Elec       q    Type
REMARK                         _______ _______ _______ _____ _____    ______ ____
ROOT
ATOM      1  C   LIG    1        2.073   5.111  -1.431  0.00  0.00    +0.520 C 
ATOM      2  N   LIG    1        3.050   6.011  -1.656  0.00  0.00    -0.680 N 
ATOM      3  H   LIG    1        3.439   6.500  -0.915  0.00  0.00    +0.410 HD
ATOM      4  O   LIG    1        1.521   4.569  -2.365  0.00  0.00    -0.510 OA
ENDROOT
BRANCH   2   5
ATOM      5  C   LIG    1        3.504   6.240  -2.960  0.00  0.00    +0.160 A 
ATOM      6  C   LIG    1        3.534   5.197  -3.878  0.00  0.00    +0.000 A 
ATOM      7  C   LIG    1        3.976   5.421  -5.169  0.00  0.00    +0.030 A 
ATOM      8  C   LIG    1        4.402   6.678  -5.548  0.00  0.00    -0.020 A 
ATOM      9  C   LIG    1        4.380   7.728  -4.632  0.00  0.00    +0.020 A 
ATOM     10  C   LIG    1        3.930   7.505  -3.335  0.00  0.00    -0.020 A 
BRANCH   9  11
ATOM     11  C   LIG    1        4.838   9.081  -5.040  0.00  0.00    -0.200 A 
ATOM     12  C   LIG    1        5.301   9.438  -6.272  0.00  0.00    +0.260 A 
ATOM     13  N   LIG    1        5.611  10.749  -6.227  0.00  0.00    -0.470 N 
ATOM     14  H   LIG    1        5.964  11.276  -6.961  0.00  0.00    +0.440 HD
ATOM     15  N   LIG    1        5.333  11.221  -4.938  0.00  0.00    -0.290 NA
ATOM     16  C   LIG    1        4.866  10.230  -4.226  0.00  0.00    +0.260 A 
ENDBRANCH   9  11
ENDBRANCH   2   5
BRANCH   1  17
ATOM     17  C   LIG    1        1.666   4.777  -0.019  0.00  0.00    +0.150 C 
BRANCH  17  20
ATOM     18  C   LIG    1        1.833   1.447  -0.218  0.00  0.00    +0.180 A 
ATOM     19  C   LIG    1        0.725   2.299  -0.133  0.00  0.00    -0.120 A 
ATOM     20  C   LIG    1        0.562   3.752  -0.043  0.00  0.00    -0.140 A 
ATOM     21  C   LIG    1       -0.756   3.996   0.013  0.00  0.00    +0.230 A 
ATOM     22  N   LIG    1       -1.451   2.817  -0.038  0.00  0.00    -0.590 N 
ATOM     23  H   LIG    1       -2.418   2.739  -0.016  0.00  0.00    +0.420 HD
ATOM     24  C   LIG    1       -0.574   1.760  -0.122  0.00  0.00    +0.130 A 
ATOM     25  C   LIG    1       -0.743   0.380  -0.197  0.00  0.00    -0.050 A 
ATOM     26  C   LIG    1        0.356  -0.446  -0.280  0.00  0.00    +0.070 A 
ATOM     27  C   LIG    1        1.639   0.081  -0.291  0.00  0.00    -0.110 A 
BRANCH  18  29
ATOM     28  C   LIG    1        4.171   1.030  -0.317  0.00  0.00    +0.250 C 
ATOM     29  O   LIG    1        3.091   1.961  -0.228  0.00  0.00    -0.310 OA
ENDBRANCH  18  29
ENDBRANCH  17  20
ENDBRANCH   1  17
TORSDOF 5
