REMARK  Name = ZINCrD000000fuEm.0
REMARK                            x       y       z     vdW  Elec       q    Type
REMARK                         _______ _______ _______ _____ _____    ______ ____
ROOT
ATOM      1  N   LIG    1       -5.944   3.031   3.325  0.00  0.00    -0.560 N 
ATOM      2  C   LIG    1       -6.363   4.308   3.433  0.00  0.00    +0.530 C 
ATOM      3  C   LIG    1       -7.550   4.272   4.375  0.00  0.00    +0.230 C 
ATOM      4  N   LIG    1       -7.674   2.846   4.721  0.00  0.00    -0.560 N 
ATOM      5  C   LIG    1       -7.270   5.108   5.625  0.00  0.00    +0.090 C 
ATOM      6  O   LIG    1       -5.888   5.282   2.889  0.00  0.00    -0.450 OA
ATOM      7  C   LIG    1       -6.697   2.202   4.058  0.00  0.00    +0.710 C 
ATOM      8  O   LIG    1       -6.517   1.001   4.118  0.00  0.00    -0.520 OA
ENDROOT
BRANCH   4   9
ATOM      9  C   LIG    1       -8.626   2.272   5.572  0.00  0.00    +0.190 A 
ATOM     10  C   LIG    1       -9.579   3.071   6.189  0.00  0.00    -0.030 A 
ATOM     11  C   LIG    1      -10.521   2.501   7.023  0.00  0.00    +0.040 A 
ATOM     12  C   LIG    1      -10.509   1.138   7.252  0.00  0.00    -0.010 A 
ATOM     13  C   LIG    1       -9.558   0.340   6.643  0.00  0.00    +0.040 A 
ATOM     14  C   LIG    1       -8.617   0.903   5.803  0.00  0.00    +0.000 A 
ENDBRANCH   4   9
BRANCH   1  15
ATOM     15  C   LIG    1       -4.809   2.603   2.504  0.00  0.00    +0.340 C 
BRANCH  15  16
ATOM     16  C   LIG    1       -3.548   2.649   3.327  0.00  0.00    +0.420 C 
ATOM     17  O   LIG    1       -3.593   3.005   4.487  0.00  0.00    -0.460 OA
BRANCH  16  21
ATOM     18  N   LIG    1       -0.120   1.837   2.446  0.00  0.00    -0.430 N 
ATOM     19  C   LIG    1       -0.718   1.572   1.248  0.00  0.00    +0.010 A 
ATOM     20  C   LIG    1       -2.035   1.819   1.348  0.00  0.00    +0.000 A 
ATOM     21  C   LIG    1       -2.268   2.265   2.728  0.00  0.00    -0.270 A 
ATOM     22  C   LIG    1       -0.013   1.086   0.008  0.00  0.00    +0.120 C 
ATOM     23  C   LIG    1       -1.030   2.253   3.344  0.00  0.00    +0.120 A 
ATOM     24  C   LIG    1       -0.750   2.639   4.773  0.00  0.00    +0.150 C 
BRANCH  18  25
ATOM     25  C   LIG    1        1.313   1.690   2.715  0.00  0.00    +0.320 C 
BRANCH  25  27
ATOM     26  C   LIG    1        2.757   3.564   3.315  0.00  0.00    +0.050 C 
ATOM     27  C   LIG    1        2.018   2.984   2.402  0.00  0.00    -0.070 C 
ENDBRANCH  25  27
ENDBRANCH  18  25
ENDBRANCH  16  21
ENDBRANCH  15  16
ENDBRANCH   1  15
TORSDOF 6
