REMARK  Name = ZINCrg00001Jdv1l.0
REMARK                            x       y       z     vdW  Elec       q    Type
REMARK                         _______ _______ _______ _____ _____    ______ ____
ROOT
ATOM      1  C   LIG    1       -6.238   3.052   0.045  0.00  0.00    +0.330 C 
ATOM      2  C   LIG    1       -4.910   3.841   0.067  0.00  0.00    +0.000 C 
ATOM      3  C   LIG    1       -5.000   4.644  -1.252  0.00  0.00    +0.050 C 
ATOM      4  C   LIG    1       -5.928   3.825  -2.122  0.00  0.00    +0.520 C 
ATOM      5  O   LIG    1       -6.045   3.951  -3.323  0.00  0.00    -0.520 OA
ATOM      6  N   LIG    1       -6.604   2.939  -1.371  0.00  0.00    -0.600 N 
ENDROOT
BRANCH   1  10
ATOM      7  C   LIG    1       -9.390   4.534   3.650  0.00  0.00    +0.360 C 
ATOM      8  N   LIG    1       -8.674   4.444   2.375  0.00  0.00    -0.370 N 
ATOM      9  C   LIG    1       -7.709   3.552   2.067  0.00  0.00    +0.250 A 
ATOM     10  C   LIG    1       -7.304   3.803   0.801  0.00  0.00    -0.250 A 
ATOM     11  C   LIG    1       -8.053   4.879   0.315  0.00  0.00    +0.240 A 
ATOM     12  N   LIG    1       -8.875   5.264   1.258  0.00  0.00    -0.290 NA
ENDBRANCH   1  10
BRANCH   6  13
ATOM     13  C   LIG    1       -7.580   1.983  -1.900  0.00  0.00    +0.180 C 
ATOM     14  C   LIG    1       -8.943   2.234  -1.250  0.00  0.00    +0.030 C 
ATOM     15  C   LIG    1       -7.120   0.558  -1.585  0.00  0.00    +0.030 C 
ATOM     16  C   LIG    1       -7.698   2.159  -3.415  0.00  0.00    +0.060 C 
ENDBRANCH   6  13
BRANCH   2  17
ATOM     17  C   LIG    1       -3.709   2.894   0.051  0.00  0.00    +0.300 C 
BRANCH  17  18
ATOM     18  N   LIG    1       -2.471   3.675   0.044  0.00  0.00    -0.680 N 
ATOM     19  H   LIG    1       -2.509   4.645   0.049  0.00  0.00    +0.420 HD
BRANCH  18  20
ATOM     20  C   LIG    1       -1.245   3.031   0.029  0.00  0.00    +0.490 A 
ATOM     21  N   LIG    1       -1.186   1.713   0.017  0.00  0.00    -0.530 NA
ATOM     22  C   LIG    1       -0.013   1.076   0.008  0.00  0.00    +0.340 A 
ATOM     23  C   LIG    1        1.155   1.752   0.000  0.00  0.00    +0.130 A 
ATOM     24  N   LIG    1        1.153   3.119   0.007  0.00  0.00    -0.180 N 
ATOM     25  N   LIG    1        2.074   4.016   0.004  0.00  0.00    -0.100 NA
ATOM     26  N   LIG    1        1.529   5.184   0.015  0.00  0.00    -0.040 NA
ATOM     27  N   LIG    1        0.244   5.071   0.026  0.00  0.00    -0.260 NA
ATOM     28  C   LIG    1       -0.044   3.779   0.022  0.00  0.00    +0.100 A 
ENDBRANCH  18  20
ENDBRANCH  17  18
ENDBRANCH   2  17
TORSDOF 5
