REMARK  Name = ZINCpk00000e9Pgs.2
REMARK                            x       y       z     vdW  Elec       q    Type
REMARK                         _______ _______ _______ _____ _____    ______ ____
ROOT
ATOM      1  C   LIG    1        1.598   1.985  -5.133  0.00  0.00    +0.270 C 
ENDROOT
BRANCH   1   3
ATOM      2  C   LIG    1        2.278   1.827  -7.533  0.00  0.00    +0.230 C 
ATOM      3  C   LIG    1        1.138   2.189  -6.578  0.00  0.00    +0.000 C 
ATOM      4  C   LIG    1       -0.067   1.288  -6.863  0.00  0.00    +0.020 C 
ATOM      5  C   LIG    1       -0.483   1.454  -8.328  0.00  0.00    +0.020 C 
ATOM      6  C   LIG    1        0.704   1.113  -9.232  0.00  0.00    +0.170 C 
ATOM      7  N   LIG    1        1.830   2.003  -8.921  0.00  0.00    -0.540 NA
ATOM      8  C   LIG    1        2.939   1.797  -9.862  0.00  0.00    +0.190 C 
BRANCH   2  14
ATOM      9  C   LIG    1        2.324   4.923  -7.684  0.00  0.00    +0.350 C 
ATOM     10  N   LIG    1        3.465   4.072  -7.338  0.00  0.00    -0.350 N 
ATOM     11  N   LIG    1        4.756   4.514  -7.021  0.00  0.00    -0.290 NA
ATOM     12  C   LIG    1        5.497   3.466  -6.770  0.00  0.00    +0.230 A 
ATOM     13  C   LIG    1        4.702   2.324  -6.915  0.00  0.00    -0.120 A 
ATOM     14  C   LIG    1        3.459   2.724  -7.269  0.00  0.00    +0.090 A 
ENDBRANCH   2  14
ENDBRANCH   1   3
BRANCH   1  15
ATOM     15  N   LIG    1        0.549   2.440  -4.218  0.00  0.00    -0.720 N 
ATOM     16  H   LIG    1       -0.279   2.802  -4.570  0.00  0.00    +0.410 HD
ATOM     17  C   LIG    1        0.734   2.356  -2.885  0.00  0.00    +0.600 C 
ATOM     18  O   LIG    1        1.772   1.902  -2.443  0.00  0.00    -0.520 OA
BRANCH  17  19
ATOM     19  C   LIG    1       -0.324   2.815  -1.962  0.00  0.00    +0.010 A 
ATOM     20  N   LIG    1       -1.492   3.325  -2.298  0.00  0.00    -0.250 NA
ATOM     21  N   LIG    1       -2.166   3.615  -1.243  0.00  0.00    -0.360 N 
ATOM     22  H   LIG    1       -3.055   4.003  -1.242  0.00  0.00    +0.450 HD
ATOM     23  C   LIG    1       -1.456   3.303  -0.135  0.00  0.00    -0.020 A 
ATOM     24  C   LIG    1       -1.513   3.322   1.376  0.00  0.00    +0.130 C 
ATOM     25  C   LIG    1       -0.045   3.154   1.836  0.00  0.00    +0.050 C 
ATOM     26  C   LIG    1        0.581   2.414   0.633  0.00  0.00    +0.110 C 
ATOM     27  C   LIG    1       -0.278   2.791  -0.549  0.00  0.00    -0.160 A 
ENDBRANCH  17  19
ENDBRANCH   1  15
TORSDOF 4
