REMARK  Name = ZINCrg000000q9px.0
REMARK                            x       y       z     vdW  Elec       q    Type
REMARK                         _______ _______ _______ _____ _____    ______ ____
ROOT
ATOM      1  N   LIG    1        1.039   2.021  -0.177  0.00  0.00    -0.590 N 
ATOM      2  C   LIG    1       -0.061   1.270   0.028  0.00  0.00    +0.520 C 
ATOM      3  O   LIG    1        0.020   0.060   0.012  0.00  0.00    -0.530 OA
ENDROOT
BRANCH   1   4
ATOM      4  C   LIG    1        0.923   3.479  -0.269  0.00  0.00    +0.250 C 
ATOM      5  C   LIG    1        2.323   4.117  -0.304  0.00  0.00    +0.090 C 
ATOM      6  C   LIG    1        2.184   5.590  -0.739  0.00  0.00    -0.310 C 
ATOM      7  S   LIG    1        0.677   5.640  -1.775  0.00  0.00    +2.390 S 
ATOM      8  O   LIG    1        1.042   5.899  -3.124  0.00  0.00    -0.930 OA
ATOM      9  O   LIG    1       -0.304   6.447  -1.140  0.00  0.00    -0.930 OA
ATOM     10  C   LIG    1        0.221   3.874  -1.593  0.00  0.00    -0.320 C 
ENDBRANCH   1   4
BRANCH   1  11
ATOM     11  C   LIG    1        2.350   1.381  -0.308  0.00  0.00    +0.310 C 
BRANCH  11  12
ATOM     12  C   LIG    1        2.612   1.053  -1.779  0.00  0.00    +0.160 C 
BRANCH  12  14
ATOM     13  C   LIG    1        2.954   2.071  -3.922  0.00  0.00    +0.200 C 
ATOM     14  O   LIG    1        2.708   2.266  -2.528  0.00  0.00    -0.390 OA
ENDBRANCH  12  14
ENDBRANCH  11  12
ENDBRANCH   1  11
BRANCH   2  15
ATOM     15  C   LIG    1       -1.392   1.933   0.271  0.00  0.00    +0.030 C 
BRANCH  15  16
ATOM     16  C   LIG    1       -2.438   0.868   0.610  0.00  0.00    +0.300 C 
BRANCH  16  17
ATOM     17  N   LIG    1       -3.732   1.513   0.847  0.00  0.00    -0.610 N 
ATOM     18  C   LIG    1       -4.104   1.837   2.101  0.00  0.00    +0.510 C 
ATOM     19  O   LIG    1       -5.213   2.283   2.308  0.00  0.00    -0.540 OA
ATOM     20  C   LIG    1       -3.143   1.646   3.245  0.00  0.00    +0.100 C 
BRANCH  17  21
ATOM     21  C   LIG    1       -4.621   1.805  -0.280  0.00  0.00    +0.320 C 
BRANCH  21  22
ATOM     22  C   LIG    1       -5.534   0.630  -0.517  0.00  0.00    -0.110 A 
ATOM     23  C   LIG    1       -5.154  -0.377  -1.385  0.00  0.00    +0.010 A 
ATOM     24  C   LIG    1       -5.989  -1.458  -1.599  0.00  0.00    +0.000 A 
ATOM     25  C   LIG    1       -7.209  -1.526  -0.953  0.00  0.00    +0.000 A 
ATOM     26  C   LIG    1       -7.592  -0.517  -0.090  0.00  0.00    +0.000 A 
ATOM     27  C   LIG    1       -6.755   0.561   0.128  0.00  0.00    +0.040 A 
ENDBRANCH  21  22
ENDBRANCH  17  21
ENDBRANCH  16  17
ENDBRANCH  15  16
ENDBRANCH   2  15
TORSDOF 9
