REMARK  Name = ZINCpk00000e1z06.0
REMARK                            x       y       z     vdW  Elec       q    Type
REMARK                         _______ _______ _______ _____ _____    ______ ____
ROOT
ATOM      1  N   LIG    1       -0.723   3.057  -1.262  0.00  0.00    -0.520 NA
ATOM      2  C   LIG    1       -1.798   3.550  -0.436  0.00  0.00    +0.160 C 
ATOM      3  C   LIG    1       -1.327   3.938   0.981  0.00  0.00    +0.020 C 
ATOM      4  C   LIG    1       -0.317   2.918   1.547  0.00  0.00    +0.190 C 
ATOM      5  N   LIG    1       -0.681   1.555   1.248  0.00  0.00    -0.510 NA
ATOM      6  C   LIG    1        0.006   1.108   0.015  0.00  0.00    +0.190 C 
ATOM      7  C   LIG    1       -0.671   1.579  -1.191  0.00  0.00    +0.170 C 
ENDROOT
BRANCH   1   8
ATOM      8  C   LIG    1       -0.873   3.514  -2.650  0.00  0.00    +0.240 C 
BRANCH   8  14
ATOM      9  C   LIG    1        0.609   5.537  -2.712  0.00  0.00    +0.190 A 
ATOM     10  C   LIG    1        0.798   6.913  -2.770  0.00  0.00    -0.090 A 
ATOM     11  C   LIG    1       -0.289   7.756  -2.827  0.00  0.00    +0.110 A 
ATOM     12  C   LIG    1       -1.583   7.221  -2.826  0.00  0.00    -0.220 A 
ATOM     13  C   LIG    1       -1.763   5.833  -2.773  0.00  0.00    +0.120 A 
ATOM     14  C   LIG    1       -0.677   5.006  -2.712  0.00  0.00    -0.120 A 
BRANCH  12  15
ATOM     15  C   LIG    1       -2.749   8.113  -2.886  0.00  0.00    +0.400 C 
ATOM     16  O   LIG    1       -3.869   7.647  -2.886  0.00  0.00    -0.460 OA
ATOM     17  C   LIG    1       -2.553   9.606  -2.949  0.00  0.00    +0.070 C 
ENDBRANCH  12  15
BRANCH   9  19
ATOM     18  C   LIG    1        2.973   5.319  -2.661  0.00  0.00    +0.240 C 
ATOM     19  O   LIG    1        1.681   4.708  -2.657  0.00  0.00    -0.290 OA
ENDBRANCH   9  19
ENDBRANCH   8  14
ENDBRANCH   1   8
BRANCH   5  20
ATOM     20  C   LIG    1       -0.367   0.668   2.376  0.00  0.00    +0.250 C 
BRANCH  20  21
ATOM     21  C   LIG    1        1.105   0.750   2.685  0.00  0.00    +0.480 C 
ATOM     22  N   LIG    1        1.643  -0.054   3.624  0.00  0.00    -0.620 N 
ATOM     23  C   LIG    1        0.796  -1.007   4.345  0.00  0.00    +0.280 C 
ATOM     24  C   LIG    1        3.075   0.026   3.924  0.00  0.00    +0.280 C 
ATOM     25  O   LIG    1        1.807   1.539   2.089  0.00  0.00    -0.530 OA
ENDBRANCH  20  21
ENDBRANCH   5  20
TORSDOF 6
