REMARK  Name = ZINCpe000027pH9F.0
REMARK                            x       y       z     vdW  Elec       q    Type
REMARK                         _______ _______ _______ _____ _____    ______ ____
ROOT
ATOM      1  C   LIG    1        2.395   1.115  -0.119  0.00  0.00    +0.290 C 
ATOM      2  C   LIG    1        2.404   0.881   1.393  0.00  0.00    +0.050 C 
ENDROOT
BRANCH   1   3
ATOM      3  C   LIG    1        1.181   1.925  -0.494  0.00  0.00    -0.120 A 
ATOM      4  C   LIG    1       -0.084   1.395  -0.318  0.00  0.00    +0.090 A 
ATOM      5  C   LIG    1       -1.198   2.136  -0.667  0.00  0.00    +0.000 A 
ATOM      6  C   LIG    1       -1.048   3.409  -1.184  0.00  0.00    +0.120 A 
ATOM      7  C   LIG    1        0.217   3.938  -1.360  0.00  0.00    -0.670 A 
ATOM      8  C   LIG    1        1.331   3.196  -1.015  0.00  0.00    +0.140 A 
BRANCH   7   9
ATOM      9  S   LIG    1        0.409   5.559  -2.024  0.00  0.00    +2.700 S 
ATOM     10  O   LIG    1        1.678   6.025  -1.584  0.00  0.00    -0.960 OA
ATOM     11  O   LIG    1       -0.805   6.247  -1.760  0.00  0.00    -0.960 OA
BRANCH   9  12
ATOM     12  N   LIG    1        0.513   5.406  -3.669  0.00  0.00    -1.250 NA
ATOM     13  H   LIG    1        0.623   6.194  -4.224  0.00  0.00    +0.420 HD
ATOM     14  H   LIG    1        0.463   4.528  -4.079  0.00  0.00    +0.420 HD
ENDBRANCH   9  12
ENDBRANCH   7   9
ENDBRANCH   1   3
BRANCH   1  16
ATOM     15  C   LIG    1        3.284  -0.465  -1.746  0.00  0.00    +0.530 C 
ATOM     16  N   LIG    1        2.356  -0.174  -0.813  0.00  0.00    -0.610 N 
ATOM     17  C   LIG    1        1.310  -1.148  -0.492  0.00  0.00    +0.280 C 
ATOM     18  O   LIG    1        4.150   0.340  -2.012  0.00  0.00    -0.530 OA
BRANCH  15  23
ATOM     19  C   LIG    1        1.438  -3.653  -5.062  0.00  0.00    +0.560 C 
ATOM     20  N   LIG    1        2.311  -2.888  -4.376  0.00  0.00    -0.620 N 
ATOM     21  C   LIG    1        3.770  -2.880  -4.558  0.00  0.00    +0.260 C 
ATOM     22  C   LIG    1        4.353  -1.875  -3.542  0.00  0.00    +0.070 C 
ATOM     23  C   LIG    1        3.244  -1.792  -2.460  0.00  0.00    -0.020 C 
ATOM     24  C   LIG    1        1.961  -1.922  -3.319  0.00  0.00    +0.280 C 
ATOM     25  O   LIG    1        0.247  -3.577  -4.825  0.00  0.00    -0.540 OA
BRANCH  19  27
ATOM     26  C   LIG    1        1.064  -5.333  -6.772  0.00  0.00    +0.150 C 
ATOM     27  C   LIG    1        1.925  -4.579  -6.095  0.00  0.00    -0.090 C 
ENDBRANCH  19  27
ENDBRANCH  15  23
ENDBRANCH   1  16
TORSDOF 6
