REMARK  Name = ZINCqH00000671cy.0
REMARK                            x       y       z     vdW  Elec       q    Type
REMARK                         _______ _______ _______ _____ _____    ______ ____
ROOT
ATOM      1  N   LIG    1       -0.900   3.295  -1.356  0.00  0.00    -0.460 N 
ATOM      2  C   LIG    1       -1.715   3.317  -2.454  0.00  0.00    +0.190 A 
ATOM      3  N   LIG    1       -2.006   2.081  -2.745  0.00  0.00    -0.280 NA
ATOM      4  N   LIG    1       -1.431   1.286  -1.915  0.00  0.00    -0.300 NA
ATOM      5  C   LIG    1       -0.744   1.978  -1.038  0.00  0.00    +0.340 A 
ENDROOT
BRANCH   2   6
ATOM      6  C   LIG    1       -2.187   4.544  -3.191  0.00  0.00    +0.090 C 
ATOM      7  C   LIG    1       -3.694   4.571  -3.243  0.00  0.00    +0.060 C 
ATOM      8  C   LIG    1       -4.098   6.064  -2.925  0.00  0.00    +0.100 C 
ATOM      9  C   LIG    1       -2.937   6.792  -3.584  0.00  0.00    -0.080 C 
ATOM     10  C   LIG    1       -2.587   6.686  -5.047  0.00  0.00    -0.030 C 
ATOM     11  C   LIG    1       -1.326   5.809  -5.215  0.00  0.00    +0.090 C 
ATOM     12  C   LIG    1       -2.744   8.018  -4.387  0.00  0.00    +0.250 C 
ATOM     13  F   LIG    1       -3.889   8.760  -4.700  0.00  0.00    -0.160 F 
ATOM     14  F   LIG    1       -1.584   8.767  -4.165  0.00  0.00    -0.160 F 
ATOM     15  C   LIG    1       -1.726   4.497  -4.631  0.00  0.00    +0.030 C 
ENDBRANCH   2   6
BRANCH   1  17
ATOM     16  C   LIG    1        0.989   4.849  -1.354  0.00  0.00    +0.040 C 
ATOM     17  C   LIG    1       -0.317   4.447  -0.664  0.00  0.00    +0.300 C 
ENDBRANCH   1  17
BRANCH   5  18
ATOM     18  N   LIG    1        0.004   1.467   0.011  0.00  0.00    -0.460 N 
ATOM     19  C   LIG    1        1.179   0.739  -0.486  0.00  0.00    +0.240 C 
BRANCH  18  20
ATOM     20  C   LIG    1       -0.818   0.611   0.876  0.00  0.00    +0.330 C 
BRANCH  20  21
ATOM     21  C   LIG    1       -0.048   0.274   2.127  0.00  0.00    +0.020 A 
ATOM     22  N   LIG    1        0.804  -0.698   2.281  0.00  0.00    -0.350 NA
ATOM     23  O   LIG    1        1.265  -0.713   3.399  0.00  0.00    +0.100 OA
ATOM     24  C   LIG    1        0.755   0.269   4.156  0.00  0.00    -0.030 A 
ATOM     25  C   LIG    1        1.082   0.559   5.598  0.00  0.00    +0.180 C 
ATOM     26  C   LIG    1       -0.114   0.947   3.369  0.00  0.00    -0.050 A 
ENDBRANCH  20  21
ENDBRANCH  18  20
ENDBRANCH   5  18
TORSDOF 5
