REMARK  Name = ZINCpk000000o3pu.0
REMARK                            x       y       z     vdW  Elec       q    Type
REMARK                         _______ _______ _______ _____ _____    ______ ____
ROOT
ATOM      1  C   LIG    1        6.965   1.943  -2.129  0.00  0.00    +0.610 C 
ATOM      2  N   LIG    1        8.140   1.797  -1.484  0.00  0.00    -0.600 N 
ATOM      3  C   LIG    1        8.204   1.810  -0.014  0.00  0.00    +0.290 C 
ATOM      4  C   LIG    1        8.993   0.579   0.447  0.00  0.00    +0.140 C 
ATOM      5  O   LIG    1       10.245   0.538  -0.243  0.00  0.00    -0.350 OA
ATOM      6  C   LIG    1       10.127   0.398  -1.661  0.00  0.00    +0.100 C 
ATOM      7  C   LIG    1        9.335  -0.870  -1.986  0.00  0.00    +0.030 C 
ATOM      8  C   LIG    1       11.523   0.303  -2.282  0.00  0.00    +0.080 C 
ATOM      9  C   LIG    1        9.396   1.614  -2.229  0.00  0.00    +0.290 C 
ATOM     10  O   LIG    1        5.947   2.152  -1.498  0.00  0.00    -0.530 OA
ENDROOT
BRANCH   1  13
ATOM     11  N   LIG    1        6.175   1.746  -5.647  0.00  0.00    -0.350 N 
ATOM     12  C   LIG    1        5.781   1.847  -4.362  0.00  0.00    +0.310 A 
ATOM     13  C   LIG    1        6.915   1.849  -3.600  0.00  0.00    -0.100 A 
ATOM     14  N   LIG    1        7.977   1.750  -4.418  0.00  0.00    -0.210 NA
ATOM     15  N   LIG    1        7.575   1.681  -5.639  0.00  0.00    -0.050 NA
BRANCH  11  16
ATOM     16  C   LIG    1        5.305   1.706  -6.826  0.00  0.00    +0.350 C 
BRANCH  16  18
ATOM     17  C   LIG    1        7.229   2.895  -8.025  0.00  0.00    +0.090 C 
ATOM     18  C   LIG    1        5.718   2.810  -7.802  0.00  0.00    -0.150 C 
ATOM     19  C   LIG    1        4.879   2.873  -9.084  0.00  0.00    +0.240 C 
ATOM     20  O   LIG    1        4.907   4.303  -8.985  0.00  0.00    -0.360 OA
ATOM     21  C   LIG    1        5.031   4.160  -7.564  0.00  0.00    +0.210 C 
ENDBRANCH  16  18
ENDBRANCH  11  16
ENDBRANCH   1  13
BRANCH   4  22
ATOM     22  C   LIG    1        9.241   0.666   1.954  0.00  0.00    +0.470 C 
ATOM     23  F   LIG    1        9.973   1.823   2.240  0.00  0.00    -0.170 F 
ATOM     24  F   LIG    1        9.961  -0.458   2.373  0.00  0.00    -0.170 F 
ATOM     25  F   LIG    1        8.015   0.711   2.626  0.00  0.00    -0.170 F 
ENDBRANCH   4  22
TORSDOF 4
