REMARK  Name = ZINCnE000001TvM9.1
REMARK                            x       y       z     vdW  Elec       q    Type
REMARK                         _______ _______ _______ _____ _____    ______ ____
ROOT
ATOM      1  C   LIG    1        1.444   4.379   0.011  0.00  0.00    +0.320 C 
ENDROOT
BRANCH   1   2
ATOM      2  C   LIG    1        1.622   4.867  -1.404  0.00  0.00    -0.080 A 
ATOM      3  C   LIG    1        0.519   5.236  -2.151  0.00  0.00    +0.050 A 
ATOM      4  C   LIG    1        0.683   5.687  -3.448  0.00  0.00    -0.010 A 
ATOM      5  C   LIG    1        1.948   5.761  -3.999  0.00  0.00    +0.000 A 
ATOM      6  C   LIG    1        3.050   5.387  -3.253  0.00  0.00    -0.010 A 
ATOM      7  C   LIG    1        2.887   4.939  -1.955  0.00  0.00    +0.020 A 
ENDBRANCH   1   2
BRANCH   1   8
ATOM      8  N   LIG    1        0.593   3.186   0.013  0.00  0.00    -0.340 N 
ATOM      9  C   LIG    1       -0.756   3.173   0.025  0.00  0.00    +0.240 A 
ATOM     10  C   LIG    1       -1.157   1.881   0.017  0.00  0.00    -0.150 A 
ATOM     11  C   LIG    1       -0.013   1.076   0.008  0.00  0.00    +0.220 A 
ATOM     12  N   LIG    1        1.037   1.857   0.002  0.00  0.00    -0.300 NA
ENDBRANCH   1   8
BRANCH   1  14
ATOM     13  O   LIG    1        0.506   6.521   0.327  0.00  0.00    -0.590 OA
ATOM     14  C   LIG    1        0.795   5.460   0.837  0.00  0.00    +0.440 C 
ATOM     15  N   LIG    1        0.536   5.246   2.143  0.00  0.00    -0.640 NA
BRANCH  15  16
ATOM     16  C   LIG    1       -0.062   6.243   2.904  0.00  0.00    +0.340 A 
ATOM     17  N   LIG    1       -0.353   6.141   4.163  0.00  0.00    -0.550 NA
ATOM     18  C   LIG    1       -0.921   7.189   4.732  0.00  0.00    +0.130 A 
ATOM     19  C   LIG    1       -1.119   8.225   3.914  0.00  0.00    -0.230 A 
ATOM     20  S   LIG    1       -0.515   7.784   2.319  0.00  0.00    +0.030 S 
BRANCH  18  21
ATOM     21  C   LIG    1       -1.313   7.213   6.187  0.00  0.00    +0.040 C 
ATOM     22  C   LIG    1       -1.603   8.576   6.818  0.00  0.00    +0.000 C 
ATOM     23  C   LIG    1       -0.320   7.823   7.177  0.00  0.00    +0.010 C 
ENDBRANCH  18  21
ENDBRANCH  15  16
ENDBRANCH   1  14
TORSDOF 5
