REMARK  Name = ZINCqH0000007Nnu.0
REMARK                            x       y       z     vdW  Elec       q    Type
REMARK                         _______ _______ _______ _____ _____    ______ ____
ROOT
ATOM      1  C   LIG    1       -3.664   3.495   0.049  0.00  0.00    +0.440 C 
ENDROOT
BRANCH   1   5
ATOM      2  C   LIG    1       -7.051   4.638  -0.549  0.00  0.00    +0.230 A 
ATOM      3  N   LIG    1       -6.986   4.609   0.762  0.00  0.00    -0.260 NA
ATOM      4  N   LIG    1       -5.817   4.209   1.120  0.00  0.00    -0.250 NA
ATOM      5  C   LIG    1       -5.093   3.976   0.062  0.00  0.00    +0.130 A 
ATOM      6  O   LIG    1       -5.852   4.237  -1.017  0.00  0.00    -0.220 OA
BRANCH   2  12
ATOM      7  C   LIG    1       -9.411   5.427  -0.734  0.00  0.00    +0.180 A 
ATOM      8  C   LIG    1      -10.499   5.803  -1.504  0.00  0.00    -0.070 A 
ATOM      9  C   LIG    1      -10.414   5.782  -2.883  0.00  0.00    +0.090 A 
ATOM     10  C   LIG    1       -9.241   5.391  -3.505  0.00  0.00    -0.020 A 
ATOM     11  C   LIG    1       -8.146   5.018  -2.753  0.00  0.00    +0.100 A 
ATOM     12  C   LIG    1       -8.220   5.036  -1.360  0.00  0.00    -0.070 A 
BRANCH   7  14
ATOM     13  C   LIG    1      -10.742   5.852   1.188  0.00  0.00    +0.250 C 
ATOM     14  O   LIG    1       -9.496   5.442   0.621  0.00  0.00    -0.280 OA
ENDBRANCH   7  14
ENDBRANCH   2  12
ENDBRANCH   1   5
BRANCH   1  15
ATOM     15  N   LIG    1       -3.642   2.030   0.039  0.00  0.00    -0.740 N 
ATOM     16  H   LIG    1       -4.475   1.533   0.041  0.00  0.00    +0.410 HD
BRANCH  15  17
ATOM     17  C   LIG    1       -2.419   1.349   0.026  0.00  0.00    +0.240 A 
ATOM     18  C   LIG    1       -1.228   2.060   0.019  0.00  0.00    -0.030 A 
ATOM     19  C   LIG    1       -0.017   1.385   0.010  0.00  0.00    +0.110 A 
ATOM     20  C   LIG    1        0.002  -0.004   0.002  0.00  0.00    +0.010 A 
ATOM     21  O   LIG    1        1.182  -0.685  -0.006  0.00  0.00    -0.300 OA
ATOM     22  C   LIG    1        2.348   0.054  -0.387  0.00  0.00    +0.220 C 
ATOM     23  C   LIG    1        2.335   1.392   0.365  0.00  0.00    +0.230 C 
ATOM     24  C   LIG    1       -1.190  -0.713   0.004  0.00  0.00    +0.100 A 
ATOM     25  O   LIG    1        1.143   2.098   0.002  0.00  0.00    -0.300 OA
ATOM     26  C   LIG    1       -2.398  -0.040   0.016  0.00  0.00    -0.100 A 
ATOM     27 CL   LIG    1       -3.888  -0.931   0.018  0.00  0.00    -0.060 Cl
ENDBRANCH  15  17
ENDBRANCH   1  15
TORSDOF 5
