REMARK  Name = ZINCpk000000mSnB.0
REMARK                            x       y       z     vdW  Elec       q    Type
REMARK                         _______ _______ _______ _____ _____    ______ ____
ROOT
ATOM      1  C   LIG    1        2.836  -3.195   1.871  0.00  0.00    +0.220 C 
ATOM      2  C   LIG    1        2.046  -2.277   2.809  0.00  0.00    +0.040 C 
ATOM      3  C   LIG    1        2.173  -2.791   4.245  0.00  0.00    +0.020 C 
ATOM      4  C   LIG    1        3.643  -2.772   4.671  0.00  0.00    +0.010 C 
ATOM      5  C   LIG    1        4.448  -3.698   3.754  0.00  0.00    +0.270 C 
ATOM      6  N   LIG    1        4.219  -3.297   2.359  0.00  0.00    -0.600 N 
ATOM      7  C   LIG    1        5.256  -3.029   1.542  0.00  0.00    +0.560 C 
ATOM      8  O   LIG    1        5.055  -2.572   0.434  0.00  0.00    -0.490 OA
ENDROOT
BRANCH   7   9
ATOM      9  C   LIG    1        6.640  -3.289   1.994  0.00  0.00    -0.120 A 
ATOM     10  C   LIG    1        7.296  -4.458   1.605  0.00  0.00    +0.040 A 
ATOM     11  C   LIG    1        8.588  -4.693   2.026  0.00  0.00    +0.010 A 
ATOM     12  C   LIG    1        9.230  -3.778   2.842  0.00  0.00    +0.030 A 
ATOM     13  C   LIG    1        8.584  -2.620   3.236  0.00  0.00    +0.010 A 
ATOM     14  C   LIG    1        7.293  -2.371   2.817  0.00  0.00    +0.040 A 
ENDBRANCH   7   9
BRANCH   1  17
ATOM     15  N   LIG    1        2.663  -3.429  -0.586  0.00  0.00    -0.720 N 
ATOM     16  H   LIG    1        2.543  -4.382  -0.455  0.00  0.00    +0.400 HD
ATOM     17  C   LIG    1        2.833  -2.619   0.478  0.00  0.00    +0.540 C 
ATOM     18  O   LIG    1        2.984  -1.427   0.315  0.00  0.00    -0.520 OA
BRANCH  15  24
ATOM     19  C   LIG    1        4.362  -2.580  -6.414  0.00  0.00    +0.110 C 
ATOM     20  C   LIG    1        4.729  -2.511  -4.954  0.00  0.00    +0.530 C 
ATOM     21  N   LIG    1        3.851  -2.924  -4.018  0.00  0.00    -0.620 N 
ATOM     22  C   LIG    1        2.508  -3.462  -4.281  0.00  0.00    +0.240 C 
ATOM     23  C   LIG    1        1.863  -3.775  -2.914  0.00  0.00    +0.030 C 
ATOM     24  C   LIG    1        2.660  -2.868  -1.939  0.00  0.00    +0.240 C 
ATOM     25  C   LIG    1        4.078  -2.912  -2.562  0.00  0.00    +0.260 C 
ATOM     26  O   LIG    1        5.813  -2.083  -4.620  0.00  0.00    -0.540 OA
ENDBRANCH  15  24
ENDBRANCH   1  17
TORSDOF 3
