REMARK  Name = ZINCrD000000CIIY.0
REMARK                            x       y       z     vdW  Elec       q    Type
REMARK                         _______ _______ _______ _____ _____    ______ ____
ROOT
ATOM      1  O   LIG    1        4.583  -5.874   4.200  0.00  0.00    -0.530 OA
ATOM      2  C   LIG    1        4.122  -6.588   3.330  0.00  0.00    +0.580 C 
ATOM      3  N   LIG    1        3.706  -6.050   2.167  0.00  0.00    -0.610 N 
ATOM      4  C   LIG    1        3.261  -6.905   1.056  0.00  0.00    +0.290 C 
ATOM      5  C   LIG    1        4.010  -6.483  -0.213  0.00  0.00    +0.170 C 
ATOM      6  N   LIG    1        3.829  -5.042  -0.428  0.00  0.00    -0.530 NA
ATOM      7  C   LIG    1        4.415  -4.261   0.670  0.00  0.00    +0.170 C 
ATOM      8  C   LIG    1        3.683  -4.592   1.975  0.00  0.00    +0.300 C 
ENDROOT
BRANCH   2   9
ATOM      9  C   LIG    1        4.020  -8.040   3.548  0.00  0.00    -0.140 A 
ATOM     10  C   LIG    1        2.929  -8.768   3.203  0.00  0.00    -0.050 A 
ATOM     11  S   LIG    1        3.149 -10.411   3.591  0.00  0.00    +0.190 S 
ATOM     12  C   LIG    1        4.752 -10.125   4.248  0.00  0.00    -0.200 A 
ATOM     13  C   LIG    1        5.653 -11.190   4.840  0.00  0.00    +0.110 C 
ATOM     14  C   LIG    1        7.081 -10.641   4.913  0.00  0.00    +0.020 C 
ATOM     15  C   LIG    1        7.053  -9.265   5.585  0.00  0.00    +0.020 C 
ATOM     16  C   LIG    1        6.398  -8.256   4.639  0.00  0.00    +0.100 C 
ATOM     17  C   LIG    1        5.074  -8.827   4.156  0.00  0.00    -0.060 A 
ENDBRANCH   2   9
BRANCH   6  18
ATOM     18  C   LIG    1        4.386  -4.629  -1.723  0.00  0.00    +0.240 C 
BRANCH  18  19
ATOM     19  C   LIG    1        3.970  -3.211  -2.019  0.00  0.00    -0.070 A 
ATOM     20  C   LIG    1        2.796  -2.965  -2.706  0.00  0.00    +0.060 A 
ATOM     21  C   LIG    1        2.411  -1.666  -2.980  0.00  0.00    +0.040 A 
ATOM     22  C   LIG    1        3.201  -0.607  -2.567  0.00  0.00    +0.030 A 
ATOM     23  O   LIG    1        3.052   0.743  -2.707  0.00  0.00    -0.310 OA
ATOM     24  C   LIG    1        3.943   1.331  -1.741  0.00  0.00    +0.430 C 
ATOM     25  O   LIG    1        4.976   0.341  -1.581  0.00  0.00    -0.310 OA
ATOM     26  C   LIG    1        4.385  -0.854  -1.874  0.00  0.00    +0.030 A 
ATOM     27  C   LIG    1        4.764  -2.158  -1.603  0.00  0.00    +0.030 A 
ENDBRANCH  18  19
ENDBRANCH   6  18
TORSDOF 3
