REMARK  Name = ZINCvU0000000AT1.0
REMARK                            x       y       z     vdW  Elec       q    Type
REMARK                         _______ _______ _______ _____ _____    ______ ____
ROOT
ATOM      1  C   LIG    1       -4.418  -5.761   1.430  0.00  0.00    +0.160 A 
ATOM      2  N   LIG    1       -4.697  -6.285   0.258  0.00  0.00    -0.280 NA
ATOM      3  N   LIG    1       -5.258  -7.432   0.408  0.00  0.00    -0.250 NA
ATOM      4  C   LIG    1       -5.380  -7.707   1.689  0.00  0.00    +0.270 A 
ATOM      5  N   LIG    1       -4.845  -6.644   2.382  0.00  0.00    -0.450 N 
ENDROOT
BRANCH   4   6
ATOM      6  C   LIG    1       -5.976  -8.920   2.270  0.00  0.00    +0.040 A 
ATOM      7  C   LIG    1       -6.756  -9.823   1.612  0.00  0.00    +0.030 A 
ATOM      8  C   LIG    1       -7.100 -10.818   2.546  0.00  0.00    -0.050 A 
ATOM      9  C   LIG    1       -6.529 -10.476   3.718  0.00  0.00    +0.190 A 
ATOM     10  O   LIG    1       -5.850  -9.329   3.548  0.00  0.00    -0.180 OA
ENDBRANCH   4   6
BRANCH   1  11
ATOM     11  S   LIG    1       -3.643  -4.205   1.720  0.00  0.00    +0.050 S 
BRANCH  11  12
ATOM     12  C   LIG    1       -3.390  -3.657   0.014  0.00  0.00    +0.240 C 
BRANCH  12  15
ATOM     13  C   LIG    1       -1.265  -0.764   0.010  0.00  0.00    +0.220 A 
ATOM     14  N   LIG    1       -1.398  -2.078   0.004  0.00  0.00    -0.440 NA
ATOM     15  C   LIG    1       -2.720  -2.307   0.015  0.00  0.00    +0.180 A 
ATOM     16  N   LIG    1       -3.319  -1.153   0.026  0.00  0.00    -0.360 NA
ATOM     17  O   LIG    1       -2.506  -0.253   0.029  0.00  0.00    +0.100 OA
BRANCH  13  24
ATOM     18 CL   LIG    1        1.261  -2.415  -0.024  0.00  0.00    -0.020 Cl
ATOM     19  C   LIG    1        1.225  -0.680  -0.013  0.00  0.00    +0.010 A 
ATOM     20  C   LIG    1        2.405   0.037  -0.021  0.00  0.00    +0.030 A 
ATOM     21  C   LIG    1        2.378   1.420  -0.013  0.00  0.00    +0.060 A 
ATOM     22  C   LIG    1        1.170   2.095   0.002  0.00  0.00    +0.020 A 
ATOM     23  C   LIG    1       -0.017   1.391   0.010  0.00  0.00    +0.080 A 
ATOM     24  C   LIG    1        0.002  -0.004   0.002  0.00  0.00    -0.030 A 
ENDBRANCH  13  24
ENDBRANCH  12  15
ENDBRANCH  11  12
ENDBRANCH   1  11
BRANCH   5  25
ATOM     25  C   LIG    1       -4.753  -6.491   3.836  0.00  0.00    +0.380 C 
BRANCH  25  26
ATOM     26  C   LIG    1       -5.993  -5.807   4.349  0.00  0.00    -0.130 A 
ATOM     27  C   LIG    1       -6.033  -4.428   4.445  0.00  0.00    +0.040 A 
ATOM     28  C   LIG    1       -7.173  -3.800   4.911  0.00  0.00    +0.010 A 
ATOM     29  C   LIG    1       -8.269  -4.552   5.291  0.00  0.00    +0.030 A 
ATOM     30  C   LIG    1       -8.228  -5.930   5.201  0.00  0.00    +0.010 A 
ATOM     31  C   LIG    1       -7.090  -6.558   4.730  0.00  0.00    +0.030 A 
ENDBRANCH  25  26
ENDBRANCH   5  25
TORSDOF 7
