REMARK  Name = ZINCrg00000fSimS.0
REMARK                            x       y       z     vdW  Elec       q    Type
REMARK                         _______ _______ _______ _____ _____    ______ ____
ROOT
ATOM      1  C   LIG    1        6.361  -0.576   1.374  0.00  0.00    +0.450 C 
ATOM      2  O   LIG    1        5.589  -1.505   1.331  0.00  0.00    -0.490 OA
ENDROOT
BRANCH   1   3
ATOM      3  O   LIG    1        7.682  -0.803   1.439  0.00  0.00    -0.330 OA
BRANCH   3   4
ATOM      4  C   LIG    1        8.112  -2.190   1.452  0.00  0.00    +0.260 C 
BRANCH   4   7
ATOM      5  N   LIG    1       10.244  -3.441   1.552  0.00  0.00    -0.720 N 
ATOM      6  H   LIG    1        9.727  -4.261   1.521  0.00  0.00    +0.400 HD
ATOM      7  C   LIG    1        9.616  -2.248   1.527  0.00  0.00    +0.520 C 
ATOM      8  O   LIG    1       10.262  -1.222   1.565  0.00  0.00    -0.510 OA
BRANCH   5   9
ATOM      9  C   LIG    1       11.706  -3.498   1.624  0.00  0.00    +0.320 C 
BRANCH   9  14
ATOM     10  C   LIG    1       13.420  -9.016   1.679  0.00  0.00    +0.090 C 
ATOM     11  C   LIG    1       12.973  -7.577   1.664  0.00  0.00    -0.070 A 
ATOM     12  C   LIG    1       12.827  -6.910   0.462  0.00  0.00    +0.010 A 
ATOM     13  C   LIG    1       12.417  -5.590   0.449  0.00  0.00    +0.030 A 
ATOM     14  C   LIG    1       12.153  -4.937   1.638  0.00  0.00    -0.120 A 
ATOM     15  C   LIG    1       12.304  -5.602   2.841  0.00  0.00    +0.040 A 
ATOM     16  C   LIG    1       12.708  -6.923   2.853  0.00  0.00    +0.010 A 
ENDBRANCH   9  14
ENDBRANCH   5   9
ENDBRANCH   4   7
ENDBRANCH   3   4
ENDBRANCH   1   3
BRANCH   1  17
ATOM     17  C   LIG    1        5.839   0.838   1.356  0.00  0.00    +0.420 C 
BRANCH  17  18
ATOM     18  N   LIG    1        4.376   0.818   1.283  0.00  0.00    -0.570 N 
ATOM     19  C   LIG    1        3.568   0.801   2.353  0.00  0.00    +0.710 C 
ATOM     20  N   LIG    1        2.263   0.786   2.010  0.00  0.00    -0.710 N 
ATOM     21  H   LIG    1        1.502   0.772   2.611  0.00  0.00    +0.440 HD
ATOM     22  C   LIG    1        2.230   0.793   0.551  0.00  0.00    +0.110 C 
ATOM     23  C   LIG    1        1.455   1.999  -0.001  0.00  0.00    +0.050 C 
ATOM     24  C   LIG    1       -0.019   1.536   0.011  0.00  0.00    +0.030 C 
ATOM     25  C   LIG    1        0.002  -0.004   0.002  0.00  0.00    +0.030 C 
ATOM     26  C   LIG    1        1.488  -0.427  -0.014  0.00  0.00    +0.050 C 
ATOM     27  O   LIG    1        3.966   0.800   3.501  0.00  0.00    -0.530 OA
ATOM     28  C   LIG    1        3.672   0.815   0.129  0.00  0.00    +0.540 C 
ATOM     29  O   LIG    1        4.110   0.827  -1.002  0.00  0.00    -0.450 OA
ENDBRANCH  17  18
ENDBRANCH   1  17
TORSDOF 7
