REMARK  Name = ZINCvU0000000IUW.0
REMARK                            x       y       z     vdW  Elec       q    Type
REMARK                         _______ _______ _______ _____ _____    ______ ____
ROOT
ATOM      1  C   LIG    1        3.052  12.002   2.038  0.00  0.00    +0.110 A 
ATOM      2  C   LIG    1        3.618  10.871   1.474  0.00  0.00    -0.020 A 
ATOM      3  C   LIG    1        2.868  10.070   0.632  0.00  0.00    -0.090 A 
ATOM      4  C   LIG    1        1.556  10.397   0.348  0.00  0.00    +0.020 A 
ATOM      5  C   LIG    1        0.983  11.522   0.913  0.00  0.00    -0.030 A 
ATOM      6  C   LIG    1        1.729  12.330   1.757  0.00  0.00    +0.100 A 
ENDROOT
BRANCH   1   8
ATOM      7  C   LIG    1        5.138  12.394   3.111  0.00  0.00    +0.240 C 
ATOM      8  O   LIG    1        3.788  12.792   2.866  0.00  0.00    -0.300 OA
ENDBRANCH   1   8
BRANCH   3   9
ATOM      9  C   LIG    1        3.486   8.839   0.019  0.00  0.00    +0.290 C 
ATOM     10  C   LIG    1        3.906   9.143  -1.420  0.00  0.00    +0.040 C 
BRANCH   9  11
ATOM     11  N   LIG    1        2.507   7.749   0.022  0.00  0.00    -0.720 N 
ATOM     12  H   LIG    1        1.558   7.949   0.032  0.00  0.00    +0.400 HD
ATOM     13  C   LIG    1        2.926   6.468   0.011  0.00  0.00    +0.590 C 
ATOM     14  O   LIG    1        4.116   6.217  -0.002  0.00  0.00    -0.520 OA
BRANCH  13  15
ATOM     15  C   LIG    1        1.944   5.374   0.014  0.00  0.00    -0.230 A 
ATOM     16  C   LIG    1        2.255   4.074   0.003  0.00  0.00    +0.130 A 
ATOM     17  C   LIG    1        1.165   3.190   0.009  0.00  0.00    -0.120 A 
ATOM     18  C   LIG    1        1.169   1.773   0.000  0.00  0.00    +0.150 A 
ATOM     19  C   LIG    1       -0.013   1.076   0.008  0.00  0.00    -0.010 A 
ATOM     20  C   LIG    1       -1.228   1.748   0.017  0.00  0.00    +0.090 A 
ATOM     21  C   LIG    1       -1.258   3.122   0.031  0.00  0.00    +0.040 A 
ATOM     22  F   LIG    1        2.344   1.105  -0.014  0.00  0.00    -0.130 F 
ATOM     23  C   LIG    1       -0.067   3.856   0.024  0.00  0.00    -0.100 A 
ATOM     24  S   LIG    1        0.204   5.595   0.031  0.00  0.00    +0.140 S 
ENDBRANCH  13  15
ENDBRANCH   9  11
ENDBRANCH   3   9
BRANCH   6  25
ATOM     25  O   LIG    1        1.168  13.439   2.309  0.00  0.00    -0.300 OA
BRANCH  25  26
ATOM     26  C   LIG    1       -0.194  13.712   1.975  0.00  0.00    +0.260 C 
BRANCH  26  27
ATOM     27  C   LIG    1       -0.639  14.971   2.675  0.00  0.00    -0.050 A 
ATOM     28  C   LIG    1       -1.213  14.917   3.936  0.00  0.00    -0.010 A 
ATOM     29  C   LIG    1       -1.606  16.092   4.548  0.00  0.00    +0.260 A 
ATOM     30  N   LIG    1       -1.449  17.253   3.942  0.00  0.00    -0.480 NA
ATOM     31  C   LIG    1       -0.911  17.342   2.741  0.00  0.00    +0.260 A 
ATOM     32  C   LIG    1       -0.491  16.209   2.070  0.00  0.00    -0.010 A 
ENDBRANCH  26  27
ENDBRANCH  25  26
ENDBRANCH   6  25
TORSDOF 7
