REMARK  Name = ZINCpk00000xIf56.0
REMARK                            x       y       z     vdW  Elec       q    Type
REMARK                         _______ _______ _______ _____ _____    ______ ____
ROOT
ATOM      1  N   LIG    1        0.044  -0.728   3.458  0.00  0.00    -0.110 NA
ATOM      2  N   LIG    1        0.025  -0.075   2.404  0.00  0.00    -0.220 NA
ENDROOT
BRANCH   2   3
ATOM      3  C   LIG    1        0.023  -0.726   1.194  0.00  0.00    +0.400 A 
ATOM      4  N   LIG    1        0.041  -2.059   1.141  0.00  0.00    -0.530 NA
ATOM      5  C   LIG    1        0.039  -2.690  -0.014  0.00  0.00    +0.610 A 
ATOM      6  N   LIG    1        0.019  -2.043  -1.163  0.00  0.00    -0.550 NA
ATOM      7  C   LIG    1       -0.005  -0.715  -1.200  0.00  0.00    +0.500 A 
ATOM      8  C   LIG    1        0.002  -0.004   0.002  0.00  0.00    -0.170 A 
BRANCH   7   9
ATOM      9  N   LIG    1       -0.032  -0.045  -2.412  0.00  0.00    -0.810 N 
ATOM     10  H   LIG    1       -0.037  -0.546  -3.243  0.00  0.00    +0.430 HD
ATOM     11  H   LIG    1       -0.046   0.925  -2.431  0.00  0.00    +0.420 HD
ENDBRANCH   7   9
BRANCH   8  12
ATOM     12  N   LIG    1       -0.018   1.476   0.010  0.00  0.00    +0.030 N 
ATOM     13  O   LIG    1       -1.081   2.071   0.018  0.00  0.00    -0.130 OA
ATOM     14  O   LIG    1        1.028   2.099   0.004  0.00  0.00    -0.130 OA
ENDBRANCH   8  12
ENDBRANCH   2   3
BRANCH   1  15
ATOM     15  C   LIG    1        0.046  -0.034   4.748  0.00  0.00    +0.280 C 
BRANCH  15  18
ATOM     16  C   LIG    1       -2.230  -1.906   7.114  0.00  0.00    +0.150 A 
ATOM     17  C   LIG    1       -1.112  -1.530   6.386  0.00  0.00    -0.060 A 
ATOM     18  C   LIG    1       -1.171  -0.439   5.539  0.00  0.00    -0.010 A 
ATOM     19  C   LIG    1       -2.343   0.285   5.419  0.00  0.00    -0.080 A 
ATOM     20  C   LIG    1       -3.467  -0.088   6.140  0.00  0.00    +0.150 A 
ATOM     21  C   LIG    1       -3.412  -1.184   6.992  0.00  0.00    +0.040 A 
BRANCH  16  23
ATOM     22  C   LIG    1       -0.924  -3.673   8.023  0.00  0.00    +0.240 C 
ATOM     23  O   LIG    1       -2.171  -2.979   7.947  0.00  0.00    -0.300 OA
ENDBRANCH  16  23
BRANCH  20  24
ATOM     24  O   LIG    1       -4.621   0.621   6.017  0.00  0.00    -0.300 OA
ATOM     25  C   LIG    1       -4.605   1.736   5.122  0.00  0.00    +0.250 C 
ENDBRANCH  20  24
BRANCH  21  26
ATOM     26  O   LIG    1       -4.511  -1.550   7.706  0.00  0.00    -0.310 OA
ATOM     27  C   LIG    1       -4.670  -0.964   8.999  0.00  0.00    +0.230 C 
ENDBRANCH  21  26
ENDBRANCH  15  18
ENDBRANCH   1  15
TORSDOF 8
