REMARK  Name = ZINCqH0000032t7f.1
REMARK                            x       y       z     vdW  Elec       q    Type
REMARK                         _______ _______ _______ _____ _____    ______ ____
ROOT
ATOM      1  C   LIG    1       -0.022   1.760   0.012  0.00  0.00    +0.050 A 
ATOM      2  N   LIG    1        1.216   2.173   0.002  0.00  0.00    -0.220 NA
ATOM      3  N   LIG    1        2.105   1.277  -0.011  0.00  0.00    -0.260 NA
ATOM      4  C   LIG    1        1.714   0.036  -0.014  0.00  0.00    +0.220 A 
ATOM      5  S   LIG    1        0.002  -0.004   0.002  0.00  0.00    +0.130 S 
ENDROOT
BRANCH   1   9
ATOM      6  C   LIG    1       -3.485   4.219   0.043  0.00  0.00    -0.050 A 
ATOM      7  C   LIG    1       -2.228   4.799   0.039  0.00  0.00    +0.010 A 
ATOM      8  C   LIG    1       -1.100   4.005   0.029  0.00  0.00    +0.070 A 
ATOM      9  C   LIG    1       -1.227   2.616   0.022  0.00  0.00    -0.030 A 
ATOM     10  C   LIG    1       -2.497   2.038   0.020  0.00  0.00    +0.030 A 
ATOM     11  C   LIG    1       -3.618   2.842   0.035  0.00  0.00    +0.020 A 
BRANCH   6  13
ATOM     12  C   LIG    1       -5.553   4.806  -1.192  0.00  0.00    +0.030 C 
ATOM     13  C   LIG    1       -4.713   5.092   0.054  0.00  0.00    +0.020 C 
ATOM     14  C   LIG    1       -5.540   4.792   1.306  0.00  0.00    +0.030 C 
ENDBRANCH   6  13
ENDBRANCH   1   9
BRANCH   4  15
ATOM     15  N   LIG    1        2.549  -1.074  -0.029  0.00  0.00    -0.630 N 
ATOM     16  H   LIG    1        2.169  -1.966  -0.030  0.00  0.00    +0.430 HD
ATOM     17  C   LIG    1        3.887  -0.911  -0.040  0.00  0.00    +0.520 C 
ATOM     18  O   LIG    1        4.362   0.204  -0.038  0.00  0.00    -0.460 OA
BRANCH  17  19
ATOM     19  C   LIG    1        4.792  -2.116  -0.056  0.00  0.00    +0.010 C 
ATOM     20  C   LIG    1        6.253  -1.657  -0.066  0.00  0.00    +0.070 C 
ATOM     21  C   LIG    1        7.170  -2.857  -0.327  0.00  0.00    +0.290 C 
ATOM     22  N   LIG    1        6.814  -3.932   0.601  0.00  0.00    -0.460 N 
ATOM     23  C   LIG    1        7.534  -5.015   0.942  0.00  0.00    +0.400 A 
ATOM     24  N   LIG    1        6.846  -5.718   1.804  0.00  0.00    -0.490 NA
ATOM     25  C   LIG    1        5.670  -5.108   2.037  0.00  0.00    +0.160 A 
ATOM     26  C   LIG    1        5.632  -3.995   1.295  0.00  0.00    -0.030 A 
ATOM     27  C   LIG    1        4.535  -2.966   1.196  0.00  0.00    +0.140 C 
ENDBRANCH  17  19
ENDBRANCH   4  15
TORSDOF 4
