REMARK  Name = ZINCkj00000y7DpQ.2
REMARK                            x       y       z     vdW  Elec       q    Type
REMARK                         _______ _______ _______ _____ _____    ______ ____
ROOT
ATOM      1  C   LIG    1        0.002  -0.004   0.002  0.00  0.00    +0.180 C 
ATOM      2  C   LIG    1       -0.019   1.538   0.011  0.00  0.00    +0.010 C 
ATOM      3  C   LIG    1        1.477   1.939  -0.002  0.00  0.00    +0.060 C 
ATOM      4  C   LIG    1        2.107   0.881  -0.942  0.00  0.00    +0.050 C 
ATOM      5  C   LIG    1        1.353  -0.422  -0.604  0.00  0.00    +0.180 C 
ENDROOT
BRANCH   5   6
ATOM      6  N   LIG    1        1.136  -1.209  -1.825  0.00  0.00    -0.370 N 
ATOM      7  C   LIG    1        2.434  -1.632  -2.381  0.00  0.00    +0.250 C 
ATOM      8  C   LIG    1        2.432  -3.174  -2.426  0.00  0.00    +0.040 C 
ATOM      9  C   LIG    1        0.920  -3.522  -2.425  0.00  0.00    +0.170 C 
ATOM     10  C   LIG    1        0.348  -2.418  -1.504  0.00  0.00    +0.300 C 
ATOM     11  H   LIG    1        0.640  -0.652  -2.505  0.00  0.00    +0.420 HD
BRANCH   9  12
ATOM     12  O   LIG    1        0.693  -4.819  -1.871  0.00  0.00    -0.540 OA
ATOM     13  H   LIG    1        1.117  -5.536  -2.362  0.00  0.00    +0.400 HD
ENDBRANCH   9  12
ENDBRANCH   5   6
BRANCH   1  14
ATOM     14  N   LIG    1       -1.100  -0.518  -0.822  0.00  0.00    -0.700 NA
ATOM     15  H   LIG    1       -1.246   0.063  -1.634  0.00  0.00    +0.350 HD
BRANCH  14  16
ATOM     16  C   LIG    1       -2.334  -0.639  -0.034  0.00  0.00    +0.300 C 
BRANCH  16  23
ATOM     17  C   LIG    1       -4.441   1.069  -1.814  0.00  0.00    +0.160 C 
ATOM     18  C   LIG    1       -4.362  -0.431  -1.688  0.00  0.00    +0.030 A 
ATOM     19  N   LIG    1       -5.127  -1.304  -2.278  0.00  0.00    -0.360 NA
ATOM     20  O   LIG    1       -4.823  -2.436  -1.978  0.00  0.00    +0.100 OA
ATOM     21  C   LIG    1       -3.784  -2.459  -1.131  0.00  0.00    +0.000 A 
ATOM     22  C   LIG    1       -3.129  -3.681  -0.541  0.00  0.00    +0.190 C 
ATOM     23  C   LIG    1       -3.440  -1.168  -0.911  0.00  0.00    -0.230 A 
ENDBRANCH  16  23
ENDBRANCH  14  16
ENDBRANCH   1  14
TORSDOF 5
