REMARK  Name = ZINCkj00000y7DpQ.0
REMARK                            x       y       z     vdW  Elec       q    Type
REMARK                         _______ _______ _______ _____ _____    ______ ____
ROOT
ATOM      1  C   LIG    1       -2.787  -2.080  -1.364  0.00  0.00    +0.180 C 
ATOM      2  C   LIG    1       -2.317  -3.400  -0.718  0.00  0.00    +0.040 C 
ATOM      3  C   LIG    1       -3.018  -4.501  -1.550  0.00  0.00    +0.060 C 
ATOM      4  C   LIG    1       -2.958  -3.933  -2.990  0.00  0.00    +0.010 C 
ATOM      5  C   LIG    1       -3.194  -2.419  -2.808  0.00  0.00    +0.180 C 
ENDROOT
BRANCH   5   6
ATOM      6  N   LIG    1       -2.364  -1.663  -3.756  0.00  0.00    -0.540 NA
ATOM      7  C   LIG    1       -0.973  -2.151  -3.746  0.00  0.00    +0.150 C 
ATOM      8  C   LIG    1       -0.622  -2.563  -5.191  0.00  0.00    +0.010 C 
ATOM      9  C   LIG    1       -1.639  -1.756  -6.041  0.00  0.00    +0.180 C 
ATOM     10  C   LIG    1       -2.893  -1.777  -5.132  0.00  0.00    +0.230 C 
BRANCH   9  11
ATOM     11  O   LIG    1       -1.898  -2.409  -7.285  0.00  0.00    -0.560 OA
ATOM     12  H   LIG    1       -1.118  -2.505  -7.848  0.00  0.00    +0.390 HD
ENDBRANCH   9  11
ENDBRANCH   5   6
BRANCH   1  13
ATOM     13  N   LIG    1       -1.690  -1.103  -1.367  0.00  0.00    -0.500 N 
ATOM     14  H   LIG    1       -0.876  -1.512  -1.801  0.00  0.00    +0.420 HD
ATOM     15  H   LIG    1       -1.971  -0.283  -1.884  0.00  0.00    +0.430 HD
BRANCH  13  16
ATOM     16  C   LIG    1       -1.369  -0.723   0.016  0.00  0.00    +0.360 C 
BRANCH  16  23
ATOM     17  C   LIG    1        1.818  -1.318   0.142  0.00  0.00    +0.170 C 
ATOM     18  C   LIG    1        1.146   0.029   0.067  0.00  0.00    +0.040 A 
ATOM     19  N   LIG    1        1.731   1.191   0.041  0.00  0.00    -0.340 NA
ATOM     20  O   LIG    1        0.927   2.093  -0.020  0.00  0.00    +0.120 OA
ATOM     21  C   LIG    1       -0.331   1.630  -0.043  0.00  0.00    +0.040 A 
ATOM     22  C   LIG    1       -1.592   2.451  -0.121  0.00  0.00    +0.200 C 
ATOM     23  C   LIG    1       -0.244   0.280   0.013  0.00  0.00    -0.290 A 
ENDBRANCH  16  23
ENDBRANCH  13  16
ENDBRANCH   1  13
TORSDOF 5
