REMARK  Name = ZINCkj00000y7DpQ.1
REMARK                            x       y       z     vdW  Elec       q    Type
REMARK                         _______ _______ _______ _____ _____    ______ ____
ROOT
ATOM      1  C   LIG    1       -0.786   1.609   1.236  0.00  0.00    +0.180 C 
ATOM      2  C   LIG    1       -0.013   1.086   0.008  0.00  0.00    +0.010 C 
ATOM      3  C   LIG    1       -0.812   1.624  -1.205  0.00  0.00    +0.060 C 
ATOM      4  C   LIG    1       -1.243   3.034  -0.731  0.00  0.00    +0.050 C 
ATOM      5  C   LIG    1       -1.571   2.847   0.764  0.00  0.00    +0.170 C 
ENDROOT
BRANCH   5   6
ATOM      6  N   LIG    1       -1.145   4.030   1.525  0.00  0.00    -0.370 N 
ATOM      7  C   LIG    1       -1.450   3.837   2.958  0.00  0.00    +0.290 C 
ATOM      8  C   LIG    1       -1.865   5.239   3.467  0.00  0.00    +0.030 C 
ATOM      9  C   LIG    1       -2.648   5.796   2.249  0.00  0.00    +0.180 C 
ATOM     10  C   LIG    1       -1.876   5.218   1.045  0.00  0.00    +0.270 C 
ATOM     11  H   LIG    1       -0.153   4.171   1.407  0.00  0.00    +0.420 HD
BRANCH   9  12
ATOM     12  O   LIG    1       -2.615   7.224   2.232  0.00  0.00    -0.550 OA
ATOM     13  H   LIG    1       -3.087   7.638   2.969  0.00  0.00    +0.400 HD
ENDBRANCH   9  12
ENDBRANCH   5   6
BRANCH   1  14
ATOM     14  N   LIG    1        0.155   1.981   2.302  0.00  0.00    -0.700 NA
ATOM     15  H   LIG    1        0.986   2.405   1.918  0.00  0.00    +0.350 HD
BRANCH  14  16
ATOM     16  C   LIG    1        0.493   0.820   3.135  0.00  0.00    +0.300 C 
BRANCH  16  23
ATOM     17  C   LIG    1       -0.211   1.913   6.108  0.00  0.00    +0.160 C 
ATOM     18  C   LIG    1        1.159   1.716   5.511  0.00  0.00    +0.030 A 
ATOM     19  N   LIG    1        2.302   1.952   6.088  0.00  0.00    -0.360 NA
ATOM     20  O   LIG    1        3.231   1.698   5.357  0.00  0.00    +0.110 OA
ATOM     21  C   LIG    1        2.812   1.242   4.168  0.00  0.00    -0.010 A 
ATOM     22  C   LIG    1        3.675   0.819   3.008  0.00  0.00    +0.190 C 
ATOM     23  C   LIG    1        1.458   1.240   4.214  0.00  0.00    -0.220 A 
ENDBRANCH  16  23
ENDBRANCH  14  16
ENDBRANCH   1  14
TORSDOF 5
