REMARK  Name = ZINCpk00000xIdgS.0
REMARK                            x       y       z     vdW  Elec       q    Type
REMARK                         _______ _______ _______ _____ _____    ______ ____
ROOT
ATOM      1  C   LIG    1       -0.016   1.356   0.009  0.00  0.00    +0.110 A 
ATOM      2  C   LIG    1       -1.220   2.034   0.019  0.00  0.00    -0.030 A 
ATOM      3  C   LIG    1       -1.250   3.424   0.030  0.00  0.00    -0.060 A 
ATOM      4  C   LIG    1       -0.069   4.130   0.029  0.00  0.00    -0.090 A 
ATOM      5  C   LIG    1       -0.030   5.638   0.054  0.00  0.00    +0.350 C 
ATOM      6  N   LIG    1       -1.374   6.171  -0.194  0.00  0.00    -1.010 NA
ATOM      7  C   LIG    1       -2.495   5.535   0.517  0.00  0.00    +0.300 C 
ATOM      8  C   LIG    1        1.144   3.454   0.014  0.00  0.00    -0.030 A 
ATOM      9  C   LIG    1       -2.601   4.091   0.029  0.00  0.00    +0.080 C 
ATOM     10  C   LIG    1        1.177   2.071   0.002  0.00  0.00    +0.100 A 
ENDROOT
BRANCH   6  11
ATOM     11  S   LIG    1       -1.619   7.437  -1.233  0.00  0.00    +2.790 S 
ATOM     12  O   LIG    1       -0.389   8.144  -1.302  0.00  0.00    -0.970 OA
ATOM     13  O   LIG    1       -2.844   8.044  -0.843  0.00  0.00    -0.970 OA
BRANCH  11  14
ATOM     14  N   LIG    1       -1.875   6.795  -2.737  0.00  0.00    -1.010 NA
ATOM     15  C   LIG    1       -3.230   6.450  -3.194  0.00  0.00    +0.270 C 
ATOM     16  C   LIG    1       -3.452   7.083  -4.573  0.00  0.00    +0.140 C 
ATOM     17  O   LIG    1       -2.377   6.712  -5.439  0.00  0.00    -0.370 OA
ATOM     18  C   LIG    1       -1.094   7.179  -5.014  0.00  0.00    +0.140 C 
ATOM     19  C   LIG    1       -0.036   6.778  -6.044  0.00  0.00    +0.070 C 
ATOM     20  C   LIG    1       -4.775   6.585  -5.157  0.00  0.00    +0.070 C 
ATOM     21  C   LIG    1       -0.753   6.557  -3.660  0.00  0.00    +0.270 C 
ENDBRANCH  11  14
ENDBRANCH   6  11
BRANCH   1  23
ATOM     22  C   LIG    1       -1.262  -0.670   0.011  0.00  0.00    +0.250 C 
ATOM     23  O   LIG    1        0.002  -0.004   0.002  0.00  0.00    -0.310 OA
ENDBRANCH   1  23
BRANCH  10  24
ATOM     24  O   LIG    1        2.369   1.416  -0.018  0.00  0.00    -0.310 OA
ATOM     25  C   LIG    1        3.551   2.218  -0.024  0.00  0.00    +0.240 C 
ENDBRANCH  10  24
TORSDOF 4
