REMARK  Name = ZINCpk00001AZiDq.0
REMARK                            x       y       z     vdW  Elec       q    Type
REMARK                         _______ _______ _______ _____ _____    ______ ____
ROOT
ATOM      1  N   LIG    1       -2.464   4.231  -0.105  0.00  0.00    -0.370 N 
ATOM      2  N   LIG    1       -3.322   4.503   0.975  0.00  0.00    -0.070 NA
ATOM      3  N   LIG    1       -4.422   4.952   0.477  0.00  0.00    -0.030 NA
ATOM      4  N   LIG    1       -4.355   4.994  -0.804  0.00  0.00    -0.330 NA
ATOM      5  C   LIG    1       -3.176   4.569  -1.219  0.00  0.00    +0.300 A 
ENDROOT
BRANCH   5   6
ATOM      6  C   LIG    1       -2.720   4.476  -2.612  0.00  0.00    +0.010 C 
ATOM      7  C   LIG    1       -3.537   4.848  -3.613  0.00  0.00    +0.130 C 
BRANCH   7   8
ATOM      8  C   LIG    1       -3.079   4.754  -5.010  0.00  0.00    -0.080 A 
ATOM      9  C   LIG    1       -1.795   4.285  -5.299  0.00  0.00    +0.020 A 
ATOM     10  C   LIG    1       -1.375   4.196  -6.609  0.00  0.00    +0.010 A 
ATOM     11  C   LIG    1       -2.219   4.579  -7.637  0.00  0.00    +0.030 A 
ATOM     12  C   LIG    1       -3.490   5.050  -7.359  0.00  0.00    +0.010 A 
ATOM     13  C   LIG    1       -3.925   5.140  -6.054  0.00  0.00    +0.040 A 
ENDBRANCH   7   8
ENDBRANCH   5   6
BRANCH   1  14
ATOM     14  C   LIG    1       -1.098   3.704  -0.047  0.00  0.00    +0.370 C 
BRANCH  14  16
ATOM     15  O   LIG    1       -2.202   1.622  -0.175  0.00  0.00    -0.490 OA
ATOM     16  C   LIG    1       -1.138   2.198  -0.098  0.00  0.00    +0.500 C 
ATOM     17  N   LIG    1        0.009   1.492  -0.058  0.00  0.00    -0.610 N 
ATOM     18  C   LIG    1        1.316   2.169  -0.060  0.00  0.00    +0.250 C 
ATOM     19  C   LIG    1        2.185   1.540  -1.155  0.00  0.00    +0.220 C 
ATOM     20  O   LIG    1        2.206   0.121  -0.982  0.00  0.00    -0.370 OA
ATOM     21  C   LIG    1        0.926  -0.503  -1.115  0.00  0.00    +0.220 C 
ATOM     22  C   LIG    1       -0.007   0.021  -0.018  0.00  0.00    +0.240 C 
BRANCH  22  23
ATOM     23  C   LIG    1       -1.430  -0.485  -0.266  0.00  0.00    -0.020 C 
ATOM     24  C   LIG    1       -1.604  -1.661  -1.230  0.00  0.00    +0.000 C 
ATOM     25  C   LIG    1       -2.030  -0.254  -1.655  0.00  0.00    +0.030 C 
ENDBRANCH  22  23
ENDBRANCH  14  16
ENDBRANCH   1  14
TORSDOF 5
