REMARK  Name = ZINCrH00000No4Wr.0
REMARK                            x       y       z     vdW  Elec       q    Type
REMARK                         _______ _______ _______ _____ _____    ______ ____
ROOT
ATOM      1  C   LIG    1       -6.072  -8.809   2.589  0.00  0.00    +0.390 C 
ATOM      2  O   LIG    1       -6.676  -8.174   3.431  0.00  0.00    -0.450 OA
ENDROOT
BRANCH   1   3
ATOM      3  C   LIG    1       -5.276  -8.144   1.646  0.00  0.00    -0.230 C 
ATOM      4  C   LIG    1       -5.086  -6.805   1.743  0.00  0.00    +0.270 C 
ATOM      5  N   LIG    1       -4.280  -6.043   0.957  0.00  0.00    -0.530 N 
ATOM      6  C   LIG    1       -4.317  -4.698   1.322  0.00  0.00    +0.140 A 
ATOM      7  C   LIG    1       -3.656  -3.593   0.787  0.00  0.00    -0.020 A 
ATOM      8  C   LIG    1       -3.850  -2.340   1.331  0.00  0.00    +0.040 A 
ATOM      9  C   LIG    1       -4.700  -2.170   2.408  0.00  0.00    -0.010 A 
ATOM     10  C   LIG    1       -5.359  -3.262   2.945  0.00  0.00    +0.070 A 
ATOM     11  C   LIG    1       -5.168  -4.514   2.405  0.00  0.00    -0.130 A 
ATOM     12  C   LIG    1       -3.473  -6.571  -0.145  0.00  0.00    +0.320 C 
ATOM     13  C   LIG    1       -5.726  -5.875   2.752  0.00  0.00    +0.000 C 
ATOM     14  C   LIG    1       -5.327  -6.271   4.175  0.00  0.00    +0.080 C 
ATOM     15  C   LIG    1       -7.248  -5.885   2.599  0.00  0.00    +0.080 C 
ENDBRANCH   1   3
BRANCH   1  17
ATOM     16  C   LIG    1       -4.948 -10.926   3.223  0.00  0.00    +0.060 C 
ATOM     17  C   LIG    1       -6.181 -10.312   2.558  0.00  0.00    +0.150 C 
BRANCH  17  18
ATOM     18  O   LIG    1       -7.374 -10.726   3.274  0.00  0.00    -0.330 OA
BRANCH  18  19
ATOM     19  C   LIG    1       -7.969 -11.858   2.864  0.00  0.00    +0.460 C 
ATOM     20  O   LIG    1       -7.508 -12.481   1.938  0.00  0.00    -0.510 OA
BRANCH  19  21
ATOM     21  C   LIG    1       -9.212 -12.350   3.559  0.00  0.00    +0.110 C 
BRANCH  21  22
ATOM     22  C   LIG    1       -9.683 -13.649   2.902  0.00  0.00    +0.050 C 
BRANCH  22  23
ATOM     23  C   LIG    1      -10.945 -14.149   3.608  0.00  0.00    +0.150 C 
ATOM     24  C   LIG    1      -11.500 -15.386   2.876  0.00  0.00    +0.010 C 
ATOM     25  C   LIG    1      -11.506 -16.495   3.957  0.00  0.00    +0.000 C 
ATOM     26  C   LIG    1      -11.484 -15.670   5.269  0.00  0.00    +0.200 C 
ATOM     27  O   LIG    1      -10.627 -14.553   4.950  0.00  0.00    -0.370 OA
ENDBRANCH  22  23
ENDBRANCH  21  22
ENDBRANCH  19  21
ENDBRANCH  18  19
ENDBRANCH  17  18
ENDBRANCH   1  17
TORSDOF 7
