REMARK  Name = ZINCrH00000No4D0.0
REMARK                            x       y       z     vdW  Elec       q    Type
REMARK                         _______ _______ _______ _____ _____    ______ ____
ROOT
ATOM      1  C   LIG    1        1.861  -5.588   0.343  0.00  0.00    +0.380 C 
ATOM      2  N   LIG    1        2.055  -4.207  -0.107  0.00  0.00    -0.350 N 
ATOM      3  C   LIG    1        3.189  -3.721  -0.632  0.00  0.00    +0.300 A 
ATOM      4  C   LIG    1        2.979  -2.383  -0.930  0.00  0.00    -0.250 A 
ATOM      5  C   LIG    1        1.593  -2.087  -0.537  0.00  0.00    +0.190 A 
ATOM      6  N   LIG    1        1.089  -3.200  -0.049  0.00  0.00    -0.250 NA
ENDROOT
BRANCH   5   7
ATOM      7  C   LIG    1        0.903  -0.789  -0.659  0.00  0.00    +0.090 A 
ATOM      8  C   LIG    1       -0.412  -0.629  -0.948  0.00  0.00    +0.030 A 
ATOM      9  C   LIG    1       -0.651   0.815  -0.967  0.00  0.00    -0.140 A 
ATOM     10  C   LIG    1       -1.773   1.613  -1.193  0.00  0.00    +0.070 A 
ATOM     11  C   LIG    1       -1.659   2.975  -1.142  0.00  0.00    +0.000 A 
ATOM     12  C   LIG    1       -0.436   3.566  -0.857  0.00  0.00    +0.060 A 
ATOM     13  C   LIG    1        0.683   2.794  -0.626  0.00  0.00    +0.030 A 
ATOM     14  C   LIG    1        0.591   1.410  -0.678  0.00  0.00    +0.070 A 
ATOM     15  O   LIG    1        1.486   0.416  -0.502  0.00  0.00    -0.180 OA
ENDBRANCH   5   7
BRANCH   4  16
ATOM     16  C   LIG    1        3.913  -1.482  -1.501  0.00  0.00    +0.300 C 
ATOM     17  C   LIG    1        5.260  -1.786  -1.494  0.00  0.00    -0.180 C 
BRANCH  17  18
ATOM     18  C   LIG    1        6.210  -0.931  -2.218  0.00  0.00    +0.580 C 
ATOM     19  N   LIG    1        7.525  -1.228  -2.210  0.00  0.00    -0.720 N 
ATOM     20  H   LIG    1        7.844  -2.006  -1.727  0.00  0.00    +0.400 HD
ATOM     21  O   LIG    1        5.811   0.045  -2.824  0.00  0.00    -0.530 OA
BRANCH  19  22
ATOM     22  C   LIG    1        8.473  -0.376  -2.933  0.00  0.00    +0.240 C 
ATOM     23  C   LIG    1        8.583  -0.834  -4.401  0.00  0.00    +0.000 C 
ATOM     24  C   LIG    1       10.080  -0.636  -4.749  0.00  0.00    +0.020 C 
ATOM     25  C   LIG    1       10.794  -1.053  -3.439  0.00  0.00    +0.010 C 
ATOM     26  C   LIG    1        9.878  -0.514  -2.321  0.00  0.00    +0.020 C 
ENDBRANCH  19  22
ENDBRANCH  17  18
BRANCH  17  27
ATOM     27  C   LIG    1        5.730  -2.935  -0.780  0.00  0.00    +0.260 C 
ATOM     28  N   LIG    1        6.103  -3.846  -0.214  0.00  0.00    -0.430 NA
ENDBRANCH  17  27
ENDBRANCH   4  16
TORSDOF 5
