REMARK  Name = ZINCrH000004okCI.0
REMARK                            x       y       z     vdW  Elec       q    Type
REMARK                         _______ _______ _______ _____ _____    ______ ____
ROOT
ATOM      1  C   LIG    1        0.712  -1.094  -3.598  0.00  0.00    +0.180 C 
ATOM      2  C   LIG    1        1.284  -2.490  -3.346  0.00  0.00    +0.020 C 
ENDROOT
BRANCH   1   3
ATOM      3  N   LIG    1       -0.242  -1.150  -4.714  0.00  0.00    -0.520 NA
ATOM      4  C   LIG    1       -1.336  -2.088  -4.425  0.00  0.00    +0.200 C 
ATOM      5  C   LIG    1       -2.347  -2.058  -5.574  0.00  0.00    +0.180 C 
ATOM      6  N   LIG    1       -1.670  -2.414  -6.828  0.00  0.00    -0.540 NA
ATOM      7  C   LIG    1       -0.576  -1.477  -7.117  0.00  0.00    +0.180 C 
ATOM      8  C   LIG    1        0.435  -1.507  -5.969  0.00  0.00    +0.190 C 
BRANCH   6   9
ATOM      9  C   LIG    1       -2.624  -2.471  -7.944  0.00  0.00    +0.230 C 
BRANCH   9  10
ATOM     10  C   LIG    1       -3.587  -3.609  -7.725  0.00  0.00    -0.070 A 
ATOM     11  C   LIG    1       -3.295  -4.866  -8.221  0.00  0.00    +0.040 A 
ATOM     12  C   LIG    1       -4.176  -5.911  -8.015  0.00  0.00    +0.020 A 
ATOM     13  C   LIG    1       -5.354  -5.697  -7.322  0.00  0.00    -0.030 A 
ATOM     14  C   LIG    1       -5.648  -4.438  -6.831  0.00  0.00    +0.020 A 
ATOM     15 CL   LIG    1       -6.463  -7.008  -7.069  0.00  0.00    -0.070 Cl
ATOM     16  C   LIG    1       -4.764  -3.394  -7.032  0.00  0.00    +0.030 A 
ENDBRANCH   9  10
ENDBRANCH   6   9
ENDBRANCH   1   3
BRANCH   1  19
ATOM     17  N   LIG    1        0.688  -0.476  -1.203  0.00  0.00    -0.730 N 
ATOM     18  H   LIG    1        1.632  -0.695  -1.170  0.00  0.00    +0.400 HD
ATOM     19  C   LIG    1        0.006  -0.608  -2.358  0.00  0.00    +0.520 C 
ATOM     20  O   LIG    1       -1.175  -0.336  -2.400  0.00  0.00    -0.520 OA
BRANCH  17  22
ATOM     21  C   LIG    1       -0.019   1.526   0.010  0.00  0.00    +0.040 C 
ATOM     22  C   LIG    1        0.002  -0.004   0.002  0.00  0.00    +0.290 C 
BRANCH  22  23
ATOM     23  C   LIG    1        0.731  -0.503   1.223  0.00  0.00    -0.090 A 
ATOM     24  C   LIG    1        2.113  -0.524   1.242  0.00  0.00    +0.000 A 
ATOM     25  C   LIG    1        2.782  -0.979   2.364  0.00  0.00    +0.000 A 
ATOM     26  C   LIG    1        2.068  -1.419   3.463  0.00  0.00    +0.000 A 
ATOM     27  C   LIG    1        0.686  -1.403   3.441  0.00  0.00    +0.020 A 
ATOM     28  C   LIG    1        0.017  -0.945   2.321  0.00  0.00    +0.010 A 
ENDBRANCH  22  23
ENDBRANCH  17  22
ENDBRANCH   1  19
TORSDOF 6
