REMARK  Name = ZINCrD00000F5LGN.0
REMARK                            x       y       z     vdW  Elec       q    Type
REMARK                         _______ _______ _______ _____ _____    ______ ____
ROOT
ATOM      1  C   LIG    1       -4.543   3.902   3.056  0.00  0.00    +0.170 C 
ATOM      2  C   LIG    1       -3.374   3.249   2.870  0.00  0.00    -0.060 C 
ENDROOT
BRANCH   1   5
ATOM      3  C   LIG    1       -6.688   5.094   5.894  0.00  0.00    +0.150 A 
ATOM      4  C   LIG    1       -6.236   4.845   4.613  0.00  0.00    -0.060 A 
ATOM      5  C   LIG    1       -5.026   4.168   4.418  0.00  0.00    -0.020 A 
ATOM      6  C   LIG    1       -4.281   3.742   5.523  0.00  0.00    -0.070 A 
ATOM      7  C   LIG    1       -4.737   3.999   6.802  0.00  0.00    +0.150 A 
ATOM      8  C   LIG    1       -5.941   4.673   6.992  0.00  0.00    +0.050 A 
BRANCH   3  10
ATOM      9  C   LIG    1       -8.578   6.154   4.915  0.00  0.00    +0.250 C 
ATOM     10  O   LIG    1       -7.863   5.751   6.085  0.00  0.00    -0.300 OA
ENDBRANCH   3  10
BRANCH   7  11
ATOM     11  O   LIG    1       -4.011   3.590   7.877  0.00  0.00    -0.300 OA
ATOM     12  C   LIG    1       -2.785   2.905   7.609  0.00  0.00    +0.250 C 
ENDBRANCH   7  11
BRANCH   8  13
ATOM     13  O   LIG    1       -6.389   4.918   8.251  0.00  0.00    -0.310 OA
ATOM     14  C   LIG    1       -7.224   3.925   8.849  0.00  0.00    +0.240 C 
ENDBRANCH   8  13
ENDBRANCH   1   5
BRANCH   2  15
ATOM     15  C   LIG    1       -2.908   2.991   1.556  0.00  0.00    +0.510 C 
ATOM     16  O   LIG    1       -3.559   3.358   0.597  0.00  0.00    -0.510 OA
BRANCH  15  17
ATOM     17  O   LIG    1       -1.741   2.339   1.370  0.00  0.00    -0.350 OA
BRANCH  17  18
ATOM     18  C   LIG    1       -1.332   2.114   0.020  0.00  0.00    +0.290 C 
BRANCH  18  19
ATOM     19  C   LIG    1       -0.017   1.378   0.010  0.00  0.00    -0.100 A 
ATOM     20  C   LIG    1        1.171   2.086   0.002  0.00  0.00    +0.110 A 
ATOM     21  C   LIG    1        2.377   1.411  -0.015  0.00  0.00    +0.030 A 
ATOM     22  C   LIG    1        2.396   0.029  -0.022  0.00  0.00    +0.120 A 
ATOM     23  C   LIG    1        1.208  -0.679  -0.013  0.00  0.00    -0.050 A 
ATOM     24  C   LIG    1        0.002  -0.004   0.002  0.00  0.00    +0.130 A 
BRANCH  23  25
ATOM     25  N   LIG    1        1.228  -2.159  -0.021  0.00  0.00    +0.030 N 
ATOM     26  O   LIG    1        2.291  -2.753  -0.034  0.00  0.00    -0.150 OA
ATOM     27  O   LIG    1        0.182  -2.782  -0.014  0.00  0.00    -0.160 OA
ENDBRANCH  23  25
ENDBRANCH  18  19
ENDBRANCH  17  18
ENDBRANCH  15  17
ENDBRANCH   2  15
TORSDOF 9
