REMARK  Name = ZINCrH000004vGgj.0
REMARK                            x       y       z     vdW  Elec       q    Type
REMARK                         _______ _______ _______ _____ _____    ______ ____
ROOT
ATOM      1  O   LIG    1        2.931  -2.442   0.095  0.00  0.00    -0.490 OA
ATOM      2  C   LIG    1        3.522  -3.494  -0.049  0.00  0.00    +0.600 C 
ATOM      3  N   LIG    1        2.830  -4.647  -0.149  0.00  0.00    -0.600 N 
ATOM      4  C   LIG    1        1.364  -4.634  -0.241  0.00  0.00    +0.310 C 
ATOM      5  C   LIG    1        0.790  -5.544   0.844  0.00  0.00    +0.020 C 
ATOM      6  C   LIG    1        1.416  -6.936   0.723  0.00  0.00    +0.270 C 
ATOM      7  C   LIG    1        2.930  -6.835   0.925  0.00  0.00    +0.030 C 
ATOM      8  C   LIG    1        3.528  -5.939  -0.164  0.00  0.00    +0.300 C 
ENDROOT
BRANCH   2   9
ATOM      9  C   LIG    1        4.998  -3.510  -0.113  0.00  0.00    +0.090 A 
ATOM     10  N   LIG    1        5.748  -4.568  -0.385  0.00  0.00    -0.280 NA
ATOM     11  N   LIG    1        7.096  -4.186  -0.353  0.00  0.00    -0.260 N 
ATOM     12  C   LIG    1        8.252  -4.883  -0.560  0.00  0.00    +0.290 A 
ATOM     13  C   LIG    1        9.451  -4.270  -0.469  0.00  0.00    +0.010 A 
ATOM     14  C   LIG    1        9.530  -2.902  -0.159  0.00  0.00    +0.080 A 
ATOM     15  C   LIG    1        8.388  -2.194   0.051  0.00  0.00    +0.050 A 
ATOM     16  C   LIG    1        7.143  -2.848  -0.048  0.00  0.00    +0.140 A 
ATOM     17  C   LIG    1        5.836  -2.412   0.105  0.00  0.00    -0.210 A 
ATOM     18 BR   LIG    1        5.287  -0.653   0.529  0.00  0.00    +0.020 Br
ENDBRANCH   2   9
BRANCH   6  19
ATOM     19  N   LIG    1        0.845  -7.818   1.743  0.00  0.00    -0.350 N 
ATOM     20  C   LIG    1        0.483  -7.458   2.992  0.00  0.00    +0.260 A 
ATOM     21  C   LIG    1       -0.001  -8.557   3.615  0.00  0.00    -0.070 A 
ATOM     22  C   LIG    1        0.077  -9.629   2.719  0.00  0.00    -0.020 A 
ATOM     23  N   LIG    1        0.584  -9.187   1.597  0.00  0.00    -0.240 NA
BRANCH  22  24
ATOM     24  C   LIG    1       -0.349 -11.047   2.998  0.00  0.00    +0.560 C 
ATOM     25  F   LIG    1       -1.732 -11.087   3.204  0.00  0.00    -0.170 F 
ATOM     26  F   LIG    1        0.306 -11.514   4.143  0.00  0.00    -0.170 F 
ATOM     27  F   LIG    1       -0.015 -11.857   1.908  0.00  0.00    -0.170 F 
ENDBRANCH  22  24
ENDBRANCH   6  19
TORSDOF 3
