REMARK  Name = ZINCnE000001Ssza.0
REMARK                            x       y       z     vdW  Elec       q    Type
REMARK                         _______ _______ _______ _____ _____    ______ ____
ROOT
ATOM      1  O   LIG    1       -1.734   2.270  -1.088  0.00  0.00    -0.540 OA
ATOM      2  C   LIG    1       -0.744   1.582  -1.213  0.00  0.00    +0.500 C 
ATOM      3  N   LIG    1       -0.288   1.272  -2.443  0.00  0.00    -0.620 N 
ATOM      4  H   LIG    1        0.547   0.790  -2.544  0.00  0.00    +0.410 HD
ENDROOT
BRANCH   3   5
ATOM      5  C   LIG    1       -1.023   1.647  -3.576  0.00  0.00    -0.020 A 
ATOM      6  C   LIG    1       -2.391   1.853  -3.481  0.00  0.00    +0.050 A 
ATOM      7  C   LIG    1       -3.113   2.227  -4.599  0.00  0.00    -0.140 A 
ATOM      8  C   LIG    1       -2.476   2.387  -5.816  0.00  0.00    +0.030 A 
ATOM      9  C   LIG    1       -1.112   2.178  -5.920  0.00  0.00    -0.170 A 
ATOM     10 CL   LIG    1       -0.317   2.380  -7.450  0.00  0.00    -0.110 Cl
ATOM     11  C   LIG    1       -0.381   1.808  -4.802  0.00  0.00    +0.270 A 
ATOM     12  O   LIG    1        0.960   1.602  -4.902  0.00  0.00    -0.710 OA
ENDBRANCH   3   5
BRANCH   2  13
ATOM     13  C   LIG    1       -0.021   1.072   0.008  0.00  0.00    +0.130 C 
BRANCH  13  14
ATOM     14  C   LIG    1       -0.728   1.556   1.248  0.00  0.00    -0.070 A 
ATOM     15  C   LIG    1       -0.364   2.760   1.827  0.00  0.00    +0.150 A 
ATOM     16  C   LIG    1       -1.018   3.207   2.963  0.00  0.00    +0.070 A 
ATOM     17  C   LIG    1       -2.025   2.445   3.526  0.00  0.00    +0.010 A 
ATOM     18  C   LIG    1       -2.385   1.241   2.952  0.00  0.00    +0.070 A 
ATOM     19  F   LIG    1        0.624   3.502   1.280  0.00  0.00    -0.110 F 
ATOM     20  C   LIG    1       -1.736   0.795   1.812  0.00  0.00    +0.150 A 
ATOM     21  F   LIG    1       -2.089  -0.383   1.251  0.00  0.00    -0.110 F 
BRANCH  17  22
ATOM     22  N   LIG    1       -2.719   2.921   4.744  0.00  0.00    +0.030 N 
ATOM     23  O   LIG    1       -2.402   3.982   5.250  0.00  0.00    -0.150 OA
ATOM     24  O   LIG    1       -3.606   2.250   5.240  0.00  0.00    -0.150 OA
ENDBRANCH  17  22
ENDBRANCH  13  14
ENDBRANCH   2  13
TORSDOF 4
