REMARK  Name = ZINCtV00000L6klF.0
REMARK                            x       y       z     vdW  Elec       q    Type
REMARK                         _______ _______ _______ _____ _____    ______ ____
ROOT
ATOM      1  C   LIG    1       -4.413   0.667   2.323  0.00  0.00    +0.440 A 
ATOM      2  C   LIG    1       -3.104   1.052   2.123  0.00  0.00    -0.070 A 
ATOM      3  C   LIG    1       -2.387   0.499   1.063  0.00  0.00    +0.230 A 
ATOM      4  N   LIG    1       -2.955  -0.376   0.261  0.00  0.00    -0.470 NA
ATOM      5  C   LIG    1       -4.221  -0.763   0.444  0.00  0.00    +0.300 A 
ATOM      6  C   LIG    1       -5.045  -1.661  -0.246  0.00  0.00    -0.210 A 
ATOM      7  C   LIG    1       -6.288  -1.662   0.398  0.00  0.00    +0.140 A 
ATOM      8  N   LIG    1       -6.241  -0.830   1.409  0.00  0.00    -0.300 NA
ATOM      9  C   LIG    1       -7.484  -2.485  -0.006  0.00  0.00    +0.170 C 
ATOM     10  N   LIG    1       -4.970  -0.250   1.471  0.00  0.00    -0.320 N 
ENDROOT
BRANCH   6  11
ATOM     11  C   LIG    1       -4.670  -2.462  -1.435  0.00  0.00    +0.020 A 
ATOM     12  C   LIG    1       -3.683  -3.442  -1.336  0.00  0.00    +0.040 A 
ATOM     13  C   LIG    1       -3.342  -4.188  -2.446  0.00  0.00    +0.020 A 
ATOM     14  C   LIG    1       -3.969  -3.957  -3.658  0.00  0.00    -0.040 A 
ATOM     15  C   LIG    1       -4.946  -2.981  -3.763  0.00  0.00    +0.020 A 
ATOM     16 CL   LIG    1       -3.530  -4.895  -5.051  0.00  0.00    -0.070 Cl
ATOM     17  C   LIG    1       -5.299  -2.233  -2.659  0.00  0.00    +0.030 A 
ENDBRANCH   6  11
BRANCH   3  18
ATOM     18  C   LIG    1       -0.956   0.910   0.831  0.00  0.00    -0.020 C 
ATOM     19  C   LIG    1       -0.893   2.417   0.576  0.00  0.00    +0.050 C 
ATOM     20  C   LIG    1       -0.119   0.566   2.065  0.00  0.00    +0.050 C 
ATOM     21  C   LIG    1       -0.401   0.164  -0.385  0.00  0.00    +0.050 C 
ENDBRANCH   3  18
BRANCH   1  22
ATOM     22  N   LIG    1       -5.149   1.196   3.362  0.00  0.00    -0.670 N 
ATOM     23  H   LIG    1       -4.840   1.095   4.276  0.00  0.00    +0.420 HD
BRANCH  22  28
ATOM     24  C   LIG    1       -9.982   3.964   2.293  0.00  0.00    +0.090 C 
ATOM     25  C   LIG    1       -8.698   3.229   2.577  0.00  0.00    -0.120 A 
ATOM     26  C   LIG    1       -8.338   2.948   3.883  0.00  0.00    +0.050 A 
ATOM     27  C   LIG    1       -7.162   2.273   4.146  0.00  0.00    -0.030 A 
ATOM     28  C   LIG    1       -6.340   1.878   3.099  0.00  0.00    +0.180 A 
ATOM     29  C   LIG    1       -6.702   2.168   1.789  0.00  0.00    -0.040 A 
ATOM     30  C   LIG    1       -7.882   2.837   1.532  0.00  0.00    +0.040 A 
ENDBRANCH  22  28
ENDBRANCH   1  22
TORSDOF 4
