REMARK  Name = ZINCvU0000000EUX.0
REMARK                            x       y       z     vdW  Elec       q    Type
REMARK                         _______ _______ _______ _____ _____    ______ ____
ROOT
ATOM      1  C   LIG    1        1.732   5.732   0.016  0.00  0.00    +0.540 C 
ATOM      2  N   LIG    1        1.998   4.411   0.007  0.00  0.00    -0.610 N 
ATOM      3  H   LIG    1        2.917   4.101  -0.003  0.00  0.00    +0.430 HD
ATOM      4  O   LIG    1        0.582   6.119   0.028  0.00  0.00    -0.480 OA
ENDROOT
BRANCH   2   5
ATOM      5  C   LIG    1        0.955   3.492   0.011  0.00  0.00    +0.280 A 
ATOM      6  N   LIG    1        1.093   2.203   0.004  0.00  0.00    -0.500 NA
ATOM      7  C   LIG    1       -0.018   1.479   0.010  0.00  0.00    +0.120 A 
ATOM      8  C   LIG    1       -1.164   2.182   0.019  0.00  0.00    -0.100 A 
ATOM      9  S   LIG    1       -0.758   3.897   0.029  0.00  0.00    +0.220 S 
BRANCH   7  10
ATOM     10  C   LIG    1        0.002  -0.004   0.002  0.00  0.00    -0.000 A 
ATOM     11  C   LIG    1       -1.194  -0.719   0.015  0.00  0.00    +0.060 A 
ATOM     12  C   LIG    1       -1.172  -2.099   0.002  0.00  0.00    +0.030 A 
ATOM     13  C   LIG    1        0.037  -2.775  -0.013  0.00  0.00    +0.070 A 
ATOM     14  C   LIG    1        1.231  -2.068  -0.020  0.00  0.00    +0.070 A 
ATOM     15  F   LIG    1        2.408  -2.731  -0.034  0.00  0.00    -0.130 F 
ATOM     16  F   LIG    1        0.053  -4.125  -0.020  0.00  0.00    -0.130 F 
ATOM     17  C   LIG    1        1.218  -0.686  -0.013  0.00  0.00    +0.060 A 
ENDBRANCH   7  10
ENDBRANCH   2   5
BRANCH   1  18
ATOM     18  C   LIG    1        2.862   6.728   0.011  0.00  0.00    +0.020 C 
ATOM     19  C   LIG    1        3.423   6.870   1.428  0.00  0.00    +0.110 C 
BRANCH  18  20
ATOM     20  S   LIG    1        2.249   8.333  -0.559  0.00  0.00    +0.090 S 
BRANCH  20  25
ATOM     21  C   LIG    1        5.938  12.117  -1.160  0.00  0.00    +0.200 C 
ATOM     22  C   LIG    1        5.255  10.806  -0.866  0.00  0.00    +0.200 A 
ATOM     23  N   LIG    1        5.829   9.711  -0.455  0.00  0.00    -0.280 NA
ATOM     24  N   LIG    1        4.954   8.783  -0.303  0.00  0.00    -0.290 NA
ATOM     25  C   LIG    1        3.761   9.237  -0.611  0.00  0.00    +0.150 A 
ATOM     26  N   LIG    1        3.916  10.543  -0.987  0.00  0.00    -0.420 N 
BRANCH  26  27
ATOM     27  C   LIG    1        2.913  11.429  -1.405  0.00  0.00    +0.100 A 
ATOM     28  C   LIG    1        2.918  11.924  -2.702  0.00  0.00    +0.030 A 
ATOM     29  C   LIG    1        1.926  12.792  -3.113  0.00  0.00    +0.040 A 
ATOM     30  C   LIG    1        0.933  13.177  -2.231  0.00  0.00    +0.040 A 
ATOM     31  C   LIG    1        0.928  12.691  -0.936  0.00  0.00    +0.040 A 
ATOM     32  C   LIG    1        1.915  11.818  -0.521  0.00  0.00    +0.030 A 
ENDBRANCH  26  27
ENDBRANCH  20  25
ENDBRANCH  18  20
ENDBRANCH   1  18
TORSDOF 6
