REMARK  Name = ZINCpk00000y6y5P.0
REMARK                            x       y       z     vdW  Elec       q    Type
REMARK                         _______ _______ _______ _____ _____    ______ ____
ROOT
ATOM      1  C   LIG    1        3.248   0.431   0.744  0.00  0.00    +0.320 C 
ENDROOT
BRANCH   1   6
ATOM      2  C   LIG    1        0.984   1.209  -0.057  0.00  0.00    +0.100 C 
ATOM      3  C   LIG    1       -0.409   0.571   0.147  0.00  0.00    +0.010 C 
ATOM      4  C   LIG    1       -0.109  -0.933   0.333  0.00  0.00    +0.210 C 
ATOM      5  O   LIG    1        1.256  -0.982   0.802  0.00  0.00    -0.340 OA
ATOM      6  C   LIG    1        1.960   0.015   0.030  0.00  0.00    +0.160 C 
BRANCH   2  11
ATOM      7  C   LIG    1        1.165   3.603   4.388  0.00  0.00    +0.200 C 
ATOM      8  C   LIG    1        1.350   3.233   2.939  0.00  0.00    +0.180 A 
ATOM      9  N   LIG    1        2.007   3.919   2.043  0.00  0.00    -0.290 NA
ATOM     10  N   LIG    1        1.966   3.307   0.913  0.00  0.00    -0.290 NA
ATOM     11  C   LIG    1        1.272   2.208   1.034  0.00  0.00    +0.190 A 
ATOM     12  N   LIG    1        0.865   2.128   2.324  0.00  0.00    -0.570 N 
ATOM     13  H   LIG    1        0.334   1.422   2.725  0.00  0.00    +0.430 HD
ENDBRANCH   2  11
ENDBRANCH   1   6
BRANCH   1  14
ATOM     14  N   LIG    1        4.175  -0.703   0.776  0.00  0.00    -0.610 N 
ATOM     15  C   LIG    1        4.148  -1.567   1.810  0.00  0.00    +0.600 C 
ATOM     16  O   LIG    1        3.273  -1.480   2.653  0.00  0.00    -0.540 OA
ATOM     17  C   LIG    1        5.133  -0.897  -0.315  0.00  0.00    +0.300 C 
BRANCH  15  18
ATOM     18  C   LIG    1        5.137  -2.577   1.917  0.00  0.00    -0.150 A 
ATOM     19  C   LIG    1        6.274  -2.711   1.136  0.00  0.00    +0.300 A 
ATOM     20  N   LIG    1        6.939  -3.776   1.552  0.00  0.00    -0.500 NA
ATOM     21  C   LIG    1        6.286  -4.350   2.562  0.00  0.00    +0.240 A 
ATOM     22  C   LIG    1        6.569  -5.491   3.334  0.00  0.00    +0.070 A 
ATOM     23  C   LIG    1        5.709  -5.858   4.325  0.00  0.00    +0.070 A 
ATOM     24  C   LIG    1        4.557  -5.094   4.560  0.00  0.00    +0.020 A 
ATOM     25  C   LIG    1        4.302  -4.000   3.807  0.00  0.00    +0.250 A 
ATOM     26  N   LIG    1        5.155  -3.627   2.816  0.00  0.00    -0.320 N 
ENDBRANCH  15  18
ENDBRANCH   1  14
TORSDOF 4
