REMARK  Name = ZINCrg00000SjSDG.1
REMARK                            x       y       z     vdW  Elec       q    Type
REMARK                         _______ _______ _______ _____ _____    ______ ____
ROOT
ATOM      1  C   LIG    1       -1.183  -2.065  -0.099  0.00  0.00    +0.520 C 
ATOM      2  N   LIG    1       -1.199  -0.722   0.010  0.00  0.00    -0.680 N 
ATOM      3  H   LIG    1       -2.044  -0.253   0.098  0.00  0.00    +0.410 HD
ATOM      4  O   LIG    1       -0.125  -2.659  -0.113  0.00  0.00    -0.490 OA
ENDROOT
BRANCH   2   5
ATOM      5  C   LIG    1        0.002  -0.004  -0.004  0.00  0.00    +0.210 A 
ATOM      6  C   LIG    1        1.071  -0.452  -0.768  0.00  0.00    +0.000 A 
ATOM      7  C   LIG    1        2.255   0.260  -0.780  0.00  0.00    +0.150 A 
ATOM      8  C   LIG    1        2.376   1.417  -0.033  0.00  0.00    -0.700 A 
ATOM      9  C   LIG    1        1.313   1.865   0.729  0.00  0.00    +0.150 A 
ATOM     10  C   LIG    1        0.126   1.159   0.746  0.00  0.00    -0.030 A 
BRANCH   8  11
ATOM     11  S   LIG    1        3.888   2.321  -0.051  0.00  0.00    +2.700 S 
ATOM     12  O   LIG    1        3.561   3.656   0.309  0.00  0.00    -0.960 OA
ATOM     13  O   LIG    1        4.544   1.982  -1.265  0.00  0.00    -0.960 OA
BRANCH  11  14
ATOM     14  N   LIG    1        4.831   1.724   1.173  0.00  0.00    -1.250 NA
ATOM     15  H   LIG    1        5.714   2.095   1.330  0.00  0.00    +0.420 HD
ATOM     16  H   LIG    1        4.501   1.004   1.732  0.00  0.00    +0.420 HD
ENDBRANCH  11  14
ENDBRANCH   8  11
ENDBRANCH   2   5
BRANCH   1  18
ATOM     17  C   LIG    1       -3.243  -2.366  -1.445  0.00  0.00    +0.030 C 
ATOM     18  C   LIG    1       -2.478  -2.828  -0.204  0.00  0.00    +0.180 C 
BRANCH  18  19
ATOM     19  N   LIG    1       -2.191  -4.265  -0.312  0.00  0.00    -0.660 NA
ATOM     20  H   LIG    1       -1.947  -4.515  -1.258  0.00  0.00    +0.360 HD
BRANCH  19  21
ATOM     21  C   LIG    1       -3.326  -5.065   0.168  0.00  0.00    +0.220 C 
BRANCH  21  22
ATOM     22  C   LIG    1       -2.992  -6.553   0.040  0.00  0.00    +0.150 C 
ATOM     23  C   LIG    1       -4.174  -7.394   0.539  0.00  0.00    +0.230 C 
ATOM     24  O   LIG    1       -3.833  -8.777   0.394  0.00  0.00    -0.300 OA
ATOM     25  C   LIG    1       -3.280  -9.150  -0.792  0.00  0.00    +0.050 A 
ATOM     26  C   LIG    1       -3.254 -10.492  -1.140  0.00  0.00    +0.020 A 
ATOM     27  C   LIG    1       -2.693 -10.886  -2.340  0.00  0.00    +0.010 A 
ATOM     28  C   LIG    1       -2.154  -9.944  -3.196  0.00  0.00    +0.020 A 
ATOM     29  C   LIG    1       -2.177  -8.604  -2.856  0.00  0.00    +0.020 A 
ATOM     30  C   LIG    1       -2.740  -8.202  -1.654  0.00  0.00    +0.050 A 
ATOM     31  O   LIG    1       -2.759  -6.879  -1.335  0.00  0.00    -0.310 OA
ENDBRANCH  21  22
ENDBRANCH  19  21
ENDBRANCH  18  19
ENDBRANCH   1  18
TORSDOF 7
