REMARK  Name = ZINCvU0000000EfD.0
REMARK                            x       y       z     vdW  Elec       q    Type
REMARK                         _______ _______ _______ _____ _____    ______ ____
ROOT
ATOM      1  C   LIG    1       -0.652   3.791   0.053  0.00  0.00    -0.680 A 
ATOM      2  C   LIG    1        0.318   2.814   0.120  0.00  0.00    +0.220 A 
ATOM      3  C   LIG    1       -0.051   1.467   0.143  0.00  0.00    -0.150 A 
ATOM      4  C   LIG    1       -1.403   1.119   0.098  0.00  0.00    +0.130 A 
ATOM      5  C   LIG    1       -2.364   2.105   0.025  0.00  0.00    +0.020 A 
ATOM      6  C   LIG    1       -1.992   3.439   0.009  0.00  0.00    +0.080 A 
ATOM      7 CL   LIG    1       -3.208   4.675  -0.076  0.00  0.00    -0.030 Cl
ENDROOT
BRANCH   3   8
ATOM      8  C   LIG    1        0.984   0.415   0.216  0.00  0.00    +0.560 C 
ATOM      9  N   LIG    1        0.624  -0.884   0.238  0.00  0.00    -0.720 N 
ATOM     10  H   LIG    1       -0.314  -1.128   0.207  0.00  0.00    +0.400 HD
ATOM     11  O   LIG    1        2.159   0.721   0.255  0.00  0.00    -0.520 OA
BRANCH   9  12
ATOM     12  C   LIG    1        1.650  -1.927   0.310  0.00  0.00    +0.230 C 
ATOM     13  C   LIG    1        2.039  -2.160   1.772  0.00  0.00    +0.020 C 
BRANCH  12  14
ATOM     14  C   LIG    1        1.101  -3.224  -0.285  0.00  0.00    +0.020 C 
BRANCH  14  15
ATOM     15  C   LIG    1        0.829  -3.026  -1.778  0.00  0.00    +0.000 C 
BRANCH  15  16
ATOM     16  C   LIG    1        0.280  -4.324  -2.373  0.00  0.00    -0.030 C 
ATOM     17  C   LIG    1        0.126  -4.165  -3.887  0.00  0.00    +0.000 C 
ATOM     18  C   LIG    1       -1.083  -4.633  -1.752  0.00  0.00    +0.010 C 
ENDBRANCH  15  16
ENDBRANCH  14  15
ENDBRANCH  12  14
ENDBRANCH   9  12
ENDBRANCH   3   8
BRANCH   1  19
ATOM     19  S   LIG    1       -0.188   5.490   0.024  0.00  0.00    +2.680 S 
ATOM     20  O   LIG    1        1.232   5.519   0.040  0.00  0.00    -0.930 OA
ATOM     21  O   LIG    1       -0.990   6.142   0.999  0.00  0.00    -0.920 OA
BRANCH  19  22
ATOM     22  N   LIG    1       -0.651   6.100  -1.445  0.00  0.00    -0.930 N 
BRANCH  22  23
ATOM     23  C   LIG    1       -0.020   5.663  -2.613  0.00  0.00    +0.170 A 
ATOM     24  C   LIG    1        1.285   5.190  -2.563  0.00  0.00    +0.010 A 
ATOM     25  C   LIG    1        1.905   4.754  -3.718  0.00  0.00    +0.070 A 
ATOM     26  C   LIG    1        1.230   4.798  -4.926  0.00  0.00    -0.060 A 
ATOM     27  C   LIG    1       -0.068   5.274  -4.979  0.00  0.00    +0.060 A 
ATOM     28 CL   LIG    1        2.014   4.255  -6.376  0.00  0.00    -0.070 Cl
ATOM     29  C   LIG    1       -0.694   5.706  -3.826  0.00  0.00    +0.010 A 
ENDBRANCH  22  23
BRANCH  22  30
ATOM     30  C   LIG    1       -1.722   7.096  -1.520  0.00  0.00    +0.340 C 
BRANCH  30  32
ATOM     31  C   LIG    1       -1.419   9.308  -2.510  0.00  0.00    +0.050 C 
ATOM     32  C   LIG    1       -1.121   8.478  -1.540  0.00  0.00    -0.070 C 
ENDBRANCH  30  32
ENDBRANCH  22  30
ENDBRANCH  19  22
ENDBRANCH   1  19
TORSDOF 10
