REMARK  Name = ZINCvU0000000H0x.0
REMARK                            x       y       z     vdW  Elec       q    Type
REMARK                         _______ _______ _______ _____ _____    ______ ____
ROOT
ATOM      1  C   LIG    1       -2.199   7.083   0.118  0.00  0.00    +0.160 A 
ATOM      2  N   LIG    1       -0.933   7.036   0.409  0.00  0.00    -0.380 NA
ATOM      3  O   LIG    1       -0.554   5.884   0.448  0.00  0.00    +0.090 OA
ATOM      4  C   LIG    1       -1.571   5.063   0.167  0.00  0.00    +0.170 A 
ATOM      5  N   LIG    1       -2.623   5.817  -0.040  0.00  0.00    -0.420 NA
ENDROOT
BRANCH   4   6
ATOM      6  C   LIG    1       -1.519   3.558   0.108  0.00  0.00    +0.270 C 
ATOM      7  C   LIG    1       -0.823   3.123  -1.184  0.00  0.00    +0.050 C 
ATOM      8  C   LIG    1       -0.755   1.594  -1.231  0.00  0.00    +0.010 C 
ATOM      9  C   LIG    1       -0.013   1.086   0.008  0.00  0.00    +0.030 C 
ATOM     10  C   LIG    1       -0.731   1.580   1.266  0.00  0.00    +0.180 C 
ATOM     11  N   LIG    1       -0.770   3.048   1.264  0.00  0.00    -0.520 NA
BRANCH  11  12
ATOM     12  C   LIG    1       -1.329   3.562   2.521  0.00  0.00    +0.220 C 
BRANCH  12  13
ATOM     13  C   LIG    1       -0.704   2.834   3.683  0.00  0.00    -0.080 A 
ATOM     14  C   LIG    1       -1.286   1.680   4.171  0.00  0.00    +0.010 A 
ATOM     15  C   LIG    1       -0.710   1.010   5.234  0.00  0.00    +0.000 A 
ATOM     16  C   LIG    1        0.444   1.501   5.815  0.00  0.00    +0.000 A 
ATOM     17  C   LIG    1        1.024   2.658   5.331  0.00  0.00    +0.000 A 
ATOM     18  C   LIG    1        0.450   3.325   4.265  0.00  0.00    +0.020 A 
ENDBRANCH  12  13
ENDBRANCH  11  12
ENDBRANCH   4   6
BRANCH   1  19
ATOM     19  C   LIG    1       -3.037   8.328  -0.016  0.00  0.00    +0.290 C 
ATOM     20  C   LIG    1       -3.586   8.444  -1.453  0.00  0.00    +0.050 C 
ATOM     21  C   LIG    1       -3.537   9.963  -1.756  0.00  0.00    +0.020 C 
ATOM     22  C   LIG    1       -2.221  10.407  -1.073  0.00  0.00    +0.030 C 
ATOM     23  C   LIG    1       -2.170   9.576   0.226  0.00  0.00    +0.040 C 
BRANCH  19  25
ATOM     24  C   LIG    1       -5.040   7.287   0.900  0.00  0.00    +0.640 C 
ATOM     25  N   LIG    1       -4.144   8.293   0.943  0.00  0.00    -0.710 N 
ATOM     26  H   LIG    1       -4.233   8.994   1.607  0.00  0.00    +0.410 HD
ATOM     27  O   LIG    1       -4.929   6.409   0.068  0.00  0.00    -0.520 OA
BRANCH  24  28
ATOM     28  O   LIG    1       -6.058   7.255   1.781  0.00  0.00    -0.370 OA
BRANCH  28  30
ATOM     29  C   LIG    1       -6.227   4.827   1.876  0.00  0.00    +0.030 C 
ATOM     30  C   LIG    1       -6.985   6.141   1.677  0.00  0.00    +0.140 C 
ATOM     31  C   LIG    1       -7.638   6.149   0.294  0.00  0.00    +0.040 C 
ATOM     32  C   LIG    1       -8.065   6.275   2.752  0.00  0.00    +0.080 C 
ENDBRANCH  28  30
ENDBRANCH  24  28
ENDBRANCH  19  25
ENDBRANCH   1  19
TORSDOF 7
