REMARK  Name = ZINCqH0000036k3e.0
REMARK                            x       y       z     vdW  Elec       q    Type
REMARK                         _______ _______ _______ _____ _____    ______ ____
ROOT
ATOM      1  C   LIG    1        2.403   0.019  -0.009  0.00  0.00    +0.140 A 
ATOM      2  C   LIG    1        1.205  -0.684  -0.013  0.00  0.00    -0.070 A 
ATOM      3  C   LIG    1        0.002  -0.004   0.002  0.00  0.00    +0.060 A 
ATOM      4  C   LIG    1       -0.017   1.378   0.010  0.00  0.00    +0.000 A 
ATOM      5  C   LIG    1        1.180   2.083   0.002  0.00  0.00    +0.170 A 
ATOM      6  N   LIG    1        1.176   3.482  -0.048  0.00  0.00    -0.550 N 
ATOM      7  C   LIG    1        0.736   4.213   0.995  0.00  0.00    +0.610 C 
ATOM      8  O   LIG    1        0.741   5.426   0.932  0.00  0.00    -0.510 OA
ATOM      9  C   LIG    1        1.666   4.130  -1.274  0.00  0.00    +0.300 C 
ATOM     10  C   LIG    1        3.171   4.258  -1.242  0.00  0.00    +0.010 C 
ATOM     11  C   LIG    1        3.896   2.918  -1.243  0.00  0.00    +0.030 C 
ATOM     12  C   LIG    1        3.685   2.179   0.076  0.00  0.00    +0.080 C 
ATOM     13  C   LIG    1        2.384   1.403   0.010  0.00  0.00    -0.110 A 
ENDROOT
BRANCH   7  14
ATOM     14  C   LIG    1        0.246   3.536   2.221  0.00  0.00    -0.030 A 
ATOM     15  N   LIG    1        0.183   2.244   2.433  0.00  0.00    -0.300 NA
ATOM     16  O   LIG    1       -0.261   1.992   3.529  0.00  0.00    +0.130 OA
ATOM     17  C   LIG    1       -0.561   3.108   4.214  0.00  0.00    +0.010 A 
ATOM     18  C   LIG    1       -0.241   4.159   3.400  0.00  0.00    +0.030 A 
BRANCH  17  19
ATOM     19  C   LIG    1       -1.121   3.186   5.580  0.00  0.00    -0.080 A 
ATOM     20  C   LIG    1       -1.397   2.020   6.304  0.00  0.00    +0.100 A 
ATOM     21  C   LIG    1       -1.921   2.147   7.578  0.00  0.00    -0.020 A 
ATOM     22  C   LIG    1       -2.153   3.410   8.092  0.00  0.00    +0.270 A 
ATOM     23  N   LIG    1       -1.884   4.492   7.387  0.00  0.00    -0.480 NA
ATOM     24  C   LIG    1       -1.379   4.423   6.173  0.00  0.00    +0.290 A 
ENDBRANCH  17  19
ENDBRANCH   7  14
BRANCH   1  26
ATOM     25  C   LIG    1        3.528  -2.076  -0.043  0.00  0.00    +0.250 C 
ATOM     26  O   LIG    1        3.587  -0.648  -0.024  0.00  0.00    -0.310 OA
ENDBRANCH   1  26
TORSDOF 3
