REMARK  Name = ZINCpk00000FcXmy.1
REMARK                            x       y       z     vdW  Elec       q    Type
REMARK                         _______ _______ _______ _____ _____    ______ ____
ROOT
ATOM      1  C   LIG    1        5.959   0.408  -3.228  0.00  0.00    +0.270 C 
ATOM      2  C   LIG    1        4.510  -0.071  -3.087  0.00  0.00    +0.280 C 
ATOM      3  N   LIG    1        4.074   0.172  -1.703  0.00  0.00    -0.620 N 
ATOM      4  C   LIG    1        4.940  -0.303  -0.612  0.00  0.00    +0.250 C 
ATOM      5  C   LIG    1        6.365   0.183  -0.874  0.00  0.00    +0.230 C 
ATOM      6  C   LIG    1        2.918   0.815  -1.442  0.00  0.00    +0.520 C 
ATOM      7  O   LIG    1        2.221   1.203  -2.355  0.00  0.00    -0.520 OA
ATOM      8  O   LIG    1        6.754  -0.186  -2.199  0.00  0.00    -0.370 OA
ENDROOT
BRANCH   1  11
ATOM      9  C   LIG    1        7.156   0.139  -6.629  0.00  0.00    +0.290 A 
ATOM     10  N   LIG    1        6.673   0.813  -5.617  0.00  0.00    -0.530 NA
ATOM     11  C   LIG    1        6.495   0.000  -4.577  0.00  0.00    +0.230 A 
ATOM     12  N   LIG    1        6.856  -1.209  -4.916  0.00  0.00    -0.280 NA
ATOM     13  N   LIG    1        7.290  -1.144  -6.250  0.00  0.00    -0.480 N 
ATOM     14  H   LIG    1        7.620  -1.878  -6.791  0.00  0.00    +0.440 HD
BRANCH   9  16
ATOM     15  C   LIG    1        6.311   0.505  -8.932  0.00  0.00    +0.050 C 
ATOM     16  C   LIG    1        7.497   0.701  -7.985  0.00  0.00    +0.150 C 
ENDBRANCH   9  16
ENDBRANCH   1  11
BRANCH   6  17
ATOM     17  C   LIG    1        2.493   1.052  -0.016  0.00  0.00    +0.120 C 
BRANCH  17  18
ATOM     18  C   LIG    1        1.176   1.784   0.000  0.00  0.00    -0.100 A 
ATOM     19  C   LIG    1        1.152   3.167   0.007  0.00  0.00    +0.060 A 
ATOM     20  C   LIG    1       -0.051   3.842   0.026  0.00  0.00    -0.010 A 
ATOM     21  C   LIG    1       -1.252   3.137   0.037  0.00  0.00    +0.110 A 
ATOM     22  O   LIG    1       -2.533   3.595   0.072  0.00  0.00    -0.310 OA
ATOM     23  C   LIG    1       -3.419   2.552  -0.381  0.00  0.00    +0.240 C 
ATOM     24  C   LIG    1       -2.651   1.265   0.005  0.00  0.00    +0.070 C 
ATOM     25  C   LIG    1       -1.214   1.748   0.017  0.00  0.00    -0.170 A 
ATOM     26  C   LIG    1       -0.013   1.076   0.008  0.00  0.00    +0.070 A 
ENDBRANCH  17  18
ENDBRANCH   6  17
TORSDOF 4
