REMARK  Name = ZINCpk00000FcXmy.0
REMARK                            x       y       z     vdW  Elec       q    Type
REMARK                         _______ _______ _______ _____ _____    ______ ____
ROOT
ATOM      1  C   LIG    1       -2.542   1.314   0.019  0.00  0.00    +0.250 C 
ATOM      2  C   LIG    1       -3.276   1.949   1.205  0.00  0.00    +0.280 C 
ATOM      3  N   LIG    1       -4.710   1.646   1.080  0.00  0.00    -0.620 N 
ATOM      4  C   LIG    1       -5.367   1.927  -0.207  0.00  0.00    +0.260 C 
ATOM      5  C   LIG    1       -4.531   1.293  -1.324  0.00  0.00    +0.230 C 
ATOM      6  C   LIG    1       -5.403   1.127   2.113  0.00  0.00    +0.520 C 
ATOM      7  O   LIG    1       -4.844   0.902   3.166  0.00  0.00    -0.520 OA
ATOM      8  O   LIG    1       -3.173   1.721  -1.198  0.00  0.00    -0.360 OA
ENDROOT
BRANCH   1  12
ATOM      9  C   LIG    1        1.060   1.796   0.002  0.00  0.00    +0.190 A 
ATOM     10  N   LIG    1        0.604   3.018   0.013  0.00  0.00    -0.290 NA
ATOM     11  N   LIG    1       -0.682   3.001   0.025  0.00  0.00    -0.260 NA
ATOM     12  C   LIG    1       -1.104   1.766   0.016  0.00  0.00    +0.170 A 
ATOM     13  N   LIG    1       -0.011   0.966   0.007  0.00  0.00    -0.570 N 
ATOM     14  H   LIG    1        0.002  -0.004   0.002  0.00  0.00    +0.430 HD
BRANCH   9  16
ATOM     15  C   LIG    1        3.215   2.046  -1.200  0.00  0.00    +0.050 C 
ATOM     16  C   LIG    1        2.509   1.383  -0.015  0.00  0.00    +0.140 C 
ENDBRANCH   9  16
ENDBRANCH   1  12
BRANCH   6  17
ATOM     17  C   LIG    1       -6.871   0.825   1.960  0.00  0.00    +0.130 C 
BRANCH  17  18
ATOM     18  C   LIG    1       -7.404   0.257   3.251  0.00  0.00    -0.100 A 
ATOM     19  C   LIG    1       -7.389  -1.109   3.466  0.00  0.00    +0.060 A 
ATOM     20  C   LIG    1       -7.875  -1.634   4.645  0.00  0.00    -0.010 A 
ATOM     21  C   LIG    1       -8.395  -0.793   5.626  0.00  0.00    +0.110 A 
ATOM     22  O   LIG    1       -8.934  -1.095   6.838  0.00  0.00    -0.310 OA
ATOM     23  C   LIG    1       -8.931   0.081   7.665  0.00  0.00    +0.240 C 
ATOM     24  C   LIG    1       -9.005   1.228   6.629  0.00  0.00    +0.070 C 
ATOM     25  C   LIG    1       -8.404   0.577   5.398  0.00  0.00    -0.170 A 
ATOM     26  C   LIG    1       -7.916   1.100   4.222  0.00  0.00    +0.070 A 
ENDBRANCH  17  18
ENDBRANCH   6  17
TORSDOF 4
