REMARK  Name = ZINCtV000002FnEu.0
REMARK                            x       y       z     vdW  Elec       q    Type
REMARK                         _______ _______ _______ _____ _____    ______ ____
ROOT
ATOM      1  N   LIG    1        1.325  -0.390  -0.013  0.00  0.00    -0.410 N 
ATOM      2  C   LIG    1        2.047   0.771  -0.013  0.00  0.00    +0.170 A 
ATOM      3  N   LIG    1        1.186   1.765   0.000  0.00  0.00    -0.280 NA
ATOM      4  N   LIG    1       -0.016   1.309   0.009  0.00  0.00    -0.250 NA
ATOM      5  C   LIG    1        0.002  -0.004   0.002  0.00  0.00    +0.230 A 
ENDROOT
BRANCH   1  13
ATOM      6  C   LIG    1        1.829  -1.661   2.483  0.00  0.00    +0.110 C 
ATOM      7  C   LIG    1        2.085  -2.356   1.171  0.00  0.00    -0.050 A 
ATOM      8  C   LIG    1        2.579  -3.647   1.155  0.00  0.00    -0.030 A 
ATOM      9  C   LIG    1        2.813  -4.285  -0.051  0.00  0.00    +0.070 A 
ATOM     10  C   LIG    1        2.554  -3.633  -1.242  0.00  0.00    +0.050 A 
ATOM     11  C   LIG    1        2.057  -2.344  -1.232  0.00  0.00    +0.060 A 
ATOM     12 CL   LIG    1        2.904  -4.469   2.649  0.00  0.00    -0.040 Cl
ATOM     13  C   LIG    1        1.826  -1.699  -0.025  0.00  0.00    +0.100 A 
ENDBRANCH   1  13
BRANCH   5  14
ATOM     14  C   LIG    1       -1.174  -0.898   0.008  0.00  0.00    +0.030 A 
ATOM     15  C   LIG    1       -1.041  -2.261   0.304  0.00  0.00    -0.020 A 
ATOM     16  C   LIG    1       -2.166  -3.058   0.303  0.00  0.00    +0.270 A 
ATOM     17  N   LIG    1       -3.352  -2.555   0.018  0.00  0.00    -0.470 NA
ATOM     18  C   LIG    1       -3.522  -1.279  -0.271  0.00  0.00    +0.280 A 
ATOM     19  C   LIG    1       -2.452  -0.409  -0.288  0.00  0.00    +0.020 A 
ENDBRANCH   5  14
BRANCH   2  20
ATOM     20  S   LIG    1        3.804   0.910  -0.030  0.00  0.00    +0.040 S 
BRANCH  20  21
ATOM     21  C   LIG    1        3.977   2.711  -0.022  0.00  0.00    +0.170 C 
BRANCH  21  22
ATOM     22  C   LIG    1        5.439   3.076  -0.035  0.00  0.00    -0.070 A 
ATOM     23  C   LIG    1        6.120   3.241   1.156  0.00  0.00    +0.080 A 
ATOM     24  C   LIG    1        7.463   3.570   1.145  0.00  0.00    +0.050 A 
ATOM     25  C   LIG    1        8.123   3.744  -0.058  0.00  0.00    -0.020 A 
ATOM     26  C   LIG    1        7.440   3.584  -1.251  0.00  0.00    +0.050 A 
ATOM     27 CL   LIG    1        9.807   4.163  -0.072  0.00  0.00    -0.050 Cl
ATOM     28  C   LIG    1        6.098   3.250  -1.239  0.00  0.00    -0.010 A 
ATOM     29 CL   LIG    1        5.240   3.049  -2.735  0.00  0.00    -0.040 Cl
ENDBRANCH  21  22
ENDBRANCH  20  21
ENDBRANCH   2  20
TORSDOF 5
