REMARK  Name = ZINCrD000000Atbl.0
REMARK                            x       y       z     vdW  Elec       q    Type
REMARK                         _______ _______ _______ _____ _____    ______ ____
ROOT
ATOM      1  O   LIG    1       -1.736   2.268  -1.088  0.00  0.00    -0.520 OA
ATOM      2  C   LIG    1       -0.742   1.585  -1.213  0.00  0.00    +0.540 C 
ATOM      3  N   LIG    1       -0.288   1.272  -2.443  0.00  0.00    -0.610 N 
ATOM      4  C   LIG    1        0.919   0.450  -2.616  0.00  0.00    +0.290 C 
ATOM      5  C   LIG    1        0.584  -0.702  -3.577  0.00  0.00    +0.170 C 
ATOM      6  N   LIG    1        0.025  -0.150  -4.819  0.00  0.00    -0.540 NA
ATOM      7  C   LIG    1       -1.242   0.551  -4.568  0.00  0.00    +0.190 C 
ATOM      8  C   LIG    1       -0.985   1.749  -3.648  0.00  0.00    +0.300 C 
ENDROOT
BRANCH   6   9
ATOM      9  C   LIG    1       -0.147  -1.201  -5.831  0.00  0.00    +0.300 C 
BRANCH   9  10
ATOM     10  C   LIG    1        1.204  -1.729  -6.241  0.00  0.00    -0.000 A 
ATOM     11  C   LIG    1        1.857  -2.752  -5.662  0.00  0.00    -0.060 A 
ATOM     12  C   LIG    1        3.076  -2.908  -6.361  0.00  0.00    -0.070 A 
ATOM     13  C   LIG    1        3.099  -1.964  -7.319  0.00  0.00    +0.170 A 
ATOM     14  O   LIG    1        1.963  -1.253  -7.242  0.00  0.00    -0.170 OA
ENDBRANCH   9  10
ENDBRANCH   6   9
BRANCH   2  15
ATOM     15  C   LIG    1       -0.013   1.086   0.008  0.00  0.00    +0.080 C 
BRANCH  15  16
ATOM     16  S   LIG    1       -0.860   1.669   1.497  0.00  0.00    +0.150 S 
BRANCH  16  17
ATOM     17  C   LIG    1        0.174   0.961   2.735  0.00  0.00    +0.150 A 
ATOM     18  N   LIG    1        0.004   1.079   4.029  0.00  0.00    -0.450 NA
ATOM     19  C   LIG    1        0.998   0.396   4.657  0.00  0.00    +0.040 A 
ATOM     20  C   LIG    1        1.785  -0.146   3.700  0.00  0.00    +0.160 A 
ATOM     21  O   LIG    1        1.261   0.207   2.506  0.00  0.00    -0.200 OA
BRANCH  19  22
ATOM     22  C   LIG    1        1.185   0.270   6.124  0.00  0.00    -0.020 A 
ATOM     23  C   LIG    1        2.252  -0.470   6.631  0.00  0.00    +0.010 A 
ATOM     24  C   LIG    1        2.423  -0.581   7.996  0.00  0.00    +0.010 A 
ATOM     25  C   LIG    1        1.534   0.032   8.860  0.00  0.00    +0.020 A 
ATOM     26  C   LIG    1        0.470   0.763   8.362  0.00  0.00    +0.010 A 
ATOM     27  C   LIG    1        0.292   0.885   6.999  0.00  0.00    +0.040 A 
ENDBRANCH  19  22
ENDBRANCH  16  17
ENDBRANCH  15  16
ENDBRANCH   2  15
TORSDOF 6
