REMARK  Name = ZINCb70000003XDt.0
REMARK                            x       y       z     vdW  Elec       q    Type
REMARK                         _______ _______ _______ _____ _____    ______ ____
ROOT
ATOM      1  C   LIG    1        2.107   0.881  -0.942  0.00  0.00    +0.070 C 
ATOM      2  C   LIG    1        1.477   1.939  -0.002  0.00  0.00    +0.090 C 
ATOM      3  C   LIG    1       -0.019   1.538   0.011  0.00  0.00    +0.200 C 
ATOM      4  C   LIG    1        0.002  -0.004   0.002  0.00  0.00    -0.070 C 
ATOM      5  C   LIG    1        0.022  -0.719  -1.350  0.00  0.00    +0.110 C 
ATOM      6  C   LIG    1        1.353  -0.422  -0.604  0.00  0.00    +0.010 C 
ENDROOT
BRANCH   3   7
ATOM      7  N   LIG    1       -0.675   2.037   1.227  0.00  0.00    -0.630 N 
ATOM      8  H   LIG    1       -1.624   1.696   1.261  0.00  0.00    +0.440 HD
ATOM      9  H   LIG    1       -0.680   3.046   1.217  0.00  0.00    +0.440 HD
ATOM     10  H   LIG    1       -0.171   1.712   2.038  0.00  0.00    +0.440 HD
ENDBRANCH   3   7
BRANCH   1  11
ATOM     11  C   LIG    1        3.578   0.729  -0.656  0.00  0.00    +0.460 C 
ATOM     12  O   LIG    1        4.005  -0.314  -0.222  0.00  0.00    -0.490 OA
BRANCH  11  14
ATOM     13  C   LIG    1        5.819   1.536  -0.584  0.00  0.00    +0.280 C 
ATOM     14  O   LIG    1        4.415   1.754  -0.883  0.00  0.00    -0.360 OA
ENDBRANCH  11  14
ENDBRANCH   1  11
TORSDOF 3
