REMARK  Name = ZINCtj00001UqOpV.2
REMARK                            x       y       z     vdW  Elec       q    Type
REMARK                         _______ _______ _______ _____ _____    ______ ____
ROOT
ATOM      1  C   LIG    1        3.644   5.978   1.017  0.00  0.00    +0.260 C 
ENDROOT
BRANCH   1   5
ATOM      2  C   LIG    1        7.600   4.644   0.347  0.00  0.00    +0.120 A 
ATOM      3  C   LIG    1        7.215   5.872  -0.183  0.00  0.00    +0.070 A 
ATOM      4  C   LIG    1        5.918   6.306   0.038  0.00  0.00    +0.040 A 
ATOM      5  C   LIG    1        5.056   5.512   0.772  0.00  0.00    +0.030 A 
ATOM      6  N   LIG    1        5.455   4.356   1.264  0.00  0.00    -0.440 NA
ATOM      7  C   LIG    1        6.678   3.904   1.073  0.00  0.00    +0.210 A 
BRANCH   2   8
ATOM      8  O   LIG    1        8.862   4.177   0.156  0.00  0.00    -0.300 OA
BRANCH   8  10
ATOM      9  C   LIG    1       10.632   2.552   0.415  0.00  0.00    +0.070 C 
ATOM     10  C   LIG    1        9.178   2.909   0.733  0.00  0.00    +0.190 C 
ENDBRANCH   8  10
ENDBRANCH   2   8
ENDBRANCH   1   5
BRANCH   1  11
ATOM     11  N   LIG    1        2.779   4.814   1.255  0.00  0.00    -0.360 N 
ATOM     12  C   LIG    1        1.375   5.253   1.460  0.00  0.00    +0.290 C 
ATOM     13  C   LIG    1        0.555   3.980   1.133  0.00  0.00    +0.120 C 
ATOM     14  C   LIG    1        1.337   3.358  -0.047  0.00  0.00    +0.040 C 
ATOM     15  C   LIG    1        2.759   3.940   0.062  0.00  0.00    +0.240 C 
ATOM     16  H   LIG    1        3.103   4.298   2.059  0.00  0.00    +0.440 HD
BRANCH  15  17
ATOM     17  C   LIG    1        3.085   4.758  -1.189  0.00  0.00    -0.070 C 
ATOM     18  C   LIG    1        1.916   5.175  -2.084  0.00  0.00    +0.050 C 
ATOM     19  C   LIG    1        2.882   4.082  -2.547  0.00  0.00    +0.080 C 
ENDBRANCH  15  17
BRANCH  14  20
ATOM     20  C   LIG    1        1.375   1.857   0.084  0.00  0.00    +0.470 C 
ATOM     21  O   LIG    1        2.434   1.287   0.197  0.00  0.00    -0.490 OA
BRANCH  20  22
ATOM     22  O   LIG    1        0.231   1.154   0.074  0.00  0.00    -0.350 OA
ATOM     23  C   LIG    1        0.343  -0.288   0.204  0.00  0.00    +0.280 C 
ENDBRANCH  20  22
ENDBRANCH  14  20
ENDBRANCH   1  11
BRANCH   1  24
ATOM     24  C   LIG    1        3.615   6.880   2.224  0.00  0.00    +0.520 C 
ATOM     25  N   LIG    1        4.338   8.017   2.232  0.00  0.00    -0.700 N 
ATOM     26  H   LIG    1        4.878   8.255   1.462  0.00  0.00    +0.410 HD
ATOM     27  O   LIG    1        2.940   6.583   3.187  0.00  0.00    -0.510 OA
BRANCH  25  28
ATOM     28  C   LIG    1        4.310   8.894   3.405  0.00  0.00    +0.210 C 
ATOM     29  C   LIG    1        3.551  10.215   3.176  0.00  0.00    +0.220 C 
ATOM     30  O   LIG    1        4.646  10.835   3.879  0.00  0.00    -0.360 OA
ATOM     31  C   LIG    1        5.566   9.774   3.555  0.00  0.00    +0.230 C 
ENDBRANCH  25  28
ENDBRANCH   1  24
TORSDOF 9
