REMARK  Name = ZINCtj00001UqOpV.1
REMARK                            x       y       z     vdW  Elec       q    Type
REMARK                         _______ _______ _______ _____ _____    ______ ____
ROOT
ATOM      1  C   LIG    1        3.991  -0.050   1.675  0.00  0.00    +0.250 C 
ENDROOT
BRANCH   1   5
ATOM      2  C   LIG    1        5.157   0.808   5.648  0.00  0.00    +0.120 A 
ATOM      3  C   LIG    1        4.913  -0.516   5.300  0.00  0.00    +0.070 A 
ATOM      4  C   LIG    1        4.527  -0.794   3.998  0.00  0.00    +0.050 A 
ATOM      5  C   LIG    1        4.406   0.244   3.094  0.00  0.00    +0.020 A 
ATOM      6  N   LIG    1        4.645   1.489   3.457  0.00  0.00    -0.440 NA
ATOM      7  C   LIG    1        5.011   1.796   4.685  0.00  0.00    +0.230 A 
BRANCH   2   8
ATOM      8  O   LIG    1        5.534   1.129   6.914  0.00  0.00    -0.300 OA
BRANCH   8  10
ATOM      9  C   LIG    1        6.176   2.677   8.655  0.00  0.00    +0.070 C 
ATOM     10  C   LIG    1        5.764   2.512   7.191  0.00  0.00    +0.190 C 
ENDBRANCH   8  10
ENDBRANCH   2   8
ENDBRANCH   1   5
BRANCH   1  11
ATOM     11  N   LIG    1        3.371   1.145   1.088  0.00  0.00    -0.360 N 
ATOM     12  C   LIG    1        4.361   2.250   1.012  0.00  0.00    +0.280 C 
ATOM     13  C   LIG    1        3.472   3.517   0.933  0.00  0.00    +0.100 C 
ATOM     14  C   LIG    1        2.297   3.175   1.878  0.00  0.00    +0.060 C 
ATOM     15  C   LIG    1        2.284   1.637   1.962  0.00  0.00    +0.230 C 
ATOM     16  H   LIG    1        3.011   0.936   0.169  0.00  0.00    +0.430 HD
BRANCH  15  17
ATOM     17  C   LIG    1        0.938   1.100   1.472  0.00  0.00    -0.060 C 
ATOM     18  C   LIG    1        0.053   0.376   2.490  0.00  0.00    +0.090 C 
ATOM     19  C   LIG    1        0.769  -0.419   1.396  0.00  0.00    +0.030 C 
ENDBRANCH  15  17
BRANCH  14  20
ATOM     20  C   LIG    1        2.532   3.771   3.242  0.00  0.00    +0.470 C 
ATOM     21  O   LIG    1        2.676   3.050   4.200  0.00  0.00    -0.490 OA
BRANCH  20  22
ATOM     22  O   LIG    1        2.575   5.104   3.393  0.00  0.00    -0.350 OA
ATOM     23  C   LIG    1        2.798   5.609   4.736  0.00  0.00    +0.280 C 
ENDBRANCH  20  22
ENDBRANCH  14  20
ENDBRANCH   1  11
BRANCH   1  24
ATOM     24  C   LIG    1        5.203  -0.436   0.867  0.00  0.00    +0.520 C 
ATOM     25  N   LIG    1        5.981  -1.462   1.266  0.00  0.00    -0.700 N 
ATOM     26  H   LIG    1        5.761  -1.951   2.074  0.00  0.00    +0.410 HD
ATOM     27  O   LIG    1        5.478   0.177  -0.143  0.00  0.00    -0.510 OA
BRANCH  25  28
ATOM     28  C   LIG    1        7.159  -1.836   0.480  0.00  0.00    +0.210 C 
ATOM     29  C   LIG    1        6.985  -3.143  -0.317  0.00  0.00    +0.220 C 
ATOM     30  O   LIG    1        8.320  -3.460   0.133  0.00  0.00    -0.360 OA
ATOM     31  C   LIG    1        8.228  -2.599   1.286  0.00  0.00    +0.230 C 
ENDBRANCH  25  28
ENDBRANCH   1  24
TORSDOF 9
