REMARK  Name = ZINCrD000000CqlE.0
REMARK                            x       y       z     vdW  Elec       q    Type
REMARK                         _______ _______ _______ _____ _____    ______ ____
ROOT
ATOM      1  C   LIG    1        1.187   2.088   0.002  0.00  0.00    -0.140 A 
ATOM      2  C   LIG    1        2.399   1.396  -0.013  0.00  0.00    +0.210 A 
ATOM      3  C   LIG    1        2.402   0.016  -0.021  0.00  0.00    -0.700 A 
ATOM      4  C   LIG    1        1.208  -0.682  -0.014  0.00  0.00    +0.190 A 
ATOM      5  C   LIG    1        0.002  -0.004   0.002  0.00  0.00    +0.020 A 
ATOM      6  C   LIG    1       -0.017   1.377   0.010  0.00  0.00    +0.070 A 
ATOM      7 CL   LIG    1       -1.530   2.227   0.021  0.00  0.00    -0.010 Cl
ENDROOT
BRANCH   3   8
ATOM      8  S   LIG    1        3.931  -0.859  -0.041  0.00  0.00    +2.690 S 
ATOM      9  O   LIG    1        3.664  -2.146   0.499  0.00  0.00    -0.940 OA
ATOM     10  O   LIG    1        4.906   0.024   0.499  0.00  0.00    -0.940 OA
BRANCH   8  11
ATOM     11  N   LIG    1        4.341  -1.093  -1.628  0.00  0.00    -1.000 NA
ATOM     12  C   LIG    1        3.908  -2.298  -2.353  0.00  0.00    +0.270 C 
ATOM     13  C   LIG    1        3.257  -1.855  -3.673  0.00  0.00    +0.220 C 
ATOM     14  O   LIG    1        4.154  -0.985  -4.369  0.00  0.00    -0.370 OA
ATOM     15  C   LIG    1        4.449   0.228  -3.673  0.00  0.00    +0.220 C 
ATOM     16  C   LIG    1        5.155  -0.105  -2.354  0.00  0.00    +0.270 C 
ENDBRANCH   8  11
ENDBRANCH   3   8
BRANCH   1  18
ATOM     17  O   LIG    1        0.119   4.164   0.022  0.00  0.00    -0.480 OA
ATOM     18  C   LIG    1        1.176   3.565   0.009  0.00  0.00    +0.510 C 
BRANCH  18  19
ATOM     19  O   LIG    1        2.337   4.247   0.002  0.00  0.00    -0.350 OA
BRANCH  19  20
ATOM     20  C   LIG    1        2.251   5.696   0.010  0.00  0.00    +0.290 C 
BRANCH  20  21
ATOM     21  C   LIG    1        3.639   6.283   0.000  0.00  0.00    -0.090 A 
ATOM     22  C   LIG    1        4.284   6.551   1.193  0.00  0.00    +0.040 A 
ATOM     23  C   LIG    1        5.560   7.083   1.184  0.00  0.00    +0.030 A 
ATOM     24  C   LIG    1        6.186   7.359  -0.017  0.00  0.00    +0.040 A 
ATOM     25  C   LIG    1        5.538   7.096  -1.211  0.00  0.00    -0.040 A 
ATOM     26 CL   LIG    1        6.325   7.441  -2.720  0.00  0.00    -0.060 Cl
ATOM     27  C   LIG    1        4.264   6.558  -1.202  0.00  0.00    +0.050 A 
ENDBRANCH  20  21
ENDBRANCH  19  20
ENDBRANCH  18  19
ENDBRANCH   1  18
TORSDOF 6
