REMARK  Name = ZINCrD000000fC0v.0
REMARK                            x       y       z     vdW  Elec       q    Type
REMARK                         _______ _______ _______ _____ _____    ______ ____
ROOT
ATOM      1  C   LIG    1        0.127   0.044   2.445  0.00  0.00    -0.140 A 
ATOM      2  C   LIG    1        1.036   1.068   2.654  0.00  0.00    +0.120 A 
ATOM      3  C   LIG    1        1.033   1.755   3.877  0.00  0.00    -0.080 A 
ATOM      4  C   LIG    1        1.942   2.800   4.123  0.00  0.00    +0.040 A 
ATOM      5  C   LIG    1        1.915   3.448   5.320  0.00  0.00    +0.010 A 
ATOM      6  C   LIG    1        0.998   3.093   6.307  0.00  0.00    +0.040 A 
ATOM      7  C   LIG    1        0.103   2.087   6.104  0.00  0.00    +0.010 A 
ATOM      8  C   LIG    1        0.100   1.393   4.882  0.00  0.00    -0.000 A 
ATOM      9  C   LIG    1       -0.812   0.351   4.644  0.00  0.00    -0.050 A 
ATOM     10  C   LIG    1       -0.801  -0.305   3.449  0.00  0.00    +0.150 A 
ENDROOT
BRANCH   1  12
ATOM     11  N   LIG    1        0.119   0.001  -0.001  0.00  0.00    -0.610 N 
ATOM     12  C   LIG    1        0.124  -0.683   1.160  0.00  0.00    +0.570 C 
ATOM     13  O   LIG    1        0.126  -1.899   1.149  0.00  0.00    -0.510 OA
ATOM     14  C   LIG    1        0.220   1.463   0.009  0.00  0.00    +0.290 C 
BRANCH  11  15
ATOM     15  C   LIG    1        0.014  -0.717  -1.274  0.00  0.00    +0.300 C 
BRANCH  15  21
ATOM     16  C   LIG    1        5.196  -0.329  -4.637  0.00  0.00    +0.100 C 
ATOM     17  C   LIG    1        4.274   0.311  -3.632  0.00  0.00    +0.530 C 
ATOM     18  N   LIG    1        3.135  -0.313  -3.270  0.00  0.00    -0.620 N 
ATOM     19  C   LIG    1        2.672  -1.614  -3.775  0.00  0.00    +0.240 C 
ATOM     20  C   LIG    1        1.342  -1.935  -3.063  0.00  0.00    +0.050 C 
ATOM     21  C   LIG    1        1.415  -1.065  -1.781  0.00  0.00    -0.030 C 
ATOM     22  C   LIG    1        2.146   0.197  -2.302  0.00  0.00    +0.260 C 
ATOM     23  O   LIG    1        4.556   1.387  -3.148  0.00  0.00    -0.550 OA
ENDBRANCH  15  21
ENDBRANCH  11  15
ENDBRANCH   1  12
BRANCH  10  24
ATOM     24  O   LIG    1       -1.689  -1.307   3.225  0.00  0.00    -0.310 OA
BRANCH  24  25
ATOM     25  C   LIG    1       -2.602  -1.613   4.280  0.00  0.00    +0.600 C 
ATOM     26  F   LIG    1       -3.376  -0.484   4.569  0.00  0.00    -0.200 F 
ATOM     27  F   LIG    1       -1.887  -1.992   5.421  0.00  0.00    -0.200 F 
ENDBRANCH  24  25
ENDBRANCH  10  24
TORSDOF 5
