REMARK  Name = ZINCpe00000Raj8S.0
REMARK                            x       y       z     vdW  Elec       q    Type
REMARK                         _______ _______ _______ _____ _____    ______ ____
ROOT
ATOM      1  C   LIG    1       -2.033   3.423   0.201  0.00  0.00    +0.240 C 
ATOM      2  C   LIG    1       -0.573   3.541   0.648  0.00  0.00    +0.010 C 
ATOM      3  C   LIG    1        0.122   2.186   0.495  0.00  0.00    +0.020 C 
ATOM      4  C   LIG    1        0.097   1.766  -0.978  0.00  0.00    +0.290 C 
ATOM      5  N   LIG    1       -1.293   1.792  -1.455  0.00  0.00    -0.570 N 
ATOM      6  C   LIG    1       -2.079   3.019  -1.276  0.00  0.00    +0.290 C 
ENDROOT
BRANCH   5   7
ATOM      7  C   LIG    1       -1.852   0.676  -2.065  0.00  0.00    +0.350 A 
ATOM      8  N   LIG    1       -1.202  -0.468  -2.087  0.00  0.00    -0.500 NA
ATOM      9  C   LIG    1       -1.733  -1.542  -2.670  0.00  0.00    +0.190 A 
ATOM     10  C   LIG    1       -2.947  -1.504  -3.258  0.00  0.00    +0.170 A 
ATOM     11  N   LIG    1       -3.680  -0.354  -3.276  0.00  0.00    -0.590 N 
ATOM     12  H   LIG    1       -4.552  -0.334  -3.700  0.00  0.00    +0.420 HD
ATOM     13  C   LIG    1       -3.178   0.755  -2.689  0.00  0.00    +0.490 A 
ATOM     14  O   LIG    1       -3.809   1.799  -2.682  0.00  0.00    -0.520 OA
ENDBRANCH   5   7
BRANCH   1  15
ATOM     15  N   LIG    1       -2.703   4.714   0.377  0.00  0.00    -1.120 NA
ATOM     16  H   LIG    1       -2.465   5.465  -0.190  0.00  0.00    +0.420 HD
BRANCH  15  17
ATOM     17  S   LIG    1       -3.866   4.891   1.542  0.00  0.00    +2.780 S 
ATOM     18  O   LIG    1       -4.235   6.264   1.535  0.00  0.00    -0.970 OA
ATOM     19  O   LIG    1       -3.381   4.223   2.698  0.00  0.00    -0.970 OA
BRANCH  17  21
ATOM     20  C   LIG    1       -5.426   2.682   1.520  0.00  0.00    +0.290 C 
ATOM     21  N   LIG    1       -5.198   4.046   1.037  0.00  0.00    -1.000 NA
BRANCH  21  22
ATOM     22  C   LIG    1       -6.148   4.663   0.109  0.00  0.00    +0.240 C 
ATOM     23  C   LIG    1       -7.522   4.760   0.775  0.00  0.00    +0.010 C 
ATOM     24  C   LIG    1       -8.515   5.404  -0.195  0.00  0.00    +0.020 C 
ATOM     25  C   LIG    1       -8.620   4.549  -1.460  0.00  0.00    +0.000 C 
ATOM     26  C   LIG    1       -7.247   4.452  -2.126  0.00  0.00    +0.010 C 
ATOM     27  C   LIG    1       -6.254   3.808  -1.156  0.00  0.00    +0.020 C 
ENDBRANCH  21  22
ENDBRANCH  17  21
ENDBRANCH  15  17
ENDBRANCH   1  15
TORSDOF 5
