REMARK  Name = ZINCkj000005jXLQ.0
REMARK                            x       y       z     vdW  Elec       q    Type
REMARK                         _______ _______ _______ _____ _____    ______ ____
ROOT
ATOM      1  C   LIG    1       -0.767   1.462   3.644  0.00  0.00    +0.140 A 
ATOM      2  C   LIG    1       -1.349   0.576   4.484  0.00  0.00    -0.020 A 
ATOM      3  C   LIG    1       -2.007   1.039   5.642  0.00  0.00    +0.560 A 
ATOM      4  N   LIG    1       -2.051   2.361   5.904  0.00  0.00    -0.350 N 
ATOM      5  N   LIG    1       -2.622   3.088   6.955  0.00  0.00    -0.230 NA
ATOM      6  C   LIG    1       -2.400   4.360   6.769  0.00  0.00    +0.370 A 
ATOM      7  C   LIG    1       -1.666   4.516   5.573  0.00  0.00    -0.170 A 
ATOM      8  C   LIG    1       -1.461   3.242   5.051  0.00  0.00    +0.350 A 
ATOM      9  O   LIG    1       -2.534   0.247   6.403  0.00  0.00    -0.440 OA
ATOM     10  N   LIG    1       -0.815   2.795   3.924  0.00  0.00    -0.600 N 
ATOM     11  H   LIG    1       -0.394   3.431   3.324  0.00  0.00    +0.430 HD
ENDROOT
BRANCH   7  12
ATOM     12  C   LIG    1       -1.217   5.751   5.004  0.00  0.00    +0.270 C 
ATOM     13  N   LIG    1       -0.861   6.731   4.553  0.00  0.00    -0.390 NA
ENDBRANCH   7  12
BRANCH   1  14
ATOM     14  C   LIG    1       -0.062   0.976   2.404  0.00  0.00    +0.370 C 
BRANCH  14  15
ATOM     15  N   LIG    1       -0.768   1.469   1.214  0.00  0.00    -0.390 N 
ATOM     16  C   LIG    1       -0.007   1.110   0.009  0.00  0.00    +0.340 C 
ATOM     17  H   LIG    1       -0.858   2.473   1.268  0.00  0.00    +0.420 HD
BRANCH  15  18
ATOM     18  C   LIG    1       -2.103   0.860   1.149  0.00  0.00    +0.290 C 
BRANCH  18  22
ATOM     19  C   LIG    1       -5.329   2.097  -0.701  0.00  0.00    +0.070 C 
ATOM     20  C   LIG    1       -4.345   1.045  -0.186  0.00  0.00    +0.000 C 
ATOM     21  C   LIG    1       -3.284   0.532  -1.162  0.00  0.00    +0.060 C 
ATOM     22  C   LIG    1       -2.884   1.466  -0.019  0.00  0.00    -0.080 C 
ENDBRANCH  18  22
ENDBRANCH  15  18
ENDBRANCH  14  15
ENDBRANCH   1  14
TORSDOF 5
