REMARK  Name = ZINCkj000005jXLQ.1
REMARK                            x       y       z     vdW  Elec       q    Type
REMARK                         _______ _______ _______ _____ _____    ______ ____
ROOT
ATOM      1  C   LIG    1        0.623  -2.683  -0.018  0.00  0.00    +0.140 A 
ATOM      2  C   LIG    1       -0.672  -2.293  -0.004  0.00  0.00    -0.010 A 
ATOM      3  C   LIG    1       -0.988  -0.919   0.006  0.00  0.00    +0.560 A 
ATOM      4  N   LIG    1        0.002  -0.004   0.002  0.00  0.00    -0.350 N 
ATOM      5  N   LIG    1       -0.017   1.396   0.010  0.00  0.00    -0.230 NA
ATOM      6  C   LIG    1        1.208   1.843   0.000  0.00  0.00    +0.370 A 
ATOM      7  C   LIG    1        2.088   0.738  -0.014  0.00  0.00    -0.170 A 
ATOM      8  C   LIG    1        1.301  -0.410  -0.013  0.00  0.00    +0.350 A 
ATOM      9  O   LIG    1       -2.152  -0.560   0.019  0.00  0.00    -0.440 OA
ATOM     10  N   LIG    1        1.614  -1.747  -0.023  0.00  0.00    -0.600 N 
ATOM     11  H   LIG    1        2.543  -2.026  -0.033  0.00  0.00    +0.440 HD
ENDROOT
BRANCH   7  12
ATOM     12  C   LIG    1        3.519   0.790  -0.027  0.00  0.00    +0.270 C 
ATOM     13  N   LIG    1        4.654   0.831  -0.038  0.00  0.00    -0.390 NA
ENDBRANCH   7  12
BRANCH   1  14
ATOM     14  C   LIG    1        0.970  -4.150  -0.029  0.00  0.00    +0.370 C 
BRANCH  14  15
ATOM     15  N   LIG    1        1.640  -4.485  -1.292  0.00  0.00    -0.390 N 
ATOM     16  C   LIG    1        0.704  -4.300  -2.408  0.00  0.00    +0.320 C 
ATOM     17  H   LIG    1        2.439  -3.882  -1.419  0.00  0.00    +0.420 HD
BRANCH  15  18
ATOM     18  C   LIG    1        2.085  -5.885  -1.254  0.00  0.00    +0.310 C 
BRANCH  18  22
ATOM     19  C   LIG    1        3.388  -8.176  -4.155  0.00  0.00    +0.070 C 
ATOM     20  C   LIG    1        3.348  -7.644  -2.721  0.00  0.00    +0.010 C 
ATOM     21  C   LIG    1        4.366  -6.566  -2.339  0.00  0.00    +0.060 C 
ATOM     22  C   LIG    1        2.891  -6.199  -2.516  0.00  0.00    -0.090 C 
ENDBRANCH  18  22
ENDBRANCH  15  18
ENDBRANCH  14  15
ENDBRANCH   1  14
TORSDOF 5
