REMARK  Name = ZINCpe00000LnJs8.0
REMARK                            x       y       z     vdW  Elec       q    Type
REMARK                         _______ _______ _______ _____ _____    ______ ____
ROOT
ATOM      1  C   LIG    1        0.617   4.031   0.315  0.00  0.00    +0.410 A 
ATOM      2  N   LIG    1        1.573   3.171   0.580  0.00  0.00    -0.330 NA
ATOM      3  N   LIG    1        1.267   1.841   0.875  0.00  0.00    -0.270 N 
ATOM      4  C   LIG    1       -0.039   1.422   0.892  0.00  0.00    +0.120 A 
ATOM      5  C   LIG    1       -1.063   2.346   0.612  0.00  0.00    +0.200 A 
ATOM      6  N   LIG    1       -0.030   0.132   1.198  0.00  0.00    -0.240 NA
ATOM      7  N   LIG    1        1.184  -0.262   1.369  0.00  0.00    -0.240 NA
ATOM      8  C   LIG    1        2.017   0.745   1.183  0.00  0.00    +0.250 A 
ATOM      9  C   LIG    1       -0.733   3.633   0.323  0.00  0.00    -0.020 A 
ENDROOT
BRANCH   8  10
ATOM     10  C   LIG    1        3.490   0.693   1.288  0.00  0.00    +0.000 A 
ATOM     11  C   LIG    1        4.229   1.875   1.371  0.00  0.00    +0.060 A 
ATOM     12  C   LIG    1        5.604   1.821   1.475  0.00  0.00    +0.050 A 
ATOM     13  C   LIG    1        6.253   0.599   1.486  0.00  0.00    +0.000 A 
ATOM     14  C   LIG    1        5.527  -0.578   1.399  0.00  0.00    +0.100 A 
ATOM     15  F   LIG    1        6.167  -1.768   1.411  0.00  0.00    -0.130 F 
ATOM     16  C   LIG    1        4.149  -0.537   1.300  0.00  0.00    +0.040 A 
ENDBRANCH   8  10
BRANCH   1  17
ATOM     17  N   LIG    1        0.943   5.352   0.023  0.00  0.00    -0.680 N 
ATOM     18  H   LIG    1        0.241   5.992  -0.173  0.00  0.00    +0.430 HD
BRANCH  17  27
ATOM     19  O   LIG    1        3.875   5.414   1.783  0.00  0.00    -0.520 OA
ATOM     20  C   LIG    1        2.839   5.940   1.434  0.00  0.00    +0.510 C 
ATOM     21  N   LIG    1        2.130   6.668   2.304  0.00  0.00    -0.720 N 
ATOM     22  H   LIG    1        2.445   6.778   3.215  0.00  0.00    +0.400 HD
ATOM     23  C   LIG    1        0.870   7.300   1.880  0.00  0.00    +0.250 C 
ATOM     24  C   LIG    1        1.199   8.441   0.912  0.00  0.00    +0.220 C 
ATOM     25  O   LIG    1        1.354   7.946  -0.406  0.00  0.00    -0.380 OA
ATOM     26  C   LIG    1        2.471   7.125  -0.703  0.00  0.00    +0.260 C 
ATOM     27  C   LIG    1        2.345   5.775   0.012  0.00  0.00    +0.230 C 
ENDBRANCH  17  27
ENDBRANCH   1  17
TORSDOF 3
