REMARK  Name = ZINCqH0000007jKf.0
REMARK                            x       y       z     vdW  Elec       q    Type
REMARK                         _______ _______ _______ _____ _____    ______ ____
ROOT
ATOM      1  N   LIG    1        3.513   1.644  -3.320  0.00  0.00    -0.670 N 
ATOM      2  H   LIG    1        3.671   2.525  -2.945  0.00  0.00    +0.410 HD
ATOM      3  C   LIG    1        2.288   1.089  -3.243  0.00  0.00    +0.710 C 
ATOM      4  N   LIG    1        1.311   1.704  -2.548  0.00  0.00    -0.730 N 
ATOM      5  H   LIG    1        1.490   2.547  -2.102  0.00  0.00    +0.400 HD
ATOM      6  O   LIG    1        2.063   0.032  -3.802  0.00  0.00    -0.570 OA
ENDROOT
BRANCH   1  12
ATOM      7  C   LIG    1        5.638   1.649  -4.480  0.00  0.00    +0.080 A 
ATOM      8  C   LIG    1        6.672   0.961  -5.093  0.00  0.00    -0.030 A 
ATOM      9  C   LIG    1        6.636  -0.418  -5.172  0.00  0.00    +0.040 A 
ATOM     10  C   LIG    1        5.564  -1.118  -4.637  0.00  0.00    +0.130 A 
ATOM     11  C   LIG    1        4.527  -0.434  -4.016  0.00  0.00    +0.040 A 
ATOM     12  C   LIG    1        4.560   0.950  -3.942  0.00  0.00    +0.160 A 
BRANCH  10  13
ATOM     13  N   LIG    1        5.529  -2.517  -4.717  0.00  0.00    -0.670 N 
ATOM     14  H   LIG    1        4.683  -2.975  -4.839  0.00  0.00    +0.410 HD
ATOM     15  C   LIG    1        6.673  -3.225  -4.625  0.00  0.00    +0.510 C 
ATOM     16  O   LIG    1        7.739  -2.650  -4.559  0.00  0.00    -0.530 OA
ATOM     17  C   LIG    1        6.626  -4.731  -4.605  0.00  0.00    +0.110 C 
ENDBRANCH  10  13
BRANCH   7  19
ATOM     18  C   LIG    1        6.811   3.658  -4.976  0.00  0.00    +0.250 C 
ATOM     19  O   LIG    1        5.676   3.007  -4.403  0.00  0.00    -0.320 OA
ENDBRANCH   7  19
ENDBRANCH   1  12
BRANCH   4  20
ATOM     20  C   LIG    1       -0.021   1.100  -2.465  0.00  0.00    +0.250 C 
ATOM     21  C   LIG    1       -0.842   1.504  -3.691  0.00  0.00    +0.020 C 
BRANCH  20  22
ATOM     22  C   LIG    1       -0.724   1.588  -1.197  0.00  0.00    +0.030 C 
BRANCH  22  23
ATOM     23  C   LIG    1        0.029   1.078   0.033  0.00  0.00    +0.060 C 
BRANCH  23  24
ATOM     24  C   LIG    1       -0.663   1.559   1.282  0.00  0.00    -0.080 A 
ATOM     25  C   LIG    1       -0.300   2.764   1.853  0.00  0.00    +0.000 A 
ATOM     26  C   LIG    1       -0.939   3.208   2.996  0.00  0.00    +0.000 A 
ATOM     27  C   LIG    1       -1.934   2.442   3.574  0.00  0.00    +0.000 A 
ATOM     28  C   LIG    1       -2.293   1.234   3.006  0.00  0.00    +0.000 A 
ATOM     29  C   LIG    1       -1.658   0.792   1.860  0.00  0.00    +0.000 A 
ENDBRANCH  23  24
ENDBRANCH  22  23
ENDBRANCH  20  22
ENDBRANCH   4  20
TORSDOF 7
