REMARK  Name = ZINCpk00000xI8c7.0
REMARK                            x       y       z     vdW  Elec       q    Type
REMARK                         _______ _______ _______ _____ _____    ______ ____
ROOT
ATOM      1  N   LIG    1        3.339   2.395  -0.599  0.00  0.00    -0.510 NA
ATOM      2  C   LIG    1        4.742   1.974  -0.700  0.00  0.00    +0.180 C 
ATOM      3  C   LIG    1        5.298   1.721   0.706  0.00  0.00    +0.310 C 
ATOM      4  N   LIG    1        4.412   0.772   1.396  0.00  0.00    -1.000 NA
ATOM      5  C   LIG    1        2.969   1.059   1.420  0.00  0.00    +0.310 C 
ATOM      6  C   LIG    1        2.505   1.337  -0.014  0.00  0.00    +0.220 C 
ENDROOT
BRANCH   6   7
ATOM      7  C   LIG    1        1.065   1.782   0.002  0.00  0.00    +0.200 A 
ATOM      8  N   LIG    1        0.651   3.020   0.012  0.00  0.00    -0.450 NA
ATOM      9  C   LIG    1       -0.690   3.038   0.025  0.00  0.00    +0.140 A 
ATOM     10  C   LIG    1       -1.124   1.763   0.016  0.00  0.00    +0.130 A 
ATOM     11  N   LIG    1       -0.011   0.966   0.007  0.00  0.00    -0.570 N 
ATOM     12  H   LIG    1        0.002  -0.004   0.002  0.00  0.00    +0.420 HD
ENDBRANCH   6   7
BRANCH   4  13
ATOM     13  S   LIG    1        5.021  -0.583   2.127  0.00  0.00    +2.600 S 
ATOM     14  O   LIG    1        4.079  -0.884   3.147  0.00  0.00    -0.940 OA
ATOM     15  O   LIG    1        6.361  -0.235   2.448  0.00  0.00    -0.940 OA
BRANCH  13  16
ATOM     16  C   LIG    1        4.985  -1.852   0.832  0.00  0.00    -0.300 C 
BRANCH  16  17
ATOM     17  C   LIG    1        5.522  -3.147   1.383  0.00  0.00    -0.100 A 
ATOM     18  C   LIG    1        4.662  -4.055   1.974  0.00  0.00    +0.060 A 
ATOM     19  C   LIG    1        5.147  -5.248   2.482  0.00  0.00    +0.030 A 
ATOM     20  C   LIG    1        6.493  -5.538   2.402  0.00  0.00    +0.080 A 
ATOM     21  C   LIG    1        7.367  -4.626   1.807  0.00  0.00    -0.020 A 
ATOM     22  C   LIG    1        6.870  -3.428   1.291  0.00  0.00    +0.080 A 
BRANCH  21  23
ATOM     23  C   LIG    1        8.765  -4.922   1.720  0.00  0.00    +0.250 C 
ATOM     24  N   LIG    1        9.875  -5.156   1.651  0.00  0.00    -0.400 NA
ENDBRANCH  21  23
ENDBRANCH  16  17
ENDBRANCH  13  16
ENDBRANCH   4  13
BRANCH   1  26
ATOM     25  C   LIG    1        3.553   4.072  -2.371  0.00  0.00    +0.030 C 
ATOM     26  C   LIG    1        2.819   2.812  -1.908  0.00  0.00    +0.160 C 
ENDBRANCH   1  26
TORSDOF 6
