REMARK  Name = ZINCrH00000tj0UO.0
REMARK                            x       y       z     vdW  Elec       q    Type
REMARK                         _______ _______ _______ _____ _____    ______ ____
ROOT
ATOM      1  C   LIG    1        3.268   3.632   0.693  0.00  0.00    -0.680 A 
ATOM      2  C   LIG    1        3.120   2.949  -0.500  0.00  0.00    +0.210 A 
ATOM      3  C   LIG    1        2.080   2.054  -0.660  0.00  0.00    +0.020 A 
ATOM      4  C   LIG    1        1.176   1.849   0.375  0.00  0.00    +0.270 A 
ATOM      5  C   LIG    1        1.328   2.537   1.572  0.00  0.00    -0.080 A 
ATOM      6  C   LIG    1        2.373   3.426   1.728  0.00  0.00    +0.230 A 
ENDROOT
BRANCH   1   7
ATOM      7  S   LIG    1        4.600   4.768   0.896  0.00  0.00    +2.710 S 
ATOM      8  O   LIG    1        4.201   5.677   1.912  0.00  0.00    -0.950 OA
ATOM      9  O   LIG    1        4.979   5.179  -0.411  0.00  0.00    -0.950 OA
BRANCH   7  10
ATOM     10  N   LIG    1        5.881   3.916   1.508  0.00  0.00    -1.250 NA
ATOM     11  H   LIG    1        6.720   4.367   1.692  0.00  0.00    +0.430 HD
ATOM     12  H   LIG    1        5.793   2.966   1.682  0.00  0.00    +0.420 HD
ENDBRANCH   7  10
ENDBRANCH   1   7
BRANCH   5  13
ATOM     13  N   LIG    1        0.371   2.317   2.680  0.00  0.00    +0.030 N 
ATOM     14  O   LIG    1       -0.514   1.489   2.564  0.00  0.00    -0.120 OA
ATOM     15  O   LIG    1        0.469   2.965   3.707  0.00  0.00    -0.160 OA
ENDBRANCH   5  13
BRANCH   4  16
ATOM     16  N   LIG    1        0.121   0.948   0.214  0.00  0.00    -0.700 N 
ATOM     17  H   LIG    1        0.279  -0.005   0.298  0.00  0.00    +0.420 HD
BRANCH  16  18
ATOM     18  C   LIG    1       -1.165   1.421  -0.073  0.00  0.00    +0.220 A 
ATOM     19  C   LIG    1       -1.381   2.781  -0.253  0.00  0.00    -0.060 A 
ATOM     20  C   LIG    1       -2.648   3.246  -0.542  0.00  0.00    +0.050 A 
ATOM     21  C   LIG    1       -3.708   2.356  -0.642  0.00  0.00    +0.040 A 
ATOM     22  C   LIG    1       -3.494   0.998  -0.457  0.00  0.00    +0.070 A 
ATOM     23  C   LIG    1       -2.226   0.530  -0.173  0.00  0.00    -0.010 A 
BRANCH  21  24
ATOM     24  O   LIG    1       -4.957   2.815  -0.922  0.00  0.00    -0.250 OA
BRANCH  24  25
ATOM     25  C   LIG    1       -5.234   3.170  -2.204  0.00  0.00    +0.120 A 
ATOM     26  C   LIG    1       -4.292   2.961  -3.201  0.00  0.00    -0.070 A 
ATOM     27  C   LIG    1       -4.578   3.318  -4.505  0.00  0.00    +0.040 A 
ATOM     28  C   LIG    1       -5.798   3.892  -4.814  0.00  0.00    -0.030 A 
ATOM     29  C   LIG    1       -6.735   4.106  -3.821  0.00  0.00    +0.050 A 
ATOM     30  C   LIG    1       -6.457   3.747  -2.517  0.00  0.00    -0.020 A 
ENDBRANCH  24  25
ENDBRANCH  21  24
ENDBRANCH  16  18
ENDBRANCH   4  16
TORSDOF 7
