REMARK  Name = ZINCpe000000TIuy.0
REMARK                            x       y       z     vdW  Elec       q    Type
REMARK                         _______ _______ _______ _____ _____    ______ ____
ROOT
ATOM      1  N   LIG    1        3.625   1.776  -0.069  0.00  0.00    -0.580 N 
ATOM      2  C   LIG    1        2.618   0.908   0.157  0.00  0.00    +0.590 C 
ATOM      3  O   LIG    1        2.854  -0.279   0.276  0.00  0.00    -0.500 OA
ATOM      4  C   LIG    1        3.357   3.216  -0.101  0.00  0.00    +0.310 C 
ENDROOT
BRANCH   2   5
ATOM      5  C   LIG    1        1.232   1.398   0.259  0.00  0.00    -0.100 A 
ATOM      6  C   LIG    1        0.764   1.976   1.433  0.00  0.00    +0.160 A 
ATOM      7  C   LIG    1       -0.558   2.425   1.494  0.00  0.00    +0.040 A 
ATOM      8  C   LIG    1       -1.382   2.315   0.427  0.00  0.00    +0.320 A 
ATOM      9  N   LIG    1       -0.966   1.758  -0.738  0.00  0.00    -0.300 N 
ATOM     10  N   LIG    1       -1.579   1.511  -1.975  0.00  0.00    -0.100 NA
ATOM     11  N   LIG    1       -0.695   0.949  -2.728  0.00  0.00    +0.000 NA
ATOM     12  N   LIG    1        0.419   0.812  -2.099  0.00  0.00    -0.310 NA
ATOM     13  C   LIG    1        0.312   1.290  -0.873  0.00  0.00    +0.260 A 
ENDBRANCH   2   5
BRANCH   1  14
ATOM     14  C   LIG    1        4.986   1.279  -0.282  0.00  0.00    +0.350 C 
BRANCH  14  15
ATOM     15  C   LIG    1        5.896   1.833   0.784  0.00  0.00    -0.160 A 
ATOM     16  C   LIG    1        6.022   3.203   0.957  0.00  0.00    +0.070 A 
ATOM     17  C   LIG    1        6.870   3.668   1.950  0.00  0.00    -0.030 A 
ATOM     18  C   LIG    1        7.557   2.757   2.730  0.00  0.00    +0.270 A 
ATOM     19  N   LIG    1        7.413   1.460   2.537  0.00  0.00    -0.480 NA
ATOM     20  C   LIG    1        6.611   0.982   1.606  0.00  0.00    +0.290 A 
ENDBRANCH  14  15
BRANCH  14  21
ATOM     21  C   LIG    1        5.475   1.718  -1.638  0.00  0.00    +0.460 C 
ATOM     22  O   LIG    1        4.759   2.379  -2.353  0.00  0.00    -0.490 OA
BRANCH  21  23
ATOM     23  O   LIG    1        6.705   1.376  -2.051  0.00  0.00    -0.350 OA
BRANCH  23  25
ATOM     24  C   LIG    1        8.530   1.350  -3.663  0.00  0.00    +0.070 C 
ATOM     25  C   LIG    1        7.109   1.834  -3.369  0.00  0.00    +0.200 C 
ENDBRANCH  23  25
ENDBRANCH  21  23
ENDBRANCH  14  21
ENDBRANCH   1  14
TORSDOF 6
