REMARK  Name = ZINCkj000005lh0i.0
REMARK                            x       y       z     vdW  Elec       q    Type
REMARK                         _______ _______ _______ _____ _____    ______ ____
ROOT
ATOM      1  C   LIG    1       -5.919   1.012   0.139  0.00  0.00    +0.270 C 
ENDROOT
BRANCH   1   5
ATOM      2  C   LIG    1       -9.304   0.030   1.200  0.00  0.00    -0.010 C 
ATOM      3  C   LIG    1       -8.932   1.156   2.192  0.00  0.00    +0.090 C 
ATOM      4  C   LIG    1       -7.421   1.380   1.997  0.00  0.00    +0.270 C 
ATOM      5  N   LIG    1       -6.966   0.411   0.977  0.00  0.00    -0.390 N 
ATOM      6  H   LIG    1       -6.620  -0.426   1.420  0.00  0.00    +0.430 HD
ATOM      7  C   LIG    1       -8.163   0.098   0.154  0.00  0.00    +0.300 C 
BRANCH   2  11
ATOM      8  N   LIG    1      -11.762   0.289   1.296  0.00  0.00    -0.840 N 
ATOM      9  H   LIG    1      -12.620   0.464   0.880  0.00  0.00    +0.420 HD
ATOM     10  H   LIG    1      -11.713   0.104   2.247  0.00  0.00    +0.410 HD
ATOM     11  C   LIG    1      -10.637   0.302   0.553  0.00  0.00    +0.530 C 
ATOM     12  O   LIG    1      -10.699   0.533  -0.636  0.00  0.00    -0.530 OA
ENDBRANCH   2  11
ENDBRANCH   1   5
BRANCH   1  13
ATOM     13  C   LIG    1       -4.652   1.213   0.973  0.00  0.00    -0.030 C 
ATOM     14  C   LIG    1       -4.017  -0.153   1.322  0.00  0.00    +0.030 C 
ATOM     15  C   LIG    1       -2.499   0.125   1.185  0.00  0.00    +0.200 C 
ATOM     16  N   LIG    1       -2.426   1.042   0.019  0.00  0.00    -0.480 N 
ATOM     17  C   LIG    1       -3.583   1.954   0.150  0.00  0.00    +0.200 C 
BRANCH  16  18
ATOM     18  C   LIG    1       -1.224   1.755   0.017  0.00  0.00    +0.060 A 
ATOM     19  C   LIG    1       -0.935   2.633   1.054  0.00  0.00    -0.030 A 
ATOM     20  C   LIG    1        0.257   3.332   1.052  0.00  0.00    +0.020 A 
ATOM     21  C   LIG    1        1.158   3.162   0.017  0.00  0.00    +0.020 A 
ATOM     22  C   LIG    1        0.871   2.292  -1.019  0.00  0.00    +0.020 A 
ATOM     23  C   LIG    1       -0.319   1.591  -1.024  0.00  0.00    +0.040 A 
ENDBRANCH  16  18
ENDBRANCH   1  13
TORSDOF 4
