REMARK  Name = ZINCkj000005lh0i.1
REMARK                            x       y       z     vdW  Elec       q    Type
REMARK                         _______ _______ _______ _____ _____    ______ ____
ROOT
ATOM      1  C   LIG    1        1.674   3.146   0.889  0.00  0.00    +0.280 C 
ENDROOT
BRANCH   1   5
ATOM      2  C   LIG    1        4.309   4.628   2.597  0.00  0.00    +0.010 C 
ATOM      3  C   LIG    1        5.108   3.438   2.003  0.00  0.00    +0.100 C 
ATOM      4  C   LIG    1        3.984   2.617   1.328  0.00  0.00    +0.260 C 
ATOM      5  N   LIG    1        3.057   3.626   0.772  0.00  0.00    -0.390 N 
ATOM      6  H   LIG    1        3.279   3.792  -0.199  0.00  0.00    +0.430 HD
ATOM      7  C   LIG    1        3.215   4.876   1.538  0.00  0.00    +0.290 C 
BRANCH   2  11
ATOM      8  N   LIG    1        6.213   5.828   3.625  0.00  0.00    -0.840 N 
ATOM      9  H   LIG    1        6.781   6.608   3.720  0.00  0.00    +0.420 HD
ATOM     10  H   LIG    1        6.380   5.038   4.162  0.00  0.00    +0.410 HD
ATOM     11  C   LIG    1        5.192   5.841   2.745  0.00  0.00    +0.530 C 
ATOM     12  O   LIG    1        4.983   6.829   2.073  0.00  0.00    -0.530 OA
ENDBRANCH   2  11
ENDBRANCH   1   5
BRANCH   1  13
ATOM     13  C   LIG    1        1.481   1.924  -0.011  0.00  0.00    -0.040 C 
ATOM     14  C   LIG    1        2.227   0.693   0.567  0.00  0.00    +0.040 C 
ATOM     15  C   LIG    1        1.402  -0.478  -0.023  0.00  0.00    +0.210 C 
ATOM     16  N   LIG    1        0.002  -0.004   0.002  0.00  0.00    -0.470 N 
ATOM     17  C   LIG    1        0.006   1.470  -0.005  0.00  0.00    +0.220 C 
BRANCH  16  18
ATOM     18  C   LIG    1       -0.717  -0.508  -1.084  0.00  0.00    +0.090 A 
ATOM     19  C   LIG    1       -1.860   0.145  -1.527  0.00  0.00    -0.040 A 
ATOM     20  C   LIG    1       -2.565  -0.353  -2.604  0.00  0.00    +0.040 A 
ATOM     21  C   LIG    1       -2.141  -1.508  -3.236  0.00  0.00    -0.010 A 
ATOM     22  C   LIG    1       -1.006  -2.164  -2.795  0.00  0.00    +0.040 A 
ATOM     23  C   LIG    1       -0.293  -1.668  -1.721  0.00  0.00    -0.030 A 
ENDBRANCH  16  18
ENDBRANCH   1  13
TORSDOF 4
