REMARK  Name = ZINCrD00000f9jsG.0
REMARK                            x       y       z     vdW  Elec       q    Type
REMARK                         _______ _______ _______ _____ _____    ______ ____
ROOT
ATOM      1  C   LIG    1       -5.592   5.033   0.294  0.00  0.00    +0.280 C 
ENDROOT
BRANCH   1   2
ATOM      2  N   LIG    1       -6.394   6.259   0.315  0.00  0.00    -0.750 N 
ATOM      3  H   LIG    1       -5.958   7.124   0.269  0.00  0.00    +0.400 HD
ATOM      4  C   LIG    1       -7.737   6.184   0.397  0.00  0.00    +0.710 C 
ATOM      5  N   LIG    1       -8.481   7.304   0.307  0.00  0.00    -0.620 N 
ATOM      6  C   LIG    1       -9.929   7.184   0.298  0.00  0.00    +0.310 C 
ATOM      7  C   LIG    1      -10.547   7.836  -0.924  0.00  0.00    +0.070 C 
ATOM      8  C   LIG    1       -9.892   9.165  -1.267  0.00  0.00    -0.100 C 
ATOM      9  C   LIG    1       -8.490   9.502  -0.785  0.00  0.00    -0.020 C 
ATOM     10  C   LIG    1      -10.857  10.335  -1.465  0.00  0.00    +0.100 C 
ATOM     11  C   LIG    1       -8.682   9.096  -2.215  0.00  0.00    +0.200 C 
ATOM     12  F   LIG    1       -8.569  10.090  -3.192  0.00  0.00    -0.160 F 
ATOM     13  F   LIG    1       -8.223   7.828  -2.586  0.00  0.00    -0.150 F 
ATOM     14  C   LIG    1       -7.806   8.590   0.228  0.00  0.00    +0.320 C 
ATOM     15  O   LIG    1       -8.277   5.106   0.553  0.00  0.00    -0.580 OA
ENDBRANCH   1   2
BRANCH   1  16
ATOM     16  C   LIG    1       -4.109   5.396   0.196  0.00  0.00    +0.010 C 
BRANCH  16  17
ATOM     17  C   LIG    1       -3.271   4.116   0.175  0.00  0.00    +0.260 C 
BRANCH  17  18
ATOM     18  N   LIG    1       -1.851   4.463   0.082  0.00  0.00    -0.720 N 
ATOM     19  H   LIG    1       -1.580   5.394   0.044  0.00  0.00    +0.420 HD
BRANCH  18  24
ATOM     20  C   LIG    1        2.067   0.366  -0.058  0.00  0.00    +0.100 C 
ATOM     21  C   LIG    1        1.026   1.455  -0.022  0.00  0.00    -0.140 A 
ATOM     22  C   LIG    1       -0.317   1.126  -0.041  0.00  0.00    +0.120 A 
ATOM     23  C   LIG    1       -1.274   2.122  -0.013  0.00  0.00    -0.050 A 
ATOM     24  C   LIG    1       -0.885   3.454   0.046  0.00  0.00    +0.280 A 
ATOM     25  C   LIG    1        0.465   3.781   0.065  0.00  0.00    -0.120 A 
ATOM     26  C   LIG    1        1.416   2.781   0.031  0.00  0.00    +0.140 A 
BRANCH  25  27
ATOM     27  N   LIG    1        0.883   5.200   0.123  0.00  0.00    +0.050 N 
ATOM     28  O   LIG    1        0.048   6.084   0.050  0.00  0.00    -0.210 OA
ATOM     29  O   LIG    1        2.061   5.483   0.243  0.00  0.00    -0.160 OA
ENDBRANCH  25  27
ENDBRANCH  18  24
ENDBRANCH  17  18
ENDBRANCH  16  17
ENDBRANCH   1  16
TORSDOF 6
