REMARK  Name = ZINCvU000000044g.0
REMARK                            x       y       z     vdW  Elec       q    Type
REMARK                         _______ _______ _______ _____ _____    ______ ____
ROOT
ATOM      1  C   LIG    1       -3.280   2.913  -0.125  0.00  0.00    +0.160 A 
ATOM      2  N   LIG    1       -2.479   3.897   0.216  0.00  0.00    -0.270 NA
ATOM      3  N   LIG    1       -1.269   3.474   0.306  0.00  0.00    -0.240 NA
ATOM      4  C   LIG    1       -1.218   2.191   0.020  0.00  0.00    +0.280 A 
ATOM      5  N   LIG    1       -2.508   1.790  -0.262  0.00  0.00    -0.410 N 
ENDROOT
BRANCH   5   6
ATOM      6  C   LIG    1       -2.937   0.504  -0.616  0.00  0.00    +0.100 A 
ATOM      7  C   LIG    1       -2.521  -0.064  -1.813  0.00  0.00    +0.040 A 
ATOM      8  C   LIG    1       -2.943  -1.333  -2.157  0.00  0.00    +0.040 A 
ATOM      9  C   LIG    1       -3.787  -2.035  -1.315  0.00  0.00    +0.040 A 
ATOM     10  C   LIG    1       -4.207  -1.470  -0.125  0.00  0.00    +0.040 A 
ATOM     11  C   LIG    1       -3.785  -0.203   0.226  0.00  0.00    +0.030 A 
ENDBRANCH   5   6
BRANCH   4  12
ATOM     12  C   LIG    1       -0.016   1.343   0.009  0.00  0.00    +0.030 A 
ATOM     13  C   LIG    1        1.274   1.784  -0.001  0.00  0.00    +0.030 A 
ATOM     14  C   LIG    1        2.093   0.639  -0.015  0.00  0.00    -0.050 A 
ATOM     15  C   LIG    1        1.275  -0.433  -0.012  0.00  0.00    +0.200 A 
ATOM     16  O   LIG    1        0.002  -0.004   0.002  0.00  0.00    -0.170 OA
ENDBRANCH   4  12
BRANCH   1  17
ATOM     17  S   LIG    1       -5.022   3.018  -0.362  0.00  0.00    +0.070 S 
BRANCH  17  18
ATOM     18  C   LIG    1       -5.283   4.773  -0.006  0.00  0.00    +0.260 C 
BRANCH  18  22
ATOM     19  C   LIG    1       -8.811   5.427   0.206  0.00  0.00    +0.220 A 
ATOM     20  N   LIG    1       -8.541   5.691  -1.045  0.00  0.00    -0.360 NA
ATOM     21  O   LIG    1       -7.362   5.511  -1.265  0.00  0.00    +0.100 OA
ATOM     22  C   LIG    1       -6.746   5.103  -0.150  0.00  0.00    +0.190 A 
ATOM     23  N   LIG    1       -7.654   5.040   0.791  0.00  0.00    -0.450 NA
BRANCH  19  28
ATOM     24  C   LIG    1      -13.965   5.808   2.752  0.00  0.00    +0.110 C 
ATOM     25  C   LIG    1      -12.617   5.709   2.086  0.00  0.00    -0.100 A 
ATOM     26  C   LIG    1      -11.516   5.301   2.816  0.00  0.00    +0.050 A 
ATOM     27  C   LIG    1      -10.279   5.204   2.209  0.00  0.00    +0.060 A 
ATOM     28  C   LIG    1      -10.139   5.526   0.861  0.00  0.00    -0.000 A 
ATOM     29  C   LIG    1      -11.251   5.936   0.129  0.00  0.00    +0.030 A 
ATOM     30  C   LIG    1      -12.485   6.026   0.744  0.00  0.00    +0.100 A 
ATOM     31  F   LIG    1      -13.565   6.423   0.035  0.00  0.00    -0.130 F 
ENDBRANCH  19  28
ENDBRANCH  18  22
ENDBRANCH  17  18
ENDBRANCH   1  17
TORSDOF 6
