REMARK  Name = ZINCvU0000000As2.2
REMARK                            x       y       z     vdW  Elec       q    Type
REMARK                         _______ _______ _______ _____ _____    ______ ____
ROOT
ATOM      1  C   LIG    1       -2.537  -2.916  -2.403  0.00  0.00    +0.570 C 
ATOM      2  N   LIG    1       -1.650  -3.647  -1.699  0.00  0.00    -0.720 N 
ATOM      3  H   LIG    1       -0.847  -3.231  -1.350  0.00  0.00    +0.400 HD
ATOM      4  O   LIG    1       -3.496  -3.456  -2.920  0.00  0.00    -0.540 OA
ENDROOT
BRANCH   1   6
ATOM      5  C   LIG    1       -3.278  -0.725  -3.136  0.00  0.00    +0.150 C 
ATOM      6  C   LIG    1       -2.344  -1.465  -2.546  0.00  0.00    -0.180 C 
BRANCH   6   7
ATOM      7  C   LIG    1       -1.087  -0.816  -2.025  0.00  0.00    +0.210 C 
BRANCH   7   8
ATOM      8  N   LIG    1       -0.013  -0.964  -3.015  0.00  0.00    -0.520 NA
ATOM      9  C   LIG    1       -0.431  -0.443  -4.330  0.00  0.00    +0.180 C 
ATOM     10  C   LIG    1        0.593   0.635  -4.742  0.00  0.00    +0.010 C 
ATOM     11  C   LIG    1        1.845   0.266  -3.905  0.00  0.00    +0.040 C 
ATOM     12  C   LIG    1        1.204  -0.240  -2.588  0.00  0.00    +0.180 C 
BRANCH  12  13
ATOM     13  C   LIG    1        2.145  -1.174  -1.872  0.00  0.00    -0.070 A 
ATOM     14  C   LIG    1        2.094  -2.532  -2.121  0.00  0.00    +0.050 A 
ATOM     15  C   LIG    1        2.960  -3.388  -1.466  0.00  0.00    +0.030 A 
ATOM     16  C   LIG    1        3.871  -2.888  -0.555  0.00  0.00    +0.030 A 
ATOM     17  C   LIG    1        3.919  -1.530  -0.301  0.00  0.00    +0.020 A 
ATOM     18  C   LIG    1        3.056  -0.672  -0.959  0.00  0.00    -0.040 A 
ATOM     19 CL   LIG    1        3.116   1.034  -0.640  0.00  0.00    -0.070 Cl
ENDBRANCH  12  13
ENDBRANCH   7   8
ENDBRANCH   6   7
ENDBRANCH   1   6
BRANCH   2  20
ATOM     20  C   LIG    1       -1.900  -5.071  -1.462  0.00  0.00    +0.340 C 
BRANCH  20  21
ATOM     21  C   LIG    1       -0.589  -5.779  -1.231  0.00  0.00    -0.140 A 
ATOM     22  C   LIG    1       -0.370  -7.040  -1.765  0.00  0.00    +0.080 A 
ATOM     23  C   LIG    1        0.853  -7.651  -1.533  0.00  0.00    -0.030 A 
ATOM     24  C   LIG    1        1.801  -6.993  -0.772  0.00  0.00    +0.260 A 
ATOM     25  N   LIG    1        1.555  -5.796  -0.275  0.00  0.00    -0.470 NA
ATOM     26  C   LIG    1        0.406  -5.183  -0.481  0.00  0.00    +0.250 A 
ENDBRANCH  20  21
BRANCH  20  27
ATOM     27  C   LIG    1       -2.777  -5.231  -0.247  0.00  0.00    -0.090 A 
ATOM     28  C   LIG    1       -2.574  -4.433   0.863  0.00  0.00    +0.020 A 
ATOM     29  C   LIG    1       -3.382  -4.576   1.975  0.00  0.00    +0.000 A 
ATOM     30  C   LIG    1       -4.387  -5.526   1.981  0.00  0.00    +0.000 A 
ATOM     31  C   LIG    1       -4.587  -6.328   0.874  0.00  0.00    +0.000 A 
ATOM     32  C   LIG    1       -3.782  -6.181  -0.241  0.00  0.00    +0.020 A 
ENDBRANCH  20  27
ENDBRANCH   2  20
TORSDOF 7
