REMARK  Name = ZINCnE000001E0W6.0
REMARK                            x       y       z     vdW  Elec       q    Type
REMARK                         _______ _______ _______ _____ _____    ______ ____
ROOT
ATOM      1  C   LIG    1       -1.444  -0.493   0.134  0.00  0.00    +0.240 C 
ATOM      2  N   LIG    1       -2.160  -0.551  -1.151  0.00  0.00    -0.640 N 
ATOM      3  C   LIG    1       -2.782  -1.805  -0.692  0.00  0.00    +0.260 C 
ATOM      4  C   LIG    1       -2.221   0.209  -2.262  0.00  0.00    +0.690 C 
ATOM      5  O   LIG    1       -1.489   1.176  -2.379  0.00  0.00    -0.620 OA
ATOM      6  C   LIG    1       -1.562  -2.012   0.200  0.00  0.00    -0.100 C 
ATOM      7  C   LIG    1       -1.842  -2.601   1.588  0.00  0.00    +0.030 C 
ATOM      8  C   LIG    1       -1.276  -4.042   1.503  0.00  0.00    +0.010 C 
ATOM      9  C   LIG    1       -0.005  -3.864   0.635  0.00  0.00    +0.000 C 
ATOM     10  C   LIG    1       -0.407  -2.804  -0.415  0.00  0.00    +0.040 C 
ENDROOT
BRANCH   4  11
ATOM     11  N   LIG    1       -3.085  -0.098  -3.238  0.00  0.00    -0.710 NA
ATOM     12  C   LIG    1       -3.144   0.652  -4.332  0.00  0.00    +0.490 A 
ATOM     13  N   LIG    1       -2.403   1.743  -4.586  0.00  0.00    -0.560 NA
ATOM     14  C   LIG    1       -2.715   2.236  -5.756  0.00  0.00    +0.400 A 
ATOM     15  N   LIG    1       -3.689   1.484  -6.314  0.00  0.00    -0.400 N 
ATOM     16  N   LIG    1       -3.978   0.454  -5.405  0.00  0.00    -0.410 NA
BRANCH  15  17
ATOM     17  C   LIG    1       -4.321   1.703  -7.617  0.00  0.00    +0.190 C 
ATOM     18  C   LIG    1       -3.260   1.639  -8.717  0.00  0.00    +0.040 C 
ATOM     19  C   LIG    1       -4.991   3.078  -7.635  0.00  0.00    +0.040 C 
ATOM     20  C   LIG    1       -5.374   0.620  -7.861  0.00  0.00    +0.050 C 
ENDBRANCH  15  17
ENDBRANCH   4  11
BRANCH   1  22
ATOM     21  C   LIG    1        0.004   1.526  -0.130  0.00  0.00    +0.000 C 
ATOM     22  C   LIG    1       -0.002   0.002   0.006  0.00  0.00    -0.020 C 
ATOM     23  C   LIG    1        0.788  -0.402   1.253  0.00  0.00    +0.010 C 
ENDBRANCH   1  22
TORSDOF 3
