REMARK  Name = ZINCrD00000F5Llw.0
REMARK                            x       y       z     vdW  Elec       q    Type
REMARK                         _______ _______ _______ _____ _____    ______ ____
ROOT
ATOM      1  C   LIG    1       -0.828   3.098  -1.191  0.00  0.00    +0.040 C 
ATOM      2  C   LIG    1       -0.858   3.767  -0.018  0.00  0.00    -0.010 C 
ATOM      3  C   LIG    1       -0.819   3.087   1.221  0.00  0.00    +0.170 C 
ATOM      4  C   LIG    1       -0.734   1.582   1.265  0.00  0.00    +0.130 C 
ATOM      5  C   LIG    1       -0.013   1.086   0.008  0.00  0.00    +0.050 C 
ATOM      6  N   LIG    1       -0.855   3.762   2.330  0.00  0.00    -0.320 NA
ATOM      7  C   LIG    1       -0.758   1.595  -1.229  0.00  0.00    +0.090 C 
ENDROOT
BRANCH   1   9
ATOM      8  C   LIG    1       -0.890   4.434  -3.428  0.00  0.00    -0.100 C 
ATOM      9  C   LIG    1       -0.862   3.832  -2.420  0.00  0.00    -0.100 C 
BRANCH   8  15
ATOM     10  C   LIG    1       -0.888   4.370  -8.254  0.00  0.00    +0.130 C 
ATOM     11  C   LIG    1       -0.924   5.154  -6.968  0.00  0.00    +0.130 A 
ATOM     12  C   LIG    1       -0.989   6.536  -7.013  0.00  0.00    -0.020 A 
ATOM     13  C   LIG    1       -1.022   7.257  -5.827  0.00  0.00    +0.070 A 
ATOM     14  C   LIG    1       -0.990   6.564  -4.631  0.00  0.00    -0.010 A 
ATOM     15  C   LIG    1       -0.925   5.167  -4.657  0.00  0.00    +0.230 A 
ATOM     16  N   LIG    1       -0.890   4.516  -5.817  0.00  0.00    -0.470 NA
ENDBRANCH   8  15
ENDBRANCH   1   9
BRANCH   6  17
ATOM     17  O   LIG    1       -0.932   5.176   2.296  0.00  0.00    -0.220 OA
BRANCH  17  18
ATOM     18  C   LIG    1       -0.965   5.788   3.586  0.00  0.00    +0.180 C 
ATOM     19  C   LIG    1       -0.431   7.237   3.511  0.00  0.00    +0.070 C 
ATOM     20  C   LIG    1       -1.735   8.044   3.325  0.00  0.00    +0.250 C 
ATOM     21  N   LIG    1       -2.795   7.215   3.911  0.00  0.00    -0.610 N 
ATOM     22  C   LIG    1       -2.392   5.942   4.064  0.00  0.00    +0.500 C 
ATOM     23  O   LIG    1       -3.073   5.048   4.518  0.00  0.00    -0.510 OA
BRANCH  21  24
ATOM     24  C   LIG    1       -4.123   7.712   4.281  0.00  0.00    +0.240 C 
ATOM     25  C   LIG    1       -4.661   7.113   5.592  0.00  0.00    +0.020 C 
ATOM     26  C   LIG    1       -6.035   7.042   4.901  0.00  0.00    +0.010 C 
ATOM     27  C   LIG    1       -5.274   6.986   3.566  0.00  0.00    +0.010 C 
ENDBRANCH  21  24
ENDBRANCH  17  18
ENDBRANCH   6  17
TORSDOF 5
