REMARK  Name = ZINCpe00000bpPDV.0
REMARK                            x       y       z     vdW  Elec       q    Type
REMARK                         _______ _______ _______ _____ _____    ______ ____
ROOT
ATOM      1  C   LIG    1       -1.348   0.827   2.714  0.00  0.00    +0.250 C 
ATOM      2  C   LIG    1       -0.990  -0.516   3.357  0.00  0.00    +0.050 C 
ATOM      3  C   LIG    1       -2.269  -1.327   3.580  0.00  0.00    +0.200 C 
ATOM      4  N   LIG    1       -2.944  -1.543   2.294  0.00  0.00    -0.460 N 
ATOM      5  C   LIG    1       -3.340  -0.269   1.681  0.00  0.00    +0.220 C 
ATOM      6  C   LIG    1       -2.093   0.573   1.401  0.00  0.00    +0.030 C 
ENDROOT
BRANCH   4   7
ATOM      7  C   LIG    1       -4.035  -2.384   2.441  0.00  0.00    +0.350 A 
ATOM      8  N   LIG    1       -5.300  -2.033   2.410  0.00  0.00    -0.310 NA
ATOM      9  N   LIG    1       -6.044  -3.067   2.580  0.00  0.00    -0.280 NA
ATOM     10  C   LIG    1       -5.305  -4.130   2.728  0.00  0.00    +0.180 A 
ATOM     11  C   LIG    1       -5.798  -5.537   2.950  0.00  0.00    +0.190 C 
ATOM     12  N   LIG    1       -3.999  -3.733   2.640  0.00  0.00    -0.470 N 
BRANCH  12  13
ATOM     13  C   LIG    1       -2.808  -4.581   2.742  0.00  0.00    +0.320 C 
BRANCH  13  14
ATOM     14  C   LIG    1       -2.506  -5.201   1.377  0.00  0.00    -0.050 C 
ATOM     15  C   LIG    1       -1.255  -6.110   1.459  0.00  0.00    +0.020 C 
ATOM     16  C   LIG    1       -0.526  -5.779   0.132  0.00  0.00    +0.210 C 
ATOM     17  O   LIG    1       -0.756  -4.364  -0.035  0.00  0.00    -0.370 OA
ATOM     18  C   LIG    1       -2.114  -4.109   0.363  0.00  0.00    +0.200 C 
ENDBRANCH  13  14
ENDBRANCH  12  13
ENDBRANCH   4   7
BRANCH   1  19
ATOM     19  N   LIG    1       -0.123   1.583   2.444  0.00  0.00    -0.990 NA
BRANCH  19  20
ATOM     20  S   LIG    1        0.044   3.124   3.026  0.00  0.00    +2.600 S 
ATOM     21  O   LIG    1        1.449   3.338   3.055  0.00  0.00    -0.950 OA
ATOM     22  O   LIG    1       -0.722   3.132   4.223  0.00  0.00    -0.950 OA
ATOM     23  C   LIG    1       -0.733   4.171   1.765  0.00  0.00    -0.280 C 
ENDBRANCH  19  20
BRANCH  19  25
ATOM     24  C   LIG    1        1.873   0.177   2.587  0.00  0.00    +0.020 C 
ATOM     25  C   LIG    1        0.955   0.975   1.660  0.00  0.00    +0.280 C 
ENDBRANCH  19  25
ENDBRANCH   1  19
TORSDOF 6
