REMARK  Name = ZINCfA000000baP2.0
REMARK                            x       y       z     vdW  Elec       q    Type
REMARK                         _______ _______ _______ _____ _____    ______ ____
ROOT
ATOM      1  N   LIG    1       -2.205   1.293  -1.008  0.00  0.00    -0.370 N 
ATOM      2  C   LIG    1       -2.539  -0.108  -0.717  0.00  0.00    +0.320 C 
ATOM      3  H   LIG    1       -1.733   1.348  -1.898  0.00  0.00    +0.430 HD
ENDROOT
BRANCH   1   4
ATOM      4  C   LIG    1       -3.438   2.090  -1.058  0.00  0.00    +0.240 C 
ATOM      5  C   LIG    1       -4.354   1.545  -2.155  0.00  0.00    +0.100 C 
BRANCH   4   6
ATOM      6  C   LIG    1       -3.096   3.527  -1.357  0.00  0.00    +0.070 A 
ATOM      7  C   LIG    1       -3.956   4.531  -0.958  0.00  0.00    +0.010 A 
ATOM      8  C   LIG    1       -3.632   5.850  -1.238  0.00  0.00    +0.090 A 
ATOM      9  C   LIG    1       -2.449   6.109  -1.912  0.00  0.00    +0.000 A 
ATOM     10  C   LIG    1       -1.638   5.053  -2.280  0.00  0.00    +0.280 A 
ATOM     11  N   LIG    1       -1.975   3.811  -1.992  0.00  0.00    -0.500 NA
ENDBRANCH   4   6
ENDBRANCH   1   4
BRANCH   1  12
ATOM     12  C   LIG    1       -1.325   1.816   0.045  0.00  0.00    +0.290 C 
BRANCH  12  15
ATOM     13  C   LIG    1        2.429   1.019   0.001  0.00  0.00    +0.100 C 
ATOM     14  C   LIG    1        1.112   1.745  -0.087  0.00  0.00    -0.030 C 
ATOM     15  C   LIG    1       -0.011   1.079   0.015  0.00  0.00    -0.130 C 
ATOM     16  C   LIG    1        1.086   3.238  -0.291  0.00  0.00    +0.090 C 
ENDBRANCH  12  15
ENDBRANCH   1  12
TORSDOF 4
