REMARK  Name = ZINCfA000000baP2.1
REMARK                            x       y       z     vdW  Elec       q    Type
REMARK                         _______ _______ _______ _____ _____    ______ ____
ROOT
ATOM      1  N   LIG    1        2.163   5.349  -0.209  0.00  0.00    -0.370 N 
ATOM      2  C   LIG    1        2.200   4.811  -1.575  0.00  0.00    +0.320 C 
ATOM      3  H   LIG    1        3.076   5.263   0.212  0.00  0.00    +0.430 HD
ENDROOT
BRANCH   1   4
ATOM      4  C   LIG    1        1.184   4.596   0.588  0.00  0.00    +0.240 C 
ATOM      5  C   LIG    1        1.146   5.157   2.011  0.00  0.00    +0.100 C 
BRANCH   4   6
ATOM      6  C   LIG    1        1.583   3.143   0.630  0.00  0.00    +0.070 A 
ATOM      7  C   LIG    1        0.619   2.177   0.847  0.00  0.00    +0.010 A 
ATOM      8  C   LIG    1        0.995   0.843   0.879  0.00  0.00    +0.090 A 
ATOM      9  C   LIG    1        2.334   0.530   0.703  0.00  0.00    +0.000 A 
ATOM     10  C   LIG    1        3.242   1.551   0.491  0.00  0.00    +0.290 A 
ATOM     11  N   LIG    1        2.847   2.809   0.462  0.00  0.00    -0.500 NA
ENDBRANCH   4   6
ENDBRANCH   1   4
BRANCH   1  12
ATOM     12  C   LIG    1        1.775   6.765  -0.251  0.00  0.00    +0.280 C 
BRANCH  12  15
ATOM     13  C   LIG    1        2.904   9.040   0.977  0.00  0.00    +0.080 C 
ATOM     14  C   LIG    1        3.410   8.575  -0.364  0.00  0.00    -0.030 C 
ATOM     15  C   LIG    1        2.841   7.557  -0.962  0.00  0.00    -0.130 C 
ATOM     16  C   LIG    1        4.571   9.280  -1.017  0.00  0.00    +0.100 C 
ENDBRANCH  12  15
ENDBRANCH   1  12
TORSDOF 4
