REMARK  Name = ZINCtV000002pFT3.0
REMARK                            x       y       z     vdW  Elec       q    Type
REMARK                         _______ _______ _______ _____ _____    ______ ____
ROOT
ATOM      1  C   LIG    1       -1.717   0.820  -1.734  0.00  0.00    +0.370 A 
ATOM      2  N   LIG    1       -2.377   1.218  -2.789  0.00  0.00    -0.510 NA
ATOM      3  C   LIG    1       -2.096   2.409  -3.403  0.00  0.00    +0.190 A 
ATOM      4  C   LIG    1       -1.083   3.204  -2.871  0.00  0.00    -0.340 A 
ATOM      5  C   LIG    1       -0.386   2.757  -1.726  0.00  0.00    +0.580 A 
ATOM      6  O   LIG    1        0.505   3.433  -1.240  0.00  0.00    -0.520 OA
ATOM      7  S   LIG    1       -0.914   4.670  -3.827  0.00  0.00    +0.240 S 
ATOM      8  C   LIG    1       -2.205   4.168  -4.906  0.00  0.00    -0.100 A 
ATOM      9  C   LIG    1       -2.694   2.978  -4.530  0.00  0.00    +0.030 A 
ATOM     10  N   LIG    1       -0.721   1.571  -1.179  0.00  0.00    -0.510 N 
ENDROOT
BRANCH   8  11
ATOM     11  C   LIG    1       -2.685   4.949  -6.067  0.00  0.00    -0.040 A 
ATOM     12  C   LIG    1       -3.717   4.454  -6.865  0.00  0.00    +0.040 A 
ATOM     13  C   LIG    1       -4.165   5.190  -7.943  0.00  0.00    +0.010 A 
ATOM     14  C   LIG    1       -3.585   6.410  -8.240  0.00  0.00    -0.070 A 
ATOM     15  C   LIG    1       -2.558   6.904  -7.456  0.00  0.00    +0.010 A 
ATOM     16  C   LIG    1       -4.074   7.205  -9.423  0.00  0.00    +0.090 C 
ATOM     17  C   LIG    1       -2.105   6.181  -6.372  0.00  0.00    +0.020 A 
ENDBRANCH   8  11
BRANCH   1  18
ATOM     18  S   LIG    1       -2.129  -0.729  -1.002  0.00  0.00    +0.010 S 
BRANCH  18  19
ATOM     19  C   LIG    1       -3.458  -1.258  -2.111  0.00  0.00    +0.150 C 
BRANCH  19  21
ATOM     20  C   LIG    1       -5.135  -2.682  -1.051  0.00  0.00    +0.050 C 
ATOM     21  C   LIG    1       -3.981  -2.599  -1.665  0.00  0.00    -0.130 C 
ATOM     22  C   LIG    1       -3.175  -3.846  -1.927  0.00  0.00    +0.090 C 
ENDBRANCH  19  21
ENDBRANCH  18  19
ENDBRANCH   1  18
BRANCH  10  23
ATOM     23  C   LIG    1       -0.013   1.086   0.008  0.00  0.00    +0.360 C 
BRANCH  23  24
ATOM     24  C   LIG    1       -0.718   1.572   1.248  0.00  0.00    -0.120 A 
ATOM     25  C   LIG    1       -0.360   2.779   1.819  0.00  0.00    +0.040 A 
ATOM     26  C   LIG    1       -1.010   3.227   2.953  0.00  0.00    +0.000 A 
ATOM     27  C   LIG    1       -2.012   2.463   3.523  0.00  0.00    +0.010 A 
ATOM     28  C   LIG    1       -2.366   1.254   2.955  0.00  0.00    +0.010 A 
ATOM     29  C   LIG    1       -1.719   0.808   1.818  0.00  0.00    +0.030 A 
ENDBRANCH  23  24
ENDBRANCH  10  23
TORSDOF 6
