REMARK  Name = ZINCnE000001HSlp.0
REMARK                            x       y       z     vdW  Elec       q    Type
REMARK                         _______ _______ _______ _____ _____    ______ ____
ROOT
ATOM      1  C   LIG    1        2.406  -2.735  -0.138  0.00  0.00    +0.550 C 
ATOM      2  N   LIG    1        1.235  -2.078  -0.021  0.00  0.00    -0.650 N 
ATOM      3  H   LIG    1        0.406  -2.576   0.051  0.00  0.00    +0.410 HD
ATOM      4  O   LIG    1        3.452  -2.115  -0.144  0.00  0.00    -0.510 OA
ENDROOT
BRANCH   2   5
ATOM      5  C   LIG    1        1.216  -0.679  -0.005  0.00  0.00    +0.110 A 
ATOM      6  C   LIG    1        0.160   0.007  -0.595  0.00  0.00    +0.000 A 
ATOM      7  C   LIG    1        0.136   1.387  -0.581  0.00  0.00    +0.050 A 
ATOM      8  C   LIG    1        1.167   2.090   0.023  0.00  0.00    +0.050 A 
ATOM      9  N   LIG    1        1.424   3.451   0.196  0.00  0.00    -0.540 NA
ATOM     10  C   LIG    1        2.589   3.562   0.865  0.00  0.00    +0.400 A 
ATOM     11  O   LIG    1        3.074   2.336   1.124  0.00  0.00    -0.230 OA
ATOM     12  S   LIG    1        3.332   5.036   1.319  0.00  0.00    -0.690 S 
ATOM     13  C   LIG    1        2.229   1.406   0.616  0.00  0.00    -0.000 A 
ATOM     14  C   LIG    1        2.250   0.021   0.600  0.00  0.00    +0.070 A 
ENDBRANCH   2   5
BRANCH   1  20
ATOM     15  C   LIG    1        3.631  -4.891  -0.379  0.00  0.00    -0.410 A 
ATOM     16  C   LIG    1        3.636  -6.266  -0.489  0.00  0.00    +0.080 A 
ATOM     17  C   LIG    1        2.444  -6.968  -0.481  0.00  0.00    +0.020 A 
ATOM     18  C   LIG    1        1.240  -6.298  -0.362  0.00  0.00    +0.040 A 
ATOM     19  C   LIG    1        1.221  -4.923  -0.245  0.00  0.00    +0.030 A 
ATOM     20  C   LIG    1        2.420  -4.208  -0.258  0.00  0.00    -0.060 A 
BRANCH  15  21
ATOM     21  S   LIG    1        5.151  -3.998  -0.389  0.00  0.00    +1.370 S 
ATOM     22  O   LIG    1        6.110  -4.997  -0.072  0.00  0.00    -0.880 OA
BRANCH  21  24
ATOM     23  C   LIG    1        6.624  -2.721  -2.307  0.00  0.00    +0.070 C 
ATOM     24  C   LIG    1        5.330  -3.518  -2.128  0.00  0.00    -0.250 C 
ENDBRANCH  21  24
ENDBRANCH  15  21
ENDBRANCH   1  20
TORSDOF 4
