REMARK  Name = ZINCpk00000OgDSY.0
REMARK                            x       y       z     vdW  Elec       q    Type
REMARK                         _______ _______ _______ _____ _____    ______ ____
ROOT
ATOM      1  C   LIG    1        3.670   5.679  -1.597  0.00  0.00    +0.570 C 
ATOM      2  N   LIG    1        2.602   4.894  -1.352  0.00  0.00    -0.710 N 
ATOM      3  H   LIG    1        2.042   4.593  -2.084  0.00  0.00    +0.400 HD
ATOM      4  O   LIG    1        4.371   6.056  -0.678  0.00  0.00    -0.520 OA
ENDROOT
BRANCH   1  11
ATOM      5  C   LIG    1        6.872   8.701  -7.524  0.00  0.00    +0.250 C 
ATOM      6  C   LIG    1        6.045   7.985  -6.488  0.00  0.00    +0.290 A 
ATOM      7  N   LIG    1        4.989   7.271  -6.744  0.00  0.00    -0.480 NA
ATOM      8  C   LIG    1        4.498   6.774  -5.579  0.00  0.00    +0.260 A 
ATOM      9  N   LIG    1        3.457   6.000  -5.282  0.00  0.00    -0.440 NA
ATOM     10  C   LIG    1        3.189   5.647  -4.046  0.00  0.00    +0.330 A 
ATOM     11  C   LIG    1        3.987   6.081  -2.982  0.00  0.00    -0.180 A 
ATOM     12  C   LIG    1        5.094   6.897  -3.247  0.00  0.00    +0.190 A 
ATOM     13  C   LIG    1        5.348   7.245  -4.561  0.00  0.00    -0.060 A 
ATOM     14  O   LIG    1        6.295   7.991  -5.170  0.00  0.00    -0.200 OA
ENDBRANCH   1  11
BRANCH   2  15
ATOM     15  C   LIG    1        2.287   4.495   0.022  0.00  0.00    +0.360 C 
BRANCH  15  16
ATOM     16  C   LIG    1        1.056   3.626   0.023  0.00  0.00    -0.200 A 
ATOM     17  C   LIG    1        1.157   2.260   0.003  0.00  0.00    +0.010 A 
ATOM     18  C   LIG    1        2.525   1.639  -0.029  0.00  0.00    +0.090 C 
ATOM     19  C   LIG    1        2.453   0.168   0.380  0.00  0.00    +0.030 C 
ATOM     20  C   LIG    1        1.366  -0.516  -0.457  0.00  0.00    +0.030 C 
ATOM     21  C   LIG    1        0.002  -0.004   0.002  0.00  0.00    +0.130 C 
ATOM     22  C   LIG    1       -0.018   1.502   0.010  0.00  0.00    +0.070 A 
ATOM     23  N   LIG    1       -1.183   2.105   0.030  0.00  0.00    -0.210 NA
ATOM     24  N   LIG    1       -1.308   3.380   0.040  0.00  0.00    -0.440 N 
ATOM     25  H   LIG    1       -2.196   3.768   0.048  0.00  0.00    +0.440 HD
ATOM     26  C   LIG    1       -0.235   4.194   0.044  0.00  0.00    +0.490 A 
ATOM     27  O   LIG    1       -0.377   5.406   0.065  0.00  0.00    -0.520 OA
ENDBRANCH  15  16
ENDBRANCH   2  15
TORSDOF 3
