REMARK  Name = ZINCrg00000f5pRl.0
REMARK                            x       y       z     vdW  Elec       q    Type
REMARK                         _______ _______ _______ _____ _____    ______ ____
ROOT
ATOM      1  C   LIG    1       -7.022   3.760   2.559  0.00  0.00    +0.200 C 
ATOM      2  C   LIG    1       -6.240   5.074   2.613  0.00  0.00    +0.060 C 
ATOM      3  C   LIG    1       -5.497   3.747   2.458  0.00  0.00    -0.130 C 
ATOM      4  C   LIG    1       -4.707   3.229   3.664  0.00  0.00    +0.050 C 
ATOM      5  C   LIG    1       -3.276   3.774   3.587  0.00  0.00    +0.280 C 
ATOM      6  N   LIG    1       -2.731   3.487   2.255  0.00  0.00    -0.600 N 
ATOM      7  C   LIG    1       -3.439   3.981   1.067  0.00  0.00    +0.270 C 
ATOM      8  C   LIG    1       -1.589   2.781   2.123  0.00  0.00    +0.500 C 
ATOM      9  O   LIG    1       -1.007   2.380   3.108  0.00  0.00    -0.530 OA
ATOM     10  C   LIG    1       -4.877   3.435   1.092  0.00  0.00    +0.050 C 
ENDROOT
BRANCH   1  13
ATOM     11  C   LIG    1       -8.549   4.071  -0.935  0.00  0.00    +0.090 C 
ATOM     12  C   LIG    1       -7.668   4.284   0.269  0.00  0.00    +0.520 C 
ATOM     13  N   LIG    1       -7.784   3.475   1.341  0.00  0.00    -0.570 N 
ATOM     14  O   LIG    1       -6.855   5.184   0.274  0.00  0.00    -0.530 OA
BRANCH  13  15
ATOM     15  C   LIG    1       -8.671   2.311   1.287  0.00  0.00    +0.360 C 
BRANCH  15  16
ATOM     16  C   LIG    1      -10.040   2.699   1.782  0.00  0.00    -0.130 A 
ATOM     17  C   LIG    1      -10.992   3.160   0.969  0.00  0.00    -0.030 A 
ATOM     18  S   LIG    1      -12.445   3.506   1.899  0.00  0.00    +0.110 S 
ATOM     19  C   LIG    1      -11.654   2.989   3.383  0.00  0.00    -0.040 A 
ATOM     20  C   LIG    1      -10.407   2.599   3.113  0.00  0.00    +0.010 A 
ENDBRANCH  15  16
ENDBRANCH  13  15
ENDBRANCH   1  13
BRANCH   8  21
ATOM     21  C   LIG    1       -1.037   2.491   0.751  0.00  0.00    +0.370 C 
BRANCH  21  22
ATOM     22  N   LIG    1        0.200   1.716   0.876  0.00  0.00    -0.540 N 
ATOM     23  C   LIG    1        1.467   2.236   0.976  0.00  0.00    +0.500 A 
ATOM     24  N   LIG    1        2.313   1.260   1.066  0.00  0.00    -0.280 NA
ATOM     25  N   LIG    1        1.596   0.057   1.025  0.00  0.00    -0.550 N 
ATOM     26  H   LIG    1        1.969  -0.837   1.073  0.00  0.00    +0.460 HD
ATOM     27  C   LIG    1        0.289   0.372   0.907  0.00  0.00    +0.650 A 
ATOM     28  O   LIG    1       -0.639  -0.414   0.841  0.00  0.00    -0.550 OA
ENDBRANCH  21  22
ENDBRANCH   8  21
TORSDOF 5
