REMARK  Name = ZINCzw00000003Ku.0
REMARK                            x       y       z     vdW  Elec       q    Type
REMARK                         _______ _______ _______ _____ _____    ______ ____
ROOT
ATOM      1  N   LIG    1       -2.405  -2.607   0.011  0.00  0.00    -0.360 N 
ATOM      2  N   LIG    1       -3.267  -1.502   0.025  0.00  0.00    -0.230 NA
ATOM      3  C   LIG    1       -2.569  -0.402   0.024  0.00  0.00    +0.310 A 
ATOM      4  C   LIG    1       -1.199  -0.741   0.015  0.00  0.00    -0.300 A 
ATOM      5  C   LIG    1        0.002  -0.004   0.002  0.00  0.00    +0.470 A 
ATOM      6  N   LIG    1        1.152  -0.667  -0.013  0.00  0.00    -0.590 NA
ATOM      7  C   LIG    1        1.179  -1.995  -0.020  0.00  0.00    +0.550 A 
ATOM      8  N   LIG    1        0.077  -2.727  -0.013  0.00  0.00    -0.580 NA
ATOM      9  C   LIG    1       -1.122  -2.147   0.001  0.00  0.00    +0.380 A 
ENDROOT
BRANCH   7  10
ATOM     10  N   LIG    1        2.405  -2.636  -0.035  0.00  0.00    -0.450 N 
ATOM     11  C   LIG    1        3.218  -2.249   1.131  0.00  0.00    +0.250 C 
ATOM     12  C   LIG    1        4.612  -2.840   0.952  0.00  0.00    +0.280 C 
ATOM     13  N   LIG    1        4.570  -4.310   0.929  0.00  0.00    -0.360 N 
ATOM     14  C   LIG    1        5.920  -4.744   0.496  0.00  0.00    +0.260 C 
ATOM     15  C   LIG    1        5.898  -6.213   0.071  0.00  0.00    +0.090 C 
ATOM     16  C   LIG    1        4.644  -6.431  -0.800  0.00  0.00    +0.000 C 
ATOM     17  C   LIG    1        3.385  -6.338   0.086  0.00  0.00    +0.090 C 
ATOM     18  C   LIG    1        4.173  -5.094  -1.413  0.00  0.00    +0.090 C 
ATOM     19  C   LIG    1        3.578  -4.807  -0.030  0.00  0.00    +0.010 C 
ATOM     20  H   LIG    1        4.370  -4.671   1.849  0.00  0.00    +0.420 HD
ATOM     21  C   LIG    1        2.236  -4.093  -0.041  0.00  0.00    +0.280 C 
ENDBRANCH   7  10
BRANCH   5  22
ATOM     22  N   LIG    1       -0.017   1.377   0.010  0.00  0.00    -0.460 N 
ATOM     23  C   LIG    1       -0.805   1.899  -1.114  0.00  0.00    +0.210 C 
ATOM     24  C   LIG    1       -0.925   3.419  -0.992  0.00  0.00    +0.070 C 
ATOM     25  C   LIG    1        0.475   4.039  -0.995  0.00  0.00    +0.020 C 
ATOM     26  C   LIG    1        1.291   3.443   0.155  0.00  0.00    +0.300 C 
ATOM     27  C   LIG    1        1.347   1.922  -0.001  0.00  0.00    +0.240 C 
BRANCH  26  28
ATOM     28  N   LIG    1        2.650   3.988   0.124  0.00  0.00    -0.160 N 
ATOM     29  N   LIG    1        3.467   3.858  -0.861  0.00  0.00    -0.290 NA
ATOM     30  C   LIG    1        4.591   4.468  -0.560  0.00  0.00    +0.180 A 
ATOM     31  C   LIG    1        4.410   4.993   0.722  0.00  0.00    +0.180 A 
ATOM     32  N   LIG    1        3.191   4.657   1.079  0.00  0.00    -0.290 NA
ENDBRANCH  26  28
ENDBRANCH   5  22
BRANCH   1  34
ATOM     33  C   LIG    1       -2.251  -4.711   1.248  0.00  0.00    +0.050 C 
ATOM     34  C   LIG    1       -2.813  -4.014   0.008  0.00  0.00    +0.190 C 
ATOM     35  C   LIG    1       -2.275  -4.698  -1.250  0.00  0.00    +0.050 C 
ATOM     36  C   LIG    1       -4.341  -4.102   0.021  0.00  0.00    +0.070 C 
ENDBRANCH   1  34
TORSDOF 4
