REMARK  Name = ZINCzw00000003Ku.1
REMARK                            x       y       z     vdW  Elec       q    Type
REMARK                         _______ _______ _______ _____ _____    ______ ____
ROOT
ATOM      1  N   LIG    1       -0.710   3.174   0.025  0.00  0.00    -0.360 N 
ATOM      2  N   LIG    1       -1.080   1.823   0.017  0.00  0.00    -0.220 NA
ATOM      3  C   LIG    1       -0.013   1.076   0.008  0.00  0.00    +0.300 A 
ATOM      4  C   LIG    1        1.122   1.917   0.002  0.00  0.00    -0.290 A 
ATOM      5  C   LIG    1        2.514   1.699  -0.013  0.00  0.00    +0.460 A 
ATOM      6  N   LIG    1        3.320   2.754  -0.016  0.00  0.00    -0.610 NA
ATOM      7  C   LIG    1        2.833   3.990  -0.005  0.00  0.00    +0.530 A 
ATOM      8  N   LIG    1        1.535   4.240   0.009  0.00  0.00    -0.510 NA
ATOM      9  C   LIG    1        0.651   3.244   0.013  0.00  0.00    +0.370 A 
ENDROOT
BRANCH   7  10
ATOM     10  N   LIG    1        3.717   5.054  -0.009  0.00  0.00    -0.460 N 
ATOM     11  C   LIG    1        4.634   4.975  -1.159  0.00  0.00    +0.240 C 
ATOM     12  C   LIG    1        5.446   6.265  -1.204  0.00  0.00    +0.280 C 
ATOM     13  N   LIG    1        6.280   6.414  -0.002  0.00  0.00    -0.360 N 
ATOM     14  C   LIG    1        6.806   7.799  -0.048  0.00  0.00    +0.250 C 
ATOM     15  C   LIG    1        7.383   8.202   1.329  0.00  0.00    +0.090 C 
ATOM     16  C   LIG    1        6.371   7.735   2.394  0.00  0.00    -0.010 C 
ATOM     17  C   LIG    1        6.396   6.196   2.482  0.00  0.00    +0.080 C 
ATOM     18  C   LIG    1        4.961   7.564   1.786  0.00  0.00    +0.100 C 
ATOM     19  C   LIG    1        5.495   6.241   1.224  0.00  0.00    +0.020 C 
ATOM     20  H   LIG    1        7.037   5.748  -0.023  0.00  0.00    +0.430 HD
ATOM     21  C   LIG    1        4.501   5.090   1.231  0.00  0.00    +0.270 C 
ENDBRANCH   7  10
BRANCH   5  22
ATOM     22  N   LIG    1        3.028   0.418  -0.025  0.00  0.00    -0.460 N 
ATOM     23  C   LIG    1        2.520  -0.364   1.110  0.00  0.00    +0.210 C 
ATOM     24  C   LIG    1        2.993  -1.814   0.985  0.00  0.00    +0.070 C 
ATOM     25  C   LIG    1        4.524  -1.847   0.963  0.00  0.00    +0.030 C 
ATOM     26  C   LIG    1        5.028  -0.986  -0.199  0.00  0.00    +0.300 C 
ATOM     27  C   LIG    1        4.496   0.440  -0.039  0.00  0.00    +0.230 C 
BRANCH  26  28
ATOM     28  N   LIG    1        6.493  -0.966  -0.192  0.00  0.00    -0.160 N 
ATOM     29  N   LIG    1        7.213  -0.527   0.780  0.00  0.00    -0.290 NA
ATOM     30  C   LIG    1        8.480  -0.658   0.458  0.00  0.00    +0.170 A 
ATOM     31  C   LIG    1        8.494  -1.216  -0.822  0.00  0.00    +0.180 A 
ATOM     32  N   LIG    1        7.234  -1.378  -1.158  0.00  0.00    -0.290 NA
ENDBRANCH  26  28
ENDBRANCH   5  22
BRANCH   1  34
ATOM     33  C   LIG    1       -1.398   5.170  -1.209  0.00  0.00    +0.050 C 
ATOM     34  C   LIG    1       -1.629   4.315   0.039  0.00  0.00    +0.190 C 
ATOM     35  C   LIG    1       -1.375   5.159   1.289  0.00  0.00    +0.050 C 
ATOM     36  C   LIG    1       -3.072   3.807   0.050  0.00  0.00    +0.070 C 
ENDBRANCH   1  34
TORSDOF 4
