REMARK  Name = ZINCpk000005U6pG.0
REMARK                            x       y       z     vdW  Elec       q    Type
REMARK                         _______ _______ _______ _____ _____    ______ ____
ROOT
ATOM      1  C   LIG    1        5.669   0.196  -3.294  0.00  0.00    +0.140 A 
ATOM      2  N   LIG    1        5.160   0.366  -2.097  0.00  0.00    -0.460 NA
ATOM      3  C   LIG    1        4.338   1.425  -2.200  0.00  0.00    +0.170 A 
ATOM      4  N   LIG    1        4.393   1.843  -3.430  0.00  0.00    -0.380 NA
ATOM      5  O   LIG    1        5.152   1.150  -4.074  0.00  0.00    +0.080 OA
ENDROOT
BRANCH   1   6
ATOM      6  C   LIG    1        6.652  -0.868  -3.708  0.00  0.00    +0.330 C 
BRANCH   6   7
ATOM      7  N   LIG    1        7.717  -0.262  -4.519  0.00  0.00    -0.800 NA
ATOM      8  H   LIG    1        8.250   0.402  -3.978  0.00  0.00    +0.350 HD
ATOM      9  H   LIG    1        7.338   0.170  -5.349  0.00  0.00    +0.350 HD
ENDBRANCH   6   7
BRANCH   6  10
ATOM     10  C   LIG    1        5.931  -1.937  -4.530  0.00  0.00    +0.140 C 
BRANCH  10  11
ATOM     11  C   LIG    1        6.885  -3.061  -4.840  0.00  0.00    +0.080 A 
ATOM     12  C   LIG    1        6.560  -4.360  -4.492  0.00  0.00    +0.220 A 
ATOM     13  N   LIG    1        7.395  -5.347  -4.769  0.00  0.00    -0.440 NA
ATOM     14  C   LIG    1        8.544  -5.092  -5.368  0.00  0.00    +0.220 A 
ATOM     15  C   LIG    1        8.872  -3.792  -5.711  0.00  0.00    +0.220 A 
ATOM     16  N   LIG    1        8.035  -2.806  -5.440  0.00  0.00    -0.390 NA
ENDBRANCH  10  11
ENDBRANCH   6  10
ENDBRANCH   1   6
BRANCH   3  17
ATOM     17  C   LIG    1        3.509   2.023  -1.092  0.00  0.00    +0.210 C 
BRANCH  17  18
ATOM     18  C   LIG    1        2.136   1.350  -1.063  0.00  0.00    +0.150 C 
ATOM     19  C   LIG    1        1.254   2.018   0.001  0.00  0.00    +0.240 C 
ATOM     20  O   LIG    1       -0.016   1.357   0.009  0.00  0.00    -0.300 OA
ATOM     21  C   LIG    1        0.002  -0.004   0.002  0.00  0.00    +0.050 A 
ATOM     22  C   LIG    1       -1.140  -0.702   0.364  0.00  0.00    +0.030 A 
ATOM     23  C   LIG    1       -1.137  -2.085   0.360  0.00  0.00    +0.010 A 
ATOM     24  C   LIG    1        0.003  -2.775  -0.007  0.00  0.00    +0.020 A 
ATOM     25  C   LIG    1        1.145  -2.085  -0.369  0.00  0.00    +0.020 A 
ATOM     26  C   LIG    1        1.150  -0.698  -0.364  0.00  0.00    +0.050 A 
ATOM     27  O   LIG    1        2.283  -0.033  -0.719  0.00  0.00    -0.290 OA
ENDBRANCH  17  18
ENDBRANCH   3  17
TORSDOF 6
