REMARK  Name = ZINCpe000000U9l1.0
REMARK                            x       y       z     vdW  Elec       q    Type
REMARK                         _______ _______ _______ _____ _____    ______ ____
ROOT
ATOM      1  C   LIG    1       -4.540  -0.847   0.006  0.00  0.00    +0.300 C 
ENDROOT
BRANCH   1   2
ATOM      2  C   LIG    1       -3.896   0.033   1.046  0.00  0.00    -0.120 A 
ATOM      3  C   LIG    1       -4.642   0.510   2.106  0.00  0.00    +0.050 A 
ATOM      4  C   LIG    1       -4.053   1.323   3.058  0.00  0.00    -0.020 A 
ATOM      5  C   LIG    1       -2.715   1.655   2.954  0.00  0.00    +0.050 A 
ATOM      6  C   LIG    1       -1.963   1.176   1.898  0.00  0.00    -0.080 A 
ATOM      7  C   LIG    1       -2.551   0.361   0.943  0.00  0.00    +0.140 A 
BRANCH   7   8
ATOM      8  O   LIG    1       -1.814  -0.112  -0.096  0.00  0.00    -0.290 OA
BRANCH   8   9
ATOM      9  C   LIG    1       -0.438   0.271  -0.142  0.00  0.00    +0.220 C 
BRANCH   9  10
ATOM     10  C   LIG    1        0.214  -0.343  -1.354  0.00  0.00    +0.510 C 
ATOM     11  N   LIG    1        1.518  -0.114  -1.606  0.00  0.00    -0.730 N 
ATOM     12  H   LIG    1        2.038   0.444  -1.006  0.00  0.00    +0.400 HD
ATOM     13  C   LIG    1        2.151  -0.706  -2.788  0.00  0.00    +0.290 C 
ATOM     14  O   LIG    1       -0.435  -1.040  -2.104  0.00  0.00    -0.510 OA
ENDBRANCH   9  10
ENDBRANCH   8   9
ENDBRANCH   7   8
ENDBRANCH   1   2
BRANCH   1  15
ATOM     15  N   LIG    1       -5.707  -1.515   0.587  0.00  0.00    -0.720 N 
ATOM     16  H   LIG    1       -6.586  -1.112   0.509  0.00  0.00    +0.400 HD
ATOM     17  C   LIG    1       -5.560  -2.691   1.230  0.00  0.00    +0.520 C 
ATOM     18  O   LIG    1       -4.462  -3.196   1.327  0.00  0.00    -0.520 OA
BRANCH  17  19
ATOM     19  C   LIG    1       -6.761  -3.378   1.827  0.00  0.00    +0.000 C 
ATOM     20  C   LIG    1       -7.418  -2.498   2.915  0.00  0.00    +0.070 C 
ATOM     21  C   LIG    1       -6.777  -2.962   4.205  0.00  0.00    +0.520 C 
ATOM     22  N   LIG    1       -6.176  -4.150   4.021  0.00  0.00    -0.620 N 
ATOM     23  C   LIG    1       -5.451  -4.879   5.064  0.00  0.00    +0.290 C 
ATOM     24  O   LIG    1       -6.803  -2.351   5.252  0.00  0.00    -0.530 OA
ATOM     25  C   LIG    1       -6.338  -4.622   2.641  0.00  0.00    +0.290 C 
ENDBRANCH  17  19
ENDBRANCH   1  15
BRANCH   1  27
ATOM     26  C   LIG    1       -5.521  -0.899  -2.291  0.00  0.00    +0.020 C 
ATOM     27  C   LIG    1       -4.981   0.008  -1.183  0.00  0.00    +0.030 C 
ENDBRANCH   1  27
TORSDOF 7
