REMARK  Name = ZINCrH00000tj1lU.0
REMARK                            x       y       z     vdW  Elec       q    Type
REMARK                         _______ _______ _______ _____ _____    ______ ____
ROOT
ATOM      1  C   LIG    1       -1.433   2.393   4.200  0.00  0.00    -0.020 A 
ATOM      2  C   LIG    1       -0.818   1.175   3.939  0.00  0.00    +0.000 A 
ATOM      3  C   LIG    1       -0.392   0.878   2.659  0.00  0.00    +0.200 A 
ATOM      4  C   LIG    1       -0.568   1.797   1.640  0.00  0.00    -0.500 A 
ATOM      5  C   LIG    1       -1.179   3.011   1.896  0.00  0.00    +0.250 A 
ATOM      6  C   LIG    1       -1.612   3.312   3.172  0.00  0.00    -0.060 A 
ENDROOT
BRANCH   6   7
ATOM      7  N   LIG    1       -2.266   4.611   3.446  0.00  0.00    +0.030 N 
ATOM      8  O   LIG    1       -2.648   4.875   4.571  0.00  0.00    -0.140 OA
ATOM      9  O   LIG    1       -2.422   5.415   2.545  0.00  0.00    -0.140 OA
ENDBRANCH   6   7
BRANCH   4  10
ATOM     10  S   LIG    1       -0.017   1.417   0.010  0.00  0.00    +1.420 S 
ATOM     11  O   LIG    1        0.002  -0.004   0.002  0.00  0.00    -0.760 OA
BRANCH  10  12
ATOM     12  C   LIG    1        1.685   2.045  -0.003  0.00  0.00    +0.110 C 
ATOM     13  F   LIG    1        1.676   3.420   0.255  0.00  0.00    -0.170 F 
ATOM     14  F   LIG    1        2.259   1.809  -1.257  0.00  0.00    -0.170 F 
ATOM     15  F   LIG    1        2.431   1.390   0.983  0.00  0.00    -0.190 F 
ENDBRANCH  10  12
ENDBRANCH   4  10
BRANCH   1  16
ATOM     16  S   LIG    1       -1.985   2.772   5.830  0.00  0.00    +0.140 S 
BRANCH  16  17
ATOM     17  C   LIG    1       -1.529   1.290   6.770  0.00  0.00    +0.090 C 
BRANCH  17  19
ATOM     18  O   LIG    1       -2.488   2.479   8.564  0.00  0.00    -0.470 OA
ATOM     19  C   LIG    1       -1.942   1.461   8.209  0.00  0.00    +0.490 C 
BRANCH  19  20
ATOM     20  O   LIG    1       -1.703   0.483   9.097  0.00  0.00    -0.350 OA
BRANCH  20  21
ATOM     21  C   LIG    1       -2.128   0.717  10.466  0.00  0.00    +0.270 C 
BRANCH  21  22
ATOM     22  C   LIG    1       -1.774  -0.499  11.324  0.00  0.00    +0.260 C 
ATOM     23  F   LIG    1       -2.425  -1.631  10.821  0.00  0.00    -0.160 F 
ATOM     24  F   LIG    1       -2.183  -0.274  12.643  0.00  0.00    -0.160 F 
BRANCH  22  25
ATOM     25  C   LIG    1       -0.261  -0.724  11.291  0.00  0.00    +0.390 C 
ATOM     26  F   LIG    1        0.062  -1.835  12.077  0.00  0.00    -0.180 F 
ATOM     27  F   LIG    1        0.390   0.408  11.795  0.00  0.00    -0.180 F 
ENDBRANCH  22  25
ENDBRANCH  21  22
ENDBRANCH  20  21
ENDBRANCH  19  20
ENDBRANCH  17  19
ENDBRANCH  16  17
ENDBRANCH   1  16
TORSDOF 10
