REMARK  Name = ZINCrD0000073Bdr.0
REMARK                            x       y       z     vdW  Elec       q    Type
REMARK                         _______ _______ _______ _____ _____    ______ ____
ROOT
ATOM      1  O   LIG    1        1.563   7.811   0.031  0.00  0.00    -0.350 OA
ENDROOT
BRANCH   1   2
ATOM      2  C   LIG    1        2.269   6.661   0.018  0.00  0.00    +0.540 C 
ATOM      3  O   LIG    1        3.484   6.694   0.007  0.00  0.00    -0.480 OA
BRANCH   2   9
ATOM      4  C   LIG    1       -1.233   1.751   0.017  0.00  0.00    +0.170 A 
ATOM      5  C   LIG    1       -0.013   1.076   0.008  0.00  0.00    -0.080 A 
ATOM      6  C   LIG    1        1.162   1.768   0.001  0.00  0.00    +0.120 A 
ATOM      7  C   LIG    1        1.147   3.169   0.008  0.00  0.00    -0.160 A 
ATOM      8  C   LIG    1        2.168   4.149   0.004  0.00  0.00    +0.090 A 
ATOM      9  C   LIG    1        1.570   5.371   0.016  0.00  0.00    +0.010 A 
ATOM     10  N   LIG    1        0.197   5.202   0.028  0.00  0.00    -0.570 N 
ATOM     11  H   LIG    1       -0.460   5.916   0.037  0.00  0.00    +0.430 HD
ATOM     12  C   LIG    1       -0.084   3.856   0.023  0.00  0.00    +0.170 A 
ATOM     13  C   LIG    1       -1.271   3.133   0.029  0.00  0.00    -0.050 A 
BRANCH   4  15
ATOM     14  C   LIG    1       -2.286  -0.380   0.011  0.00  0.00    +0.250 C 
ATOM     15  O   LIG    1       -2.393   1.044   0.019  0.00  0.00    -0.310 OA
ENDBRANCH   4  15
ENDBRANCH   2   9
ENDBRANCH   1   2
BRANCH   1  16
ATOM     16  C   LIG    1        2.321   9.049   0.032  0.00  0.00    +0.250 C 
ATOM     17  C   LIG    1        2.575   9.493  -1.411  0.00  0.00    +0.100 C 
BRANCH  16  18
ATOM     18  C   LIG    1        1.540  10.115   0.755  0.00  0.00    +0.450 A 
ATOM     19  N   LIG    1        0.957  11.042   0.047  0.00  0.00    -0.570 NA
ATOM     20  C   LIG    1        0.242  12.028   0.621  0.00  0.00    +0.530 A 
ATOM     21  C   LIG    1        0.130  12.038   2.091  0.00  0.00    -0.210 A 
ATOM     22  C   LIG    1       -0.589  13.018   2.771  0.00  0.00    +0.110 A 
ATOM     23  C   LIG    1       -0.658  12.975   4.147  0.00  0.00    -0.010 A 
ATOM     24  C   LIG    1       -0.018  11.966   4.853  0.00  0.00    +0.090 A 
ATOM     25  C   LIG    1        0.697  10.989   4.192  0.00  0.00    -0.020 A 
ATOM     26  C   LIG    1        0.778  11.015   2.807  0.00  0.00    +0.170 A 
ATOM     27  O   LIG    1       -0.297  12.888  -0.054  0.00  0.00    -0.470 OA
ATOM     28  N   LIG    1        1.476  10.058   2.097  0.00  0.00    -0.620 N 
ATOM     29  H   LIG    1        1.927   9.341   2.570  0.00  0.00    +0.420 HD
ENDBRANCH  16  18
ENDBRANCH   1  16
TORSDOF 5
