REMARK  Name = ZINCnE000004Tfho.0
REMARK                            x       y       z     vdW  Elec       q    Type
REMARK                         _______ _______ _______ _____ _____    ______ ____
ROOT
ATOM      1  C   LIG    1       -3.346   1.415   0.768  0.00  0.00    +0.090 C 
ATOM      2  C   LIG    1       -3.530   2.929   0.893  0.00  0.00    +0.020 C 
ATOM      3  C   LIG    1       -2.174   3.589   1.154  0.00  0.00    +0.020 C 
ATOM      4  C   LIG    1       -1.239   3.311  -0.028  0.00  0.00    +0.260 C 
ATOM      5  N   LIG    1       -1.172   1.859  -0.245  0.00  0.00    -0.610 N 
ATOM      6  C   LIG    1        0.017   1.226  -0.287  0.00  0.00    +0.550 C 
ATOM      7  O   LIG    1        0.066   0.042  -0.562  0.00  0.00    -0.540 OA
ATOM      8  C   LIG    1       -2.425   1.113  -0.423  0.00  0.00    +0.290 C 
ENDROOT
BRANCH   1  13
ATOM      9  C   LIG    1       -7.119  -1.629   1.817  0.00  0.00    +0.140 C 
ATOM     10  C   LIG    1       -6.389  -0.596   0.997  0.00  0.00    +0.070 A 
ATOM     11  C   LIG    1       -6.894  -0.070  -0.162  0.00  0.00    -0.240 A 
ATOM     12  S   LIG    1       -5.721   1.093  -0.776  0.00  0.00    +0.150 S 
ATOM     13  C   LIG    1       -4.686   0.762   0.544  0.00  0.00    -0.000 A 
ATOM     14  N   LIG    1       -5.216  -0.122   1.328  0.00  0.00    -0.470 NA
BRANCH  11  15
ATOM     15  C   LIG    1       -8.176  -0.409  -0.776  0.00  0.00    +0.550 C 
ATOM     16  O   LIG    1       -8.517   0.134  -1.820  0.00  0.00    -0.680 OA
ATOM     17  O   LIG    1       -8.910  -1.234  -0.248  0.00  0.00    -0.660 OA
ENDBRANCH  11  15
ENDBRANCH   1  13
BRANCH   6  18
ATOM     18  C   LIG    1        1.256   1.967  -0.005  0.00  0.00    -0.110 C 
ATOM     19  C   LIG    1        2.412   1.318   0.092  0.00  0.00    -0.020 C 
ATOM     20  C   LIG    1        2.433  -0.189   0.078  0.00  0.00    +0.110 C 
BRANCH  19  21
ATOM     21  C   LIG    1        3.701   2.088   0.216  0.00  0.00    +0.010 C 
ATOM     22  C   LIG    1        4.617   1.743  -0.960  0.00  0.00    +0.040 C 
ATOM     23  C   LIG    1        4.394   1.716   1.529  0.00  0.00    +0.030 C 
ENDBRANCH  19  21
ENDBRANCH   6  18
TORSDOF 4
