REMARK  Name = ZINCqH0000003c2g.0
REMARK                            x       y       z     vdW  Elec       q    Type
REMARK                         _______ _______ _______ _____ _____    ______ ____
ROOT
ATOM      1  C   LIG    1       -4.950   2.413  -0.095  0.00  0.00    +0.250 C 
ATOM      2  C   LIG    1       -5.450   2.848  -1.474  0.00  0.00    +0.080 C 
ENDROOT
BRANCH   1   9
ATOM      3  N   LIG    1       -7.214   3.800   5.516  0.00  0.00    -0.750 N 
ATOM      4  H   LIG    1       -6.247   3.786   5.594  0.00  0.00    +0.390 HD
ATOM      5  C   LIG    1       -7.791   3.853   4.299  0.00  0.00    +0.710 C 
ATOM      6  N   LIG    1       -7.027   3.986   3.196  0.00  0.00    -0.630 N 
ATOM      7  C   LIG    1       -7.640   4.166   1.871  0.00  0.00    +0.320 C 
ATOM      8  C   LIG    1       -7.030   3.141   0.909  0.00  0.00    +0.180 C 
ATOM      9  N   LIG    1       -5.566   3.258   0.938  0.00  0.00    -0.520 NA
ATOM     10  C   LIG    1       -5.032   2.937   2.268  0.00  0.00    +0.160 C 
ATOM     11  C   LIG    1       -5.560   3.954   3.286  0.00  0.00    +0.280 C 
ATOM     12  O   LIG    1       -9.000   3.780   4.196  0.00  0.00    -0.590 OA
BRANCH   3  14
ATOM     13  C   LIG    1       -7.150   3.707   7.959  0.00  0.00    +0.030 C 
ATOM     14  C   LIG    1       -8.046   3.764   6.720  0.00  0.00    +0.270 C 
ENDBRANCH   3  14
ENDBRANCH   1   9
BRANCH   1  15
ATOM     15  C   LIG    1       -3.452   2.559  -0.035  0.00  0.00    +0.200 A 
ATOM     16  N   LIG    1       -2.805   3.685   0.077  0.00  0.00    -0.440 NA
ATOM     17  C   LIG    1       -1.488   3.429   0.104  0.00  0.00    +0.020 A 
ATOM     18  C   LIG    1       -1.331   2.085  -0.006  0.00  0.00    -0.020 A 
ATOM     19  C   LIG    1       -0.385   4.448   0.229  0.00  0.00    +0.160 C 
ATOM     20  O   LIG    1       -2.570   1.552  -0.089  0.00  0.00    -0.190 OA
BRANCH  18  21
ATOM     21  C   LIG    1       -0.050   1.347  -0.026  0.00  0.00    -0.010 A 
ATOM     22  C   LIG    1        0.979   1.752  -0.877  0.00  0.00    +0.060 A 
ATOM     23  C   LIG    1        2.169   1.055  -0.896  0.00  0.00    +0.030 A 
ATOM     24  C   LIG    1        2.344  -0.044  -0.071  0.00  0.00    -0.020 A 
ATOM     25  C   LIG    1        1.327  -0.450   0.776  0.00  0.00    +0.030 A 
ATOM     26 CL   LIG    1        3.845  -0.916  -0.101  0.00  0.00    -0.060 Cl
ATOM     27  C   LIG    1        0.132   0.238   0.802  0.00  0.00    +0.060 A 
ENDBRANCH  18  21
ENDBRANCH   1  15
TORSDOF 4
