REMARK  Name = ZINCqH00000368GV.0
REMARK                            x       y       z     vdW  Elec       q    Type
REMARK                         _______ _______ _______ _____ _____    ______ ____
ROOT
ATOM      1  N   LIG    1        7.264  -0.043  -0.067  0.00  0.00    -0.660 N 
ATOM      2  H   LIG    1        7.353   0.921  -0.138  0.00  0.00    +0.420 HD
ATOM      3  C   LIG    1        6.040  -0.607  -0.055  0.00  0.00    +0.520 C 
ATOM      4  O   LIG    1        5.930  -1.815  -0.067  0.00  0.00    -0.490 OA
ENDROOT
BRANCH   1  10
ATOM      5  C   LIG    1        9.623  -0.392  -0.483  0.00  0.00    +0.150 A 
ATOM      6  C   LIG    1       10.751  -1.191  -0.391  0.00  0.00    -0.030 A 
ATOM      7  C   LIG    1       10.668  -2.438   0.202  0.00  0.00    +0.130 A 
ATOM      8  C   LIG    1        9.463  -2.890   0.704  0.00  0.00    -0.060 A 
ATOM      9  C   LIG    1        8.334  -2.096   0.621  0.00  0.00    +0.140 A 
ATOM     10  C   LIG    1        8.408  -0.847   0.023  0.00  0.00    +0.130 A 
BRANCH   8  11
ATOM     11  N   LIG    1        9.381  -4.225   1.338  0.00  0.00    +0.030 N 
ATOM     12  O   LIG    1        8.319  -4.625   1.782  0.00  0.00    -0.150 OA
ATOM     13  O   LIG    1       10.376  -4.924   1.417  0.00  0.00    -0.160 OA
ENDBRANCH   8  11
BRANCH   5  15
ATOM     14  C   LIG    1       10.982   1.235  -1.563  0.00  0.00    +0.270 C 
ATOM     15  O   LIG    1        9.703   0.834  -1.066  0.00  0.00    -0.310 OA
ENDBRANCH   5  15
ENDBRANCH   1  10
BRANCH   3  16
ATOM     16  C   LIG    1        4.810   0.262  -0.026  0.00  0.00    +0.250 C 
BRANCH  16  17
ATOM     17  O   LIG    1        3.643  -0.564  -0.018  0.00  0.00    -0.280 OA
BRANCH  17  18
ATOM     18  C   LIG    1        2.441   0.068   0.008  0.00  0.00    +0.150 A 
ATOM     19  C   LIG    1        2.381   1.432   0.025  0.00  0.00    -0.090 A 
ATOM     20  C   LIG    1        1.157   2.095   0.050  0.00  0.00    +0.050 A 
ATOM     21  C   LIG    1       -0.016   1.403   0.060  0.00  0.00    -0.010 A 
ATOM     22  C   LIG    1        0.003  -0.003   0.044  0.00  0.00    -0.020 A 
ATOM     23  C   LIG    1       -1.188  -0.748   0.054  0.00  0.00    +0.010 A 
ATOM     24  C   LIG    1       -1.132  -2.108   0.038  0.00  0.00    +0.030 A 
ATOM     25  C   LIG    1        0.091  -2.775   0.012  0.00  0.00    +0.000 A 
ATOM     26  C   LIG    1        1.265  -2.084   0.003  0.00  0.00    +0.060 A 
ATOM     27  C   LIG    1        1.246  -0.681   0.018  0.00  0.00    -0.070 A 
ENDBRANCH  17  18
ENDBRANCH  16  17
ENDBRANCH   3  16
TORSDOF 6
