REMARK  Name = ZINCrg000000sc35.0
REMARK                            x       y       z     vdW  Elec       q    Type
REMARK                         _______ _______ _______ _____ _____    ______ ____
ROOT
ATOM      1  N   LIG    1       -7.080  -0.022  -1.198  0.00  0.00    -1.000 NA
ATOM      2  C   LIG    1       -7.284   0.834  -0.020  0.00  0.00    +0.310 C 
ATOM      3  C   LIG    1       -6.252   1.966  -0.056  0.00  0.00    +0.180 C 
ATOM      4  N   LIG    1       -4.905   1.392  -0.182  0.00  0.00    -0.520 NA
ATOM      5  C   LIG    1       -4.753   0.661  -1.447  0.00  0.00    +0.190 C 
ATOM      6  C   LIG    1       -5.724  -0.524  -1.467  0.00  0.00    +0.310 C 
ENDROOT
BRANCH   1   7
ATOM      7  S   LIG    1       -8.344  -0.411  -2.195  0.00  0.00    +2.690 S 
ATOM      8  O   LIG    1       -9.531  -0.121  -1.469  0.00  0.00    -0.950 OA
ATOM      9  O   LIG    1       -8.054  -1.696  -2.728  0.00  0.00    -0.950 OA
BRANCH   7  14
ATOM     10  C   LIG    1       -8.203   3.434  -6.842  0.00  0.00    +0.090 C 
ATOM     11  C   LIG    1       -8.239   2.474  -5.681  0.00  0.00    -0.020 A 
ATOM     12  C   LIG    1       -7.974   1.133  -5.886  0.00  0.00    -0.020 A 
ATOM     13  C   LIG    1       -8.006   0.251  -4.821  0.00  0.00    +0.130 A 
ATOM     14  C   LIG    1       -8.303   0.712  -3.552  0.00  0.00    -0.690 A 
ATOM     15  C   LIG    1       -8.573   2.052  -3.348  0.00  0.00    +0.030 A 
ATOM     16  C   LIG    1       -8.903   2.553  -1.966  0.00  0.00    +0.100 C 
ATOM     17  C   LIG    1       -8.537   2.934  -4.412  0.00  0.00    -0.020 A 
ENDBRANCH   7  14
ENDBRANCH   1   7
BRANCH   4  18
ATOM     18  C   LIG    1       -3.876   2.432  -0.048  0.00  0.00    +0.220 C 
BRANCH  18  19
ATOM     19  C   LIG    1       -2.520   1.784   0.064  0.00  0.00    +0.500 C 
ATOM     20  N   LIG    1       -1.417   2.547   0.197  0.00  0.00    -0.660 N 
ATOM     21  H   LIG    1       -1.501   3.509   0.293  0.00  0.00    +0.420 HD
ATOM     22  O   LIG    1       -2.421   0.575   0.036  0.00  0.00    -0.450 OA
BRANCH  20  23
ATOM     23  C   LIG    1       -0.155   1.955   0.195  0.00  0.00    +0.310 A 
ATOM     24  C   LIG    1        0.988   2.749   0.222  0.00  0.00    +0.190 A 
ATOM     25  N   LIG    1        2.181   2.185   0.226  0.00  0.00    -0.410 NA
ATOM     26  C   LIG    1        2.291   0.867   0.203  0.00  0.00    +0.180 A 
ATOM     27  C   LIG    1        1.158   0.076   0.176  0.00  0.00    +0.260 A 
ATOM     28  N   LIG    1       -0.040   0.634   0.172  0.00  0.00    -0.430 NA
ENDBRANCH  20  23
ENDBRANCH  18  19
ENDBRANCH   4  18
TORSDOF 5
