REMARK  Name = ZINCrH000004mxjD.0
REMARK                            x       y       z     vdW  Elec       q    Type
REMARK                         _______ _______ _______ _____ _____    ______ ____
ROOT
ATOM      1  C   LIG    1        4.856   1.164  -0.037  0.00  0.00    -0.040 C 
ATOM      2  C   LIG    1        4.737   0.412   1.305  0.00  0.00    +0.040 C 
ATOM      3  C   LIG    1        6.202   0.243   1.777  0.00  0.00    +0.010 C 
ATOM      4  C   LIG    1        6.855   1.582   1.354  0.00  0.00    +0.020 C 
ATOM      5  C   LIG    1        6.203   1.907  -0.006  0.00  0.00    +0.050 C 
ENDROOT
BRANCH   1   9
ATOM      6  C   LIG    1        1.646   3.959  -0.446  0.00  0.00    +0.100 A 
ATOM      7  C   LIG    1        1.911   3.051  -1.458  0.00  0.00    -0.030 A 
ATOM      8  C   LIG    1        2.949   2.148  -1.323  0.00  0.00    +0.010 A 
ATOM      9  C   LIG    1        3.725   2.150  -0.179  0.00  0.00    -0.070 A 
ATOM     10  C   LIG    1        3.470   3.057   0.833  0.00  0.00    -0.020 A 
ATOM     11  C   LIG    1        2.428   3.960   0.706  0.00  0.00    +0.110 A 
BRANCH   6  13
ATOM     12  C   LIG    1       -0.135   4.789  -1.786  0.00  0.00    +0.250 C 
ATOM     13  O   LIG    1        0.625   4.848  -0.577  0.00  0.00    -0.310 OA
ENDBRANCH   6  13
BRANCH  11  14
ATOM     14  O   LIG    1        2.172   4.850   1.702  0.00  0.00    -0.300 OA
ATOM     15  C   LIG    1        3.014   4.793   2.855  0.00  0.00    +0.240 C 
ENDBRANCH  11  14
ENDBRANCH   1   9
BRANCH   1  16
ATOM     16  C   LIG    1        4.834   0.184  -1.182  0.00  0.00    +0.530 C 
ATOM     17  N   LIG    1        3.805  -0.677  -1.312  0.00  0.00    -0.730 N 
ATOM     18  H   LIG    1        3.045  -0.619  -0.712  0.00  0.00    +0.400 HD
ATOM     19  O   LIG    1        5.741   0.171  -1.987  0.00  0.00    -0.530 OA
BRANCH  17  20
ATOM     20  C   LIG    1        3.836  -1.702  -2.358  0.00  0.00    +0.240 C 
ATOM     21  C   LIG    1        3.312  -1.110  -3.670  0.00  0.00    -0.020 C 
ATOM     22  C   LIG    1        3.309  -2.193  -4.751  0.00  0.00    +0.210 C 
ATOM     23  O   LIG    1        2.476  -3.279  -4.335  0.00  0.00    -0.360 OA
ATOM     24  C   LIG    1        2.879  -3.877  -3.106  0.00  0.00    +0.090 C 
ATOM     25  C   LIG    1        4.137  -4.746  -3.230  0.00  0.00    +0.000 C 
ATOM     26  C   LIG    1        3.449  -5.735  -2.273  0.00  0.00    +0.020 C 
ATOM     27  C   LIG    1        2.110  -5.159  -2.764  0.00  0.00    +0.050 C 
ATOM     28  C   LIG    1        2.942  -2.879  -1.950  0.00  0.00    +0.030 C 
ENDBRANCH  17  20
ENDBRANCH   1  16
TORSDOF 5
