REMARK  Name = ZINCrH000004nklB.0
REMARK                            x       y       z     vdW  Elec       q    Type
REMARK                         _______ _______ _______ _____ _____    ______ ____
ROOT
ATOM      1  N   LIG    1       -2.922  -2.856  -1.437  0.00  0.00    -0.640 N 
ATOM      2  C   LIG    1       -1.959  -2.024  -1.880  0.00  0.00    +0.710 C 
ATOM      3  N   LIG    1       -1.391  -2.232  -3.085  0.00  0.00    -0.760 N 
ATOM      4  H   LIG    1       -1.703  -2.956  -3.649  0.00  0.00    +0.420 HD
ATOM      5  O   LIG    1       -1.601  -1.087  -1.193  0.00  0.00    -0.560 OA
ENDROOT
BRANCH   1   6
ATOM      6  C   LIG    1       -2.792  -4.301  -1.637  0.00  0.00    +0.220 C 
ATOM      7  C   LIG    1       -2.060  -4.569  -2.954  0.00  0.00    +0.030 C 
ATOM      8  C   LIG    1       -2.854  -3.963  -4.112  0.00  0.00    +0.000 C 
ATOM      9  C   LIG    1       -4.245  -4.599  -4.163  0.00  0.00    +0.170 C 
ATOM     10  C   LIG    1       -4.978  -4.330  -2.847  0.00  0.00    +0.040 C 
ATOM     11  C   LIG    1       -4.183  -4.936  -1.689  0.00  0.00    +0.030 C 
BRANCH   9  12
ATOM     12  O   LIG    1       -4.988  -4.033  -5.245  0.00  0.00    -0.560 OA
ATOM     13  H   LIG    1       -4.639  -4.254  -6.120  0.00  0.00    +0.380 HD
ENDBRANCH   9  12
ENDBRANCH   1   6
BRANCH   1  14
ATOM     14  C   LIG    1       -4.100  -2.314  -0.754  0.00  0.00    +0.350 C 
BRANCH  14  19
ATOM     15  C   LIG    1       -3.033  -1.033   2.637  0.00  0.00    +0.120 A 
ATOM     16  C   LIG    1       -3.340  -2.116   3.448  0.00  0.00    -0.080 A 
ATOM     17  C   LIG    1       -3.899  -3.253   2.898  0.00  0.00    +0.030 A 
ATOM     18  C   LIG    1       -4.143  -3.317   1.539  0.00  0.00    -0.030 A 
ATOM     19  C   LIG    1       -3.833  -2.241   0.727  0.00  0.00    -0.070 A 
ATOM     20  C   LIG    1       -3.279  -1.100   1.273  0.00  0.00    +0.030 A 
BRANCH  15  22
ATOM     21  C   LIG    1       -2.262   0.086   4.587  0.00  0.00    +0.230 C 
ATOM     22  O   LIG    1       -2.487   0.088   3.176  0.00  0.00    -0.320 OA
ENDBRANCH  15  22
ENDBRANCH  14  19
ENDBRANCH   1  14
BRANCH   3  23
ATOM     23  C   LIG    1       -0.303  -1.363  -3.541  0.00  0.00    +0.310 C 
BRANCH  23  24
ATOM     24  C   LIG    1        0.274  -1.912  -4.821  0.00  0.00    -0.110 A 
ATOM     25  C   LIG    1        1.326  -2.808  -4.776  0.00  0.00    +0.020 A 
ATOM     26  C   LIG    1        1.852  -3.314  -5.950  0.00  0.00    +0.000 A 
ATOM     27  C   LIG    1        1.333  -2.917  -7.168  0.00  0.00    +0.010 A 
ATOM     28  C   LIG    1        0.285  -2.018  -7.213  0.00  0.00    +0.000 A 
ATOM     29  C   LIG    1       -0.245  -1.515  -6.039  0.00  0.00    +0.020 A 
ENDBRANCH  23  24
ENDBRANCH   3  23
TORSDOF 7
