REMARK  Name = ZINCAx0000000fXc.1
REMARK                            x       y       z     vdW  Elec       q    Type
REMARK                         _______ _______ _______ _____ _____    ______ ____
ROOT
ATOM      1  C   LIG    1        7.271   0.168   0.113  0.00  0.00    +0.120 A 
ATOM      2  C   LIG    1        8.507  -0.458   0.192  0.00  0.00    -0.010 A 
ATOM      3  C   LIG    1        8.584  -1.838   0.176  0.00  0.00    +0.110 A 
ATOM      4  C   LIG    1        7.433  -2.599   0.088  0.00  0.00    -0.660 A 
ATOM      5  C   LIG    1        6.197  -1.983   0.015  0.00  0.00    +0.140 A 
ATOM      6  C   LIG    1        6.109  -0.600   0.030  0.00  0.00    +0.160 A 
ENDROOT
BRANCH   1  10
ATOM      7  N   LIG    1        8.241   4.210   0.179  0.00  0.00    -0.540 NA
ATOM      8  C   LIG    1        7.588   3.637   1.365  0.00  0.00    +0.180 C 
ATOM      9  C   LIG    1        7.767   2.117   1.357  0.00  0.00    +0.190 C 
ATOM     10  N   LIG    1        7.191   1.565   0.123  0.00  0.00    -0.510 N 
ATOM     11  C   LIG    1        7.843   2.138  -1.062  0.00  0.00    +0.190 C 
ATOM     12  C   LIG    1        7.664   3.658  -1.055  0.00  0.00    +0.180 C 
BRANCH   7  14
ATOM     13  C   LIG    1        8.617   6.224  -1.163  0.00  0.00    +0.020 C 
ATOM     14  C   LIG    1        8.156   5.677   0.189  0.00  0.00    +0.170 C 
ENDBRANCH   7  14
ENDBRANCH   1  10
BRANCH   6  15
ATOM     15  N   LIG    1        4.858   0.026  -0.045  0.00  0.00    -0.660 N 
ATOM     16  H   LIG    1        4.764   0.868  -0.517  0.00  0.00    +0.420 HD
ATOM     17  C   LIG    1        3.785  -0.542   0.540  0.00  0.00    +0.560 C 
ATOM     18  O   LIG    1        3.884  -1.636   1.062  0.00  0.00    -0.490 OA
BRANCH  17  19
ATOM     19  C   LIG    1        2.489   0.164   0.547  0.00  0.00    -0.160 A 
ATOM     20  C   LIG    1        2.370   1.420  -0.052  0.00  0.00    +0.090 A 
ATOM     21  C   LIG    1        1.157   2.074  -0.043  0.00  0.00    -0.010 A 
ATOM     22  C   LIG    1        0.054   1.490   0.558  0.00  0.00    +0.090 A 
ATOM     23  C   LIG    1        0.157   0.249   1.154  0.00  0.00    -0.060 A 
ATOM     24  C   LIG    1        1.370  -0.423   1.154  0.00  0.00    +0.170 A 
BRANCH  24  25
ATOM     25  O   LIG    1        1.474  -1.643   1.739  0.00  0.00    -0.290 OA
BRANCH  25  26
ATOM     26  C   LIG    1        0.291  -2.177   2.338  0.00  0.00    +0.600 C 
ATOM     27  F   LIG    1       -0.705  -2.311   1.365  0.00  0.00    -0.200 F 
ATOM     28  F   LIG    1       -0.152  -1.314   3.345  0.00  0.00    -0.200 F 
ENDBRANCH  25  26
ENDBRANCH  24  25
ENDBRANCH  17  19
ENDBRANCH   6  15
BRANCH   4  29
ATOM     29  S   LIG    1        7.541  -4.357   0.069  0.00  0.00    +2.690 S 
ATOM     30  O   LIG    1        6.285  -4.841   0.524  0.00  0.00    -0.940 OA
ATOM     31  O   LIG    1        8.774  -4.690   0.692  0.00  0.00    -0.950 OA
BRANCH  29  32
ATOM     32  N   LIG    1        7.676  -4.823  -1.514  0.00  0.00    -1.000 NA
ATOM     33  C   LIG    1        6.482  -5.118  -2.322  0.00  0.00    +0.280 C 
ATOM     34  C   LIG    1        6.585  -4.326  -3.635  0.00  0.00    +0.220 C 
ATOM     35  O   LIG    1        7.847  -4.596  -4.248  0.00  0.00    -0.370 OA
ATOM     36  C   LIG    1        8.975  -4.181  -3.474  0.00  0.00    +0.220 C 
ATOM     37  C   LIG    1        8.995  -4.959  -2.154  0.00  0.00    +0.280 C 
ENDBRANCH  29  32
ENDBRANCH   4  29
TORSDOF 8
