REMARK  Name = ZINCpe000000YeBd.0
REMARK                            x       y       z     vdW  Elec       q    Type
REMARK                         _______ _______ _______ _____ _____    ______ ____
ROOT
ATOM      1  S   LIG    1       -1.851   2.400   1.734  0.00  0.00    +2.400 S 
ATOM      2  O   LIG    1       -0.921   3.282   2.348  0.00  0.00    -0.900 OA
ATOM      3  O   LIG    1       -2.119   1.143   2.342  0.00  0.00    -0.910 OA
ENDROOT
BRANCH   1   4
ATOM      4  C   LIG    1       -3.421   3.279   1.508  0.00  0.00    -0.270 C 
BRANCH   4   9
ATOM      5  C   LIG    1       -5.681   4.438   6.618  0.00  0.00    +0.350 C 
ATOM      6  N   LIG    1       -5.096   4.157   5.304  0.00  0.00    -0.560 N 
ATOM      7  C   LIG    1       -4.524   5.153   4.597  0.00  0.00    +0.550 A 
ATOM      8  C   LIG    1       -3.958   4.869   3.331  0.00  0.00    -0.080 A 
ATOM      9  C   LIG    1       -4.012   3.607   2.855  0.00  0.00    +0.200 A 
ATOM     10  N   LIG    1       -4.601   2.625   3.604  0.00  0.00    -0.530 N 
ATOM     11  C   LIG    1       -4.656   1.254   3.090  0.00  0.00    +0.350 C 
ATOM     12  O   LIG    1       -4.493   6.285   5.045  0.00  0.00    -0.500 OA
ATOM     13  C   LIG    1       -5.131   2.906   4.808  0.00  0.00    +0.700 A 
ATOM     14  O   LIG    1       -5.650   2.019   5.457  0.00  0.00    -0.530 OA
ENDBRANCH   4   9
ENDBRANCH   1   4
BRANCH   1  15
ATOM     15  C   LIG    1       -1.331   2.113   0.020  0.00  0.00    -0.250 C 
BRANCH  15  16
ATOM     16  C   LIG    1       -0.017   1.377   0.010  0.00  0.00    -0.120 A 
ATOM     17  C   LIG    1        0.002  -0.004   0.002  0.00  0.00    +0.070 A 
ATOM     18  C   LIG    1        1.208  -0.680  -0.013  0.00  0.00    +0.000 A 
ATOM     19  C   LIG    1        2.398   0.024  -0.021  0.00  0.00    +0.070 A 
ATOM     20  C   LIG    1        2.385   1.405  -0.013  0.00  0.00    -0.050 A 
ATOM     21  C   LIG    1        1.176   2.086   0.002  0.00  0.00    +0.130 A 
BRANCH  21  22
ATOM     22  O   LIG    1        1.160   3.445   0.009  0.00  0.00    -0.320 OA
BRANCH  22  23
ATOM     23  C   LIG    1        2.426   4.108   0.001  0.00  0.00    +0.600 C 
ATOM     24  F   LIG    1        3.134   3.747  -1.150  0.00  0.00    -0.200 F 
ATOM     25  F   LIG    1        3.156   3.735   1.134  0.00  0.00    -0.190 F 
ENDBRANCH  22  23
ENDBRANCH  21  22
ENDBRANCH  15  16
ENDBRANCH   1  15
TORSDOF 6
