REMARK  Name = ZINCrH000004piQ2.0
REMARK                            x       y       z     vdW  Elec       q    Type
REMARK                         _______ _______ _______ _____ _____    ______ ____
ROOT
ATOM      1  N   LIG    1       -0.142  -5.314   0.475  0.00  0.00    -0.740 N 
ATOM      2  H   LIG    1       -0.604  -4.673   1.039  0.00  0.00    +0.400 HD
ATOM      3  C   LIG    1        0.343  -6.453   1.007  0.00  0.00    +0.710 C 
ATOM      4  N   LIG    1        0.188  -6.702   2.322  0.00  0.00    -0.630 N 
ATOM      5  C   LIG    1       -0.509  -5.735   3.174  0.00  0.00    +0.270 C 
ATOM      6  O   LIG    1        0.921  -7.256   0.300  0.00  0.00    -0.580 OA
ENDROOT
BRANCH   1   8
ATOM      7  C   LIG    1       -1.102  -5.716  -1.739  0.00  0.00    +0.040 C 
ATOM      8  C   LIG    1        0.027  -5.043  -0.955  0.00  0.00    +0.310 C 
BRANCH   8   9
ATOM      9  C   LIG    1       -0.015  -3.555  -1.193  0.00  0.00    -0.080 A 
ATOM     10  C   LIG    1       -0.918  -2.771  -0.500  0.00  0.00    +0.030 A 
ATOM     11  C   LIG    1       -0.960  -1.406  -0.714  0.00  0.00    +0.040 A 
ATOM     12  C   LIG    1       -0.096  -0.820  -1.624  0.00  0.00    +0.030 A 
ATOM     13  O   LIG    1        0.064   0.478  -2.014  0.00  0.00    -0.310 OA
ATOM     14  C   LIG    1        1.354   0.531  -2.653  0.00  0.00    +0.430 C 
ATOM     15  O   LIG    1        1.545  -0.806  -3.149  0.00  0.00    -0.310 OA
ATOM     16  C   LIG    1        0.815  -1.610  -2.322  0.00  0.00    +0.040 A 
ATOM     17  C   LIG    1        0.851  -2.977  -2.103  0.00  0.00    +0.050 A 
ENDBRANCH   8   9
ENDBRANCH   1   8
BRANCH   4  18
ATOM     18  C   LIG    1        0.715  -7.941   2.900  0.00  0.00    +0.320 C 
ATOM     19  C   LIG    1       -0.280  -8.490   3.924  0.00  0.00    +0.050 C 
BRANCH  18  20
ATOM     20  C   LIG    1        2.030  -7.657   3.580  0.00  0.00    -0.090 A 
ATOM     21  C   LIG    1        2.164  -6.545   4.389  0.00  0.00    +0.070 A 
ATOM     22  C   LIG    1        3.370  -6.285   5.013  0.00  0.00    +0.030 A 
ATOM     23  C   LIG    1        4.442  -7.138   4.827  0.00  0.00    +0.090 A 
ATOM     24  C   LIG    1        4.308  -8.251   4.018  0.00  0.00    -0.040 A 
ATOM     25  C   LIG    1        3.100  -8.514   3.399  0.00  0.00    +0.120 A 
BRANCH  24  26
ATOM     26  N   LIG    1        5.455  -9.165   3.820  0.00  0.00    +0.030 N 
ATOM     27  O   LIG    1        5.337 -10.145   3.107  0.00  0.00    -0.150 OA
ATOM     28  O   LIG    1        6.518  -8.936   4.370  0.00  0.00    -0.160 OA
ENDBRANCH  24  26
ENDBRANCH  18  20
ENDBRANCH   4  18
TORSDOF 5
