REMARK  Name = ZINCpk000000oNop.0
REMARK                            x       y       z     vdW  Elec       q    Type
REMARK                         _______ _______ _______ _____ _____    ______ ____
ROOT
ATOM      1  C   LIG    1       -2.405   1.377   3.302  0.00  0.00    -0.150 A 
ATOM      2  C   LIG    1       -1.678   0.936   2.195  0.00  0.00    +0.210 A 
ATOM      3  C   LIG    1       -0.924   1.832   1.466  0.00  0.00    -0.700 A 
ATOM      4  C   LIG    1       -0.883   3.166   1.834  0.00  0.00    +0.170 A 
ATOM      5  C   LIG    1       -1.605   3.611   2.927  0.00  0.00    +0.000 A 
ATOM      6  C   LIG    1       -2.363   2.725   3.664  0.00  0.00    +0.040 A 
ATOM      7  C   LIG    1       -3.144   3.211   4.858  0.00  0.00    +0.130 C 
ENDROOT
BRANCH   3   8
ATOM      8  S   LIG    1       -0.005   1.277   0.069  0.00  0.00    +2.690 S 
ATOM      9  O   LIG    1        1.045   2.215  -0.119  0.00  0.00    -0.950 OA
ATOM     10  O   LIG    1        0.219  -0.113   0.263  0.00  0.00    -0.950 OA
BRANCH   8  11
ATOM     11  N   LIG    1       -0.994   1.411  -1.252  0.00  0.00    -1.000 NA
ATOM     12  C   LIG    1       -1.855   0.292  -1.660  0.00  0.00    +0.290 C 
ATOM     13  C   LIG    1       -3.300   0.802  -1.770  0.00  0.00    +0.010 C 
ATOM     14  C   LIG    1       -3.340   2.003  -2.718  0.00  0.00    +0.010 C 
ATOM     15  C   LIG    1       -2.474   3.131  -2.152  0.00  0.00    +0.010 C 
ATOM     16  C   LIG    1       -1.024   2.649  -2.043  0.00  0.00    +0.290 C 
ENDBRANCH   8  11
ENDBRANCH   3   8
BRANCH   1  17
ATOM     17  C   LIG    1       -3.214   0.423   4.087  0.00  0.00    +0.510 C 
ATOM     18  O   LIG    1       -3.753   0.785   5.114  0.00  0.00    -0.500 OA
BRANCH  17  19
ATOM     19  O   LIG    1       -3.353  -0.849   3.665  0.00  0.00    -0.330 OA
BRANCH  19  20
ATOM     20  C   LIG    1       -4.162  -1.731   4.487  0.00  0.00    +0.270 C 
BRANCH  20  23
ATOM     21  N   LIG    1       -4.900  -4.092   4.454  0.00  0.00    -0.730 N 
ATOM     22  H   LIG    1       -5.375  -3.922   5.282  0.00  0.00    +0.400 HD
ATOM     23  C   LIG    1       -4.203  -3.102   3.862  0.00  0.00    +0.510 C 
ATOM     24  O   LIG    1       -3.609  -3.314   2.826  0.00  0.00    -0.510 OA
BRANCH  21  26
ATOM     25  C   LIG    1       -5.793  -6.354   4.712  0.00  0.00    +0.030 C 
ATOM     26  C   LIG    1       -4.941  -5.424   3.846  0.00  0.00    +0.250 C 
ENDBRANCH  21  26
ENDBRANCH  20  23
ENDBRANCH  19  20
ENDBRANCH  17  19
ENDBRANCH   1  17
TORSDOF 7
