REMARK  Name = ZINCpe00000gMYjO.1
REMARK                            x       y       z     vdW  Elec       q    Type
REMARK                         _______ _______ _______ _____ _____    ______ ____
ROOT
ATOM      1  C   LIG    1       -1.333   0.688  -8.254  0.00  0.00    +0.190 C 
ATOM      2  C   LIG    1       -2.007   1.739  -7.410  0.00  0.00    +0.120 A 
ATOM      3  N   LIG    1       -2.784   2.690  -7.842  0.00  0.00    -0.240 NA
ATOM      4  N   LIG    1       -3.226   3.474  -6.772  0.00  0.00    -0.390 N 
ATOM      5  C   LIG    1       -2.699   2.989  -5.609  0.00  0.00    +0.330 A 
ATOM      6  N   LIG    1       -2.802   3.361  -4.337  0.00  0.00    -0.500 NA
ATOM      7  C   LIG    1       -2.189   2.713  -3.374  0.00  0.00    +0.360 A 
ATOM      8  C   LIG    1       -1.381   1.600  -3.643  0.00  0.00    -0.230 A 
ATOM      9  C   LIG    1       -1.237   1.166  -4.962  0.00  0.00    +0.210 A 
ATOM     10  C   LIG    1       -1.908   1.874  -5.960  0.00  0.00    -0.230 A 
ENDROOT
BRANCH   8  11
ATOM     11  C   LIG    1       -0.695   0.891  -2.544  0.00  0.00    +0.570 C 
ATOM     12  N   LIG    1        0.036   1.584  -1.648  0.00  0.00    -0.600 N 
ATOM     13  C   LIG    1        0.902   0.874  -0.703  0.00  0.00    +0.300 C 
ATOM     14  O   LIG    1       -0.789  -0.317  -2.447  0.00  0.00    -0.530 OA
BRANCH  12  15
ATOM     15  C   LIG    1       -0.035   3.047  -1.619  0.00  0.00    +0.200 C 
ATOM     16  C   LIG    1        1.361   3.627  -1.374  0.00  0.00    +0.220 C 
ATOM     17  N   LIG    1        1.350   4.417  -0.136  0.00  0.00    -0.520 NA
ATOM     18  C   LIG    1        0.423   5.553  -0.243  0.00  0.00    +0.210 C 
ATOM     19  C   LIG    1       -0.999   5.028  -0.456  0.00  0.00    -0.010 C 
ATOM     20  C   LIG    1        1.022   3.577   1.024  0.00  0.00    +0.210 C 
ATOM     21  C   LIG    1       -0.384   2.995   0.847  0.00  0.00    +0.000 C 
ATOM     22  C   LIG    1       -0.963   3.494  -0.483  0.00  0.00    -0.020 C 
ENDBRANCH  12  15
ENDBRANCH   8  11
BRANCH   4  23
ATOM     23  C   LIG    1       -4.114   4.634  -6.881  0.00  0.00    +0.360 C 
BRANCH  23  24
ATOM     24  C   LIG    1       -5.568   4.176  -6.760  0.00  0.00    +0.160 C 
BRANCH  24  25
ATOM     25  O   LIG    1       -6.435   5.307  -6.867  0.00  0.00    -0.570 OA
ATOM     26  H   LIG    1       -7.375   5.091  -6.799  0.00  0.00    +0.390 HD
ENDBRANCH  24  25
ENDBRANCH  23  24
ENDBRANCH   4  23
TORSDOF 5
