REMARK  Name = ZINCrH000004s3o7.0
REMARK                            x       y       z     vdW  Elec       q    Type
REMARK                         _______ _______ _______ _____ _____    ______ ____
ROOT
ATOM      1  C   LIG    1        1.319   1.281  -0.147  0.00  0.00    -0.050 A 
ATOM      2  C   LIG    1        1.723   2.412   0.565  0.00  0.00    +0.140 A 
ATOM      3  C   LIG    1        0.785   3.182   1.222  0.00  0.00    +0.010 A 
ATOM      4  C   LIG    1       -0.553   2.835   1.176  0.00  0.00    +0.160 A 
ATOM      5  C   LIG    1       -0.961   1.718   0.468  0.00  0.00    -0.680 A 
ATOM      6  C   LIG    1       -0.033   0.937  -0.189  0.00  0.00    +0.180 A 
ENDROOT
BRANCH   1  10
ATOM      7  C   LIG    1        4.117  -0.342  -1.647  0.00  0.00    +0.190 A 
ATOM      8  N   LIG    1        3.119  -1.091  -2.014  0.00  0.00    -0.370 NA
ATOM      9  O   LIG    1        2.078  -0.659  -1.566  0.00  0.00    +0.090 OA
ATOM     10  C   LIG    1        2.318   0.452  -0.853  0.00  0.00    +0.220 A 
ATOM     11  N   LIG    1        3.623   0.656  -0.899  0.00  0.00    -0.470 NA
BRANCH   7  12
ATOM     12  C   LIG    1        5.567  -0.557  -1.999  0.00  0.00    +0.220 C 
BRANCH  12  19
ATOM     13  C   LIG    1        5.374  -3.434  -2.174  0.00  0.00    +0.090 C 
ATOM     14  C   LIG    1        6.124  -2.798  -1.033  0.00  0.00    -0.070 A 
ATOM     15  C   LIG    1        6.724  -3.590  -0.072  0.00  0.00    +0.000 A 
ATOM     16  C   LIG    1        7.407  -3.006   0.978  0.00  0.00    +0.010 A 
ATOM     17  C   LIG    1        7.495  -1.629   1.065  0.00  0.00    -0.010 A 
ATOM     18  C   LIG    1        6.899  -0.837   0.101  0.00  0.00    +0.030 A 
ATOM     19  C   LIG    1        6.216  -1.421  -0.949  0.00  0.00    -0.100 A 
ENDBRANCH  12  19
ENDBRANCH   7  12
ENDBRANCH   1  10
BRANCH   5  20
ATOM     20  S   LIG    1       -2.669   1.290   0.410  0.00  0.00    +2.700 S 
ATOM     21  O   LIG    1       -2.795   0.274  -0.575  0.00  0.00    -0.950 OA
ATOM     22  O   LIG    1       -3.389   2.514   0.360  0.00  0.00    -0.950 OA
BRANCH  20  23
ATOM     23  N   LIG    1       -3.047   0.584   1.860  0.00  0.00    -1.110 NA
ATOM     24  H   LIG    1       -3.638   1.038   2.481  0.00  0.00    +0.420 HD
BRANCH  23  25
ATOM     25  C   LIG    1       -2.488  -0.726   2.205  0.00  0.00    +0.170 C 
ATOM     26  C   LIG    1       -3.044  -1.784   1.251  0.00  0.00    +0.040 C 
ATOM     27  C   LIG    1       -2.873  -1.082   3.643  0.00  0.00    +0.050 C 
ATOM     28  C   LIG    1       -0.964  -0.678   2.082  0.00  0.00    +0.030 C 
ENDBRANCH  23  25
ENDBRANCH  20  23
ENDBRANCH   5  20
TORSDOF 6
