REMARK  Name = ZINCpe000000WnNp.0
REMARK                            x       y       z     vdW  Elec       q    Type
REMARK                         _______ _______ _______ _____ _____    ______ ____
ROOT
ATOM      1  C   LIG    1       -3.639  -0.946   4.097  0.00  0.00    -0.010 C 
ATOM      2  C   LIG    1       -3.140  -0.382   5.431  0.00  0.00    +0.020 C 
ATOM      3  C   LIG    1       -2.474  -1.507   6.232  0.00  0.00    +0.200 C 
ATOM      4  O   LIG    1       -3.407  -2.571   6.425  0.00  0.00    -0.380 OA
ATOM      5  C   LIG    1       -3.873  -3.166   5.212  0.00  0.00    +0.210 C 
ATOM      6  C   LIG    1       -4.596  -2.110   4.372  0.00  0.00    +0.010 C 
ENDROOT
BRANCH   1  10
ATOM      7  C   LIG    1       -5.696   2.113   1.934  0.00  0.00    +0.130 A 
ATOM      8  C   LIG    1       -4.358   2.275   2.264  0.00  0.00    -0.020 A 
ATOM      9  C   LIG    1       -3.696   1.285   2.963  0.00  0.00    +0.060 A 
ATOM     10  C   LIG    1       -4.364   0.133   3.334  0.00  0.00    -0.110 A 
ATOM     11  C   LIG    1       -5.696  -0.034   3.001  0.00  0.00    +0.050 A 
ATOM     12  C   LIG    1       -6.365   0.956   2.307  0.00  0.00    -0.080 A 
BRANCH   7  14
ATOM     13  C   LIG    1       -7.726   2.850   0.940  0.00  0.00    +0.250 C 
ATOM     14  O   LIG    1       -6.350   3.085   1.246  0.00  0.00    -0.320 OA
ENDBRANCH   7  14
ENDBRANCH   1  10
BRANCH   1  15
ATOM     15  C   LIG    1       -2.450  -1.443   3.274  0.00  0.00    +0.280 C 
BRANCH  15  16
ATOM     16  N   LIG    1       -2.922  -1.919   1.971  0.00  0.00    -1.110 NA
ATOM     17  H   LIG    1       -3.867  -2.086   1.829  0.00  0.00    +0.420 HD
BRANCH  16  18
ATOM     18  S   LIG    1       -1.843  -2.171   0.741  0.00  0.00    +2.720 S 
ATOM     19  O   LIG    1       -2.597  -2.657  -0.361  0.00  0.00    -0.950 OA
ATOM     20  O   LIG    1       -1.030  -1.008   0.675  0.00  0.00    -0.930 OA
BRANCH  18  21
ATOM     21  C   LIG    1       -0.784  -3.490   1.238  0.00  0.00    -0.610 A 
ATOM     22  C   LIG    1        0.382  -3.384   1.916  0.00  0.00    +0.280 A 
ATOM     23  N   LIG    1        0.843  -4.629   2.077  0.00  0.00    -0.270 NA
ATOM     24  N   LIG    1        0.013  -5.452   1.539  0.00  0.00    -0.040 NA
ATOM     25  N   LIG    1       -0.974  -4.811   1.019  0.00  0.00    -0.220 N 
ATOM     26  C   LIG    1       -2.112  -5.410   0.316  0.00  0.00    +0.390 C 
ENDBRANCH  18  21
ENDBRANCH  16  18
ENDBRANCH  15  16
ENDBRANCH   1  15
TORSDOF 6
