REMARK  Name = ZINCkj000005eoMA.0
REMARK                            x       y       z     vdW  Elec       q    Type
REMARK                         _______ _______ _______ _____ _____    ______ ____
ROOT
ATOM      1  N   LIG    1       -4.216   0.711   0.049  0.00  0.00    -0.610 N 
ATOM      2  C   LIG    1       -5.322   1.481   0.060  0.00  0.00    +0.530 C 
ATOM      3  O   LIG    1       -5.219   2.690   0.062  0.00  0.00    -0.500 OA
ENDROOT
BRANCH   1   4
ATOM      4  C   LIG    1       -2.890   1.333   0.039  0.00  0.00    +0.250 C 
ATOM      5  C   LIG    1       -2.130   0.900  -1.219  0.00  0.00    +0.050 C 
ATOM      6  C   LIG    1       -0.719   1.490  -1.184  0.00  0.00    +0.270 C 
ATOM      7  N   LIG    1       -0.012   1.005   0.008  0.00  0.00    -0.390 N 
ATOM      8  C   LIG    1       -0.696   1.477   1.217  0.00  0.00    +0.270 C 
ATOM      9  C   LIG    1        1.367   1.512  -0.003  0.00  0.00    +0.320 C 
ATOM     10  H   LIG    1        0.002  -0.004   0.002  0.00  0.00    +0.420 HD
ATOM     11  C   LIG    1       -2.105   0.887   1.276  0.00  0.00    +0.050 C 
ENDBRANCH   1   4
BRANCH   2  12
ATOM     12  C   LIG    1       -6.686   0.841   0.071  0.00  0.00    +0.160 C 
ATOM     13  C   LIG    1       -6.932   0.122   1.416  0.00  0.00    +0.040 C 
ATOM     14  C   LIG    1       -8.429   0.373   1.707  0.00  0.00    -0.100 C 
ATOM     15  C   LIG    1       -8.909   1.214   0.504  0.00  0.00    +0.220 C 
ATOM     16  C   LIG    1       -9.191  -0.952   1.774  0.00  0.00    +0.050 C 
ATOM     17  C   LIG    1       -8.597   1.157   3.010  0.00  0.00    +0.040 C 
ATOM     18  O   LIG    1       -7.716   1.851  -0.002  0.00  0.00    -0.340 OA
ENDBRANCH   2  12
BRANCH   1  19
ATOM     19  C   LIG    1       -4.340  -0.749   0.047  0.00  0.00    +0.430 C 
BRANCH  19  21
ATOM     20  C   LIG    1       -4.393  -1.633   2.540  0.00  0.00    +0.070 C 
ATOM     21  C   LIG    1       -4.369  -1.241   1.434  0.00  0.00    -0.230 C 
ENDBRANCH  19  21
ENDBRANCH   1  19
TORSDOF 4
