REMARK  Name = ZINCrH00000No4AS.0
REMARK                            x       y       z     vdW  Elec       q    Type
REMARK                         _______ _______ _______ _____ _____    ______ ____
ROOT
ATOM      1  N   LIG    1        2.748   1.062   3.305  0.00  0.00    -0.980 NA
ENDROOT
BRANCH   1   2
ATOM      2  C   LIG    1        1.797   1.054   2.190  0.00  0.00    +0.250 C 
ATOM      3  C   LIG    1        2.485   1.521   0.936  0.00  0.00    +0.020 C 
ATOM      4  C   LIG    1        1.544   2.315   0.009  0.00  0.00    +0.000 C 
ATOM      5  C   LIG    1        0.139   1.691  -0.093  0.00  0.00    +0.000 C 
ATOM      6  C   LIG    1        0.182   0.191  -0.202  0.00  0.00    +0.010 C 
ATOM      7  C   LIG    1        0.032  -0.407   1.212  0.00  0.00    +0.010 C 
ATOM      8  C   LIG    1        1.280  -0.381   1.961  0.00  0.00    +0.010 C 
ENDBRANCH   1   2
BRANCH   1  10
ATOM      9  O   LIG    1        3.793   2.280   5.179  0.00  0.00    -0.950 OA
ATOM     10  S   LIG    1        2.518   2.090   4.582  0.00  0.00    +2.690 S 
ATOM     11  O   LIG    1        1.720   3.161   4.097  0.00  0.00    -0.940 OA
BRANCH  10  12
ATOM     12  C   LIG    1        1.535   1.236   5.769  0.00  0.00    -0.680 A 
ATOM     13  C   LIG    1        0.157   1.327   5.720  0.00  0.00    +0.150 A 
ATOM     14  C   LIG    1       -0.615   0.653   6.648  0.00  0.00    +0.020 A 
ATOM     15  C   LIG    1       -0.006  -0.104   7.633  0.00  0.00    +0.020 A 
ATOM     16  C   LIG    1        1.373  -0.191   7.685  0.00  0.00    +0.020 A 
ATOM     17 CL   LIG    1       -0.974  -0.945   8.804  0.00  0.00    -0.050 Cl
ATOM     18  C   LIG    1        2.143   0.479   6.753  0.00  0.00    +0.140 A 
ENDBRANCH  10  12
ENDBRANCH   1  10
BRANCH   1  19
ATOM     19  C   LIG    1        3.902   0.160   3.289  0.00  0.00    +0.430 C 
BRANCH  19  20
ATOM     20  C   LIG    1        5.031   0.803   2.526  0.00  0.00    +0.160 A 
ATOM     21  N   LIG    1        5.205   0.776   1.232  0.00  0.00    -0.260 NA
ATOM     22  N   LIG    1        6.271   1.425   0.925  0.00  0.00    -0.280 NA
ATOM     23  C   LIG    1        6.827   1.895   2.010  0.00  0.00    +0.160 A 
ATOM     24  C   LIG    1        8.010   2.699   2.507  0.00  0.00    +0.160 C 
ATOM     25  C   LIG    1        8.069   2.393   4.021  0.00  0.00    +0.070 C 
ATOM     26  C   LIG    1        6.605   2.008   4.324  0.00  0.00    +0.310 C 
ATOM     27  N   LIG    1        6.053   1.521   3.054  0.00  0.00    -0.480 N 
ENDBRANCH  19  20
ENDBRANCH   1  19
TORSDOF 5
