REMARK  Name = ZINCqH00000511Gy.0
REMARK                            x       y       z     vdW  Elec       q    Type
REMARK                         _______ _______ _______ _____ _____    ______ ____
ROOT
ATOM      1  C   LIG    1       -1.143   1.436  -0.664  0.00  0.00    +0.170 A 
ATOM      2  C   LIG    1       -1.065   2.591  -1.434  0.00  0.00    +0.020 A 
ATOM      3  C   LIG    1       -2.181   3.060  -2.100  0.00  0.00    +0.040 A 
ATOM      4  C   LIG    1       -3.381   2.386  -2.006  0.00  0.00    +0.050 A 
ATOM      5  C   LIG    1       -3.471   1.225  -1.235  0.00  0.00    -0.090 A 
ATOM      6  C   LIG    1       -2.343   0.748  -0.566  0.00  0.00    +0.040 A 
ENDROOT
BRANCH   1   7
ATOM      7  N   LIG    1       -0.011   0.966   0.007  0.00  0.00    -0.680 N 
ATOM      8  H   LIG    1       -0.109   0.479   0.841  0.00  0.00    +0.420 HD
BRANCH   7  12
ATOM      9  C   LIG    1        3.780   1.635  -1.580  0.00  0.00    -0.070 A 
ATOM     10  C   LIG    1        3.605   1.550  -0.195  0.00  0.00    +0.110 A 
ATOM     11  C   LIG    1        2.350   1.329   0.326  0.00  0.00    -0.030 A 
ATOM     12  C   LIG    1        1.256   1.190  -0.523  0.00  0.00    +0.210 A 
ATOM     13  C   LIG    1        1.428   1.270  -1.902  0.00  0.00    -0.030 A 
ATOM     14  C   LIG    1        2.679   1.496  -2.430  0.00  0.00    +0.110 A 
BRANCH   9  16
ATOM     15  N   LIG    1        6.118   2.047  -2.559  0.00  0.00    -0.420 NA
ATOM     16  C   LIG    1        5.083   1.865  -2.126  0.00  0.00    +0.250 C 
ENDBRANCH   9  16
ENDBRANCH   7  12
ENDBRANCH   1   7
BRANCH   5  17
ATOM     17  C   LIG    1       -4.755   0.501  -1.131  0.00  0.00    +0.510 C 
ATOM     18  O   LIG    1       -4.830  -0.509  -0.460  0.00  0.00    -0.500 OA
BRANCH  17  19
ATOM     19  O   LIG    1       -5.841   0.961  -1.781  0.00  0.00    -0.350 OA
BRANCH  19  20
ATOM     20  C   LIG    1       -7.069   0.199  -1.634  0.00  0.00    +0.230 C 
BRANCH  20  21
ATOM     21  C   LIG    1       -8.185   0.870  -2.438  0.00  0.00    +0.030 C 
BRANCH  21  22
ATOM     22  C   LIG    1       -9.478   0.067  -2.283  0.00  0.00    +0.310 C 
BRANCH  22  23
ATOM     23  N   LIG    1      -10.546   0.709  -3.053  0.00  0.00    -0.460 N 
ATOM     24  C   LIG    1      -10.868   0.460  -4.360  0.00  0.00    +0.110 A 
ATOM     25  C   LIG    1      -11.904   1.264  -4.666  0.00  0.00    +0.140 A 
ATOM     26  N   LIG    1      -12.207   1.984  -3.576  0.00  0.00    -0.490 NA
ATOM     27  C   LIG    1      -11.401   1.653  -2.604  0.00  0.00    +0.380 A 
ENDBRANCH  22  23
ENDBRANCH  21  22
ENDBRANCH  20  21
ENDBRANCH  19  20
ENDBRANCH  17  19
ENDBRANCH   5  17
TORSDOF 9
