REMARK  Name = ZINCpk000000oRW4.0
REMARK                            x       y       z     vdW  Elec       q    Type
REMARK                         _______ _______ _______ _____ _____    ______ ____
ROOT
ATOM      1  N   LIG    1       -0.033   0.950  -0.318  0.00  0.00    -0.720 N 
ATOM      2  H   LIG    1       -0.045   0.004  -0.532  0.00  0.00    +0.410 HD
ATOM      3  C   LIG    1       -1.179   1.586  -0.005  0.00  0.00    +0.510 C 
ATOM      4  O   LIG    1       -1.163   2.769   0.262  0.00  0.00    -0.520 OA
ENDROOT
BRANCH   3   5
ATOM      5  C   LIG    1       -2.481   0.827   0.011  0.00  0.00    +0.030 C 
ATOM      6  C   LIG    1       -3.579   1.708  -0.604  0.00  0.00    -0.270 C 
ATOM      7  S   LIG    1       -4.808   1.956   0.732  0.00  0.00    +2.400 S 
ATOM      8  C   LIG    1       -3.655   1.542   2.103  0.00  0.00    -0.270 C 
ATOM      9  O   LIG    1       -5.820   0.963   0.640  0.00  0.00    -0.920 OA
ATOM     10  O   LIG    1       -5.163   3.330   0.805  0.00  0.00    -0.910 OA
ATOM     11  C   LIG    1       -2.802   0.423   1.451  0.00  0.00    +0.020 C 
BRANCH  11  12
ATOM     12  C   LIG    1       -1.501   0.244   2.237  0.00  0.00    +0.460 C 
ATOM     13  F   LIG    1       -0.667  -0.653   1.561  0.00  0.00    -0.170 F 
ATOM     14  F   LIG    1       -1.791  -0.258   3.510  0.00  0.00    -0.170 F 
ATOM     15  F   LIG    1       -0.856   1.479   2.358  0.00  0.00    -0.160 F 
ENDBRANCH  11  12
ENDBRANCH   3   5
BRANCH   1  16
ATOM     16  C   LIG    1        1.232   1.689  -0.340  0.00  0.00    +0.300 C 
BRANCH  16  17
ATOM     17  C   LIG    1        2.369   0.742  -0.728  0.00  0.00    -0.070 C 
ATOM     18  C   LIG    1        2.518  -0.368   0.334  0.00  0.00    +0.060 C 
ATOM     19  C   LIG    1        4.046  -0.599   0.430  0.00  0.00    +0.020 C 
ATOM     20  C   LIG    1        4.619   0.833   0.291  0.00  0.00    +0.020 C 
ATOM     21  C   LIG    1        3.705   1.506  -0.755  0.00  0.00    +0.060 C 
BRANCH  17  22
ATOM     22  C   LIG    1        2.095   0.133  -2.079  0.00  0.00    +0.470 C 
ATOM     23  O   LIG    1        2.877   0.298  -2.985  0.00  0.00    -0.490 OA
BRANCH  22  24
ATOM     24  O   LIG    1        0.983  -0.592  -2.275  0.00  0.00    -0.360 OA
BRANCH  24  26
ATOM     25  C   LIG    1       -0.526  -1.938  -3.632  0.00  0.00    +0.070 C 
ATOM     26  C   LIG    1        0.784  -1.149  -3.601  0.00  0.00    +0.200 C 
ENDBRANCH  24  26
ENDBRANCH  22  24
ENDBRANCH  17  22
ENDBRANCH  16  17
ENDBRANCH   1  16
TORSDOF 7
