REMARK  Name = ZINCqH0000001wD8.1
REMARK                            x       y       z     vdW  Elec       q    Type
REMARK                         _______ _______ _______ _____ _____    ______ ____
ROOT
ATOM      1  N   LIG    1        0.510   1.304   1.622  0.00  0.00    -1.040 N 
ATOM      2  H   LIG    1        0.339   0.386   1.886  0.00  0.00    +0.440 HD
ENDROOT
BRANCH   1   3
ATOM      3  C   LIG    1       -0.428   2.292   1.898  0.00  0.00    +0.390 A 
ATOM      4  C   LIG    1       -1.526   1.995   2.700  0.00  0.00    -0.060 A 
ATOM      5  C   LIG    1       -2.453   2.986   2.975  0.00  0.00    +0.110 A 
ATOM      6  C   LIG    1       -2.259   4.245   2.429  0.00  0.00    -0.050 A 
ATOM      7  C   LIG    1       -1.143   4.475   1.631  0.00  0.00    +0.220 A 
ATOM      8  N   LIG    1       -0.270   3.504   1.391  0.00  0.00    -0.520 NA
BRANCH   7   9
ATOM      9  C   LIG    1       -0.926   5.819   1.041  0.00  0.00    -0.110 A 
ATOM     10  C   LIG    1        0.012   6.004   0.022  0.00  0.00    +0.110 A 
ATOM     11  C   LIG    1        0.177   7.278  -0.496  0.00  0.00    -0.040 A 
ATOM     12  C   LIG    1       -0.585   8.316   0.008  0.00  0.00    +0.270 A 
ATOM     13  N   LIG    1       -1.462   8.111   0.972  0.00  0.00    -0.480 NA
ATOM     14  C   LIG    1       -1.658   6.916   1.491  0.00  0.00    +0.280 A 
ENDBRANCH   7   9
ENDBRANCH   1   3
BRANCH   1  15
ATOM     15  S   LIG    1        1.915   1.692   0.837  0.00  0.00    +2.690 S 
ATOM     16  O   LIG    1        1.541   2.459  -0.299  0.00  0.00    -0.930 OA
ATOM     17  O   LIG    1        2.671   0.492   0.750  0.00  0.00    -0.950 OA
BRANCH  15  21
ATOM     18  C   LIG    1        4.242   4.474   3.548  0.00  0.00    +0.190 A 
ATOM     19  C   LIG    1        4.386   3.100   3.674  0.00  0.00    -0.040 A 
ATOM     20  C   LIG    1        3.675   2.253   2.846  0.00  0.00    +0.170 A 
ATOM     21  C   LIG    1        2.820   2.775   1.892  0.00  0.00    -0.710 A 
ATOM     22  C   LIG    1        2.679   4.144   1.760  0.00  0.00    +0.190 A 
ATOM     23  C   LIG    1        3.384   4.995   2.590  0.00  0.00    -0.100 A 
BRANCH  18  24
ATOM     24  O   LIG    1        4.941   5.309   4.361  0.00  0.00    -0.300 OA
BRANCH  24  26
ATOM     25  C   LIG    1        3.606   7.263   4.850  0.00  0.00    +0.030 C 
ATOM     26  C   LIG    1        4.824   6.711   4.107  0.00  0.00    +0.150 C 
ATOM     27  C   LIG    1        6.086   7.425   4.595  0.00  0.00    +0.070 C 
ENDBRANCH  24  26
ENDBRANCH  18  24
ENDBRANCH  15  21
ENDBRANCH   1  15
TORSDOF 6
