REMARK  Name = ZINCqH0000051DVZ.0
REMARK                            x       y       z     vdW  Elec       q    Type
REMARK                         _______ _______ _______ _____ _____    ______ ____
ROOT
ATOM      1  C   LIG    1        4.275   5.956   0.026  0.00  0.00    +0.090 A 
ATOM      2  N   LIG    1        4.281   6.655   1.157  0.00  0.00    -0.410 NA
ATOM      3  C   LIG    1        4.013   7.946   1.136  0.00  0.00    +0.260 A 
ATOM      4  C   LIG    1        3.729   8.585  -0.065  0.00  0.00    +0.270 A 
ATOM      5  N   LIG    1        3.724   7.906  -1.195  0.00  0.00    -0.420 NA
ATOM      6  C   LIG    1        3.993   6.603  -1.190  0.00  0.00    +0.170 A 
ENDROOT
BRANCH   1   8
ATOM      7  O   LIG    1        3.668   3.701  -0.077  0.00  0.00    -0.510 OA
ATOM      8  C   LIG    1        4.570   4.506   0.047  0.00  0.00    +0.620 C 
ATOM      9  N   LIG    1        5.838   4.078   0.203  0.00  0.00    -0.600 N 
ATOM     10  C   LIG    1        7.033   4.945   0.358  0.00  0.00    +0.260 C 
ATOM     11  C   LIG    1        8.190   4.063  -0.120  0.00  0.00    -0.010 C 
ATOM     12  C   LIG    1        9.560   4.391   0.450  0.00  0.00    +0.080 C 
ATOM     13  C   LIG    1       10.463   3.213   0.169  0.00  0.00    -0.050 C 
ATOM     14  C   LIG    1       10.042   2.023  -0.135  0.00  0.00    -0.040 C 
ATOM     15  C   LIG    1        8.595   1.622  -0.201  0.00  0.00    +0.080 C 
ATOM     16  C   LIG    1        7.780   2.693   0.503  0.00  0.00    -0.010 C 
ATOM     17  C   LIG    1        6.276   2.665   0.242  0.00  0.00    +0.260 C 
ENDBRANCH   1   8
BRANCH   6  18
ATOM     18  C   LIG    1        3.988   5.838  -2.454  0.00  0.00    +0.130 A 
ATOM     19  N   LIG    1        4.329   4.598  -2.568  0.00  0.00    -0.420 NA
ATOM     20  C   LIG    1        4.273   4.038  -3.780  0.00  0.00    +0.080 A 
ATOM     21  C   LIG    1        4.591   2.714  -4.159  0.00  0.00    +0.090 A 
ATOM     22  C   LIG    1        4.472   2.318  -5.455  0.00  0.00    +0.030 A 
ATOM     23  C   LIG    1        4.043   3.205  -6.433  0.00  0.00    +0.050 A 
ATOM     24  C   LIG    1        3.721   4.500  -6.095  0.00  0.00    +0.050 A 
ATOM     25  C   LIG    1        3.836   4.925  -4.773  0.00  0.00    -0.170 A 
ATOM     26  S   LIG    1        3.517   6.486  -4.020  0.00  0.00    +0.130 S 
ENDBRANCH   6  18
TORSDOF 2
