REMARK  Name = ZINCqH0000050U1q.0
REMARK                            x       y       z     vdW  Elec       q    Type
REMARK                         _______ _______ _______ _____ _____    ______ ____
ROOT
ATOM      1  C   LIG    1       -5.251   1.011   1.906  0.00  0.00    +0.030 C 
ATOM      2  C   LIG    1       -4.916  -0.115   2.888  0.00  0.00    +0.040 C 
ATOM      3  C   LIG    1       -3.415  -0.094   3.188  0.00  0.00    +0.190 C 
ATOM      4  N   LIG    1       -2.663  -0.270   1.939  0.00  0.00    -0.530 NA
ATOM      5  C   LIG    1       -2.932   0.824   0.998  0.00  0.00    +0.160 C 
ATOM      6  C   LIG    1       -4.419   0.831   0.633  0.00  0.00    +0.040 C 
ENDROOT
BRANCH   1  14
ATOM      7 CL   LIG    1       -6.222  -1.526   0.605  0.00  0.00    -0.030 Cl
ATOM      8  C   LIG    1       -7.246  -0.170   0.960  0.00  0.00    -0.030 A 
ATOM      9  C   LIG    1       -8.593  -0.220   0.648  0.00  0.00    +0.040 A 
ATOM     10  C   LIG    1       -9.408   0.863   0.926  0.00  0.00    +0.040 A 
ATOM     11  C   LIG    1       -8.878   1.992   1.520  0.00  0.00    +0.040 A 
ATOM     12  C   LIG    1       -7.532   2.041   1.838  0.00  0.00    -0.030 A 
ATOM     13 CL   LIG    1       -6.867   3.460   2.585  0.00  0.00    -0.050 Cl
ATOM     14  C   LIG    1       -6.717   0.959   1.560  0.00  0.00    -0.060 A 
ENDBRANCH   1  14
BRANCH   4  15
ATOM     15  C   LIG    1       -1.224  -0.394   2.204  0.00  0.00    +0.320 C 
BRANCH  15  16
ATOM     16  C   LIG    1       -0.515  -0.816   0.943  0.00  0.00    +0.190 A 
ATOM     17  N   LIG    1       -0.284  -2.044   0.548  0.00  0.00    -0.280 NA
ATOM     18  N   LIG    1        0.348  -1.990  -0.573  0.00  0.00    -0.070 NA
ATOM     19  N   LIG    1        0.523  -0.758  -0.906  0.00  0.00    -0.090 NA
ATOM     20  N   LIG    1        0.002  -0.004   0.002  0.00  0.00    -0.300 N 
BRANCH  20  21
ATOM     21  C   LIG    1       -0.018   1.461   0.010  0.00  0.00    +0.250 C 
ATOM     22  C   LIG    1       -0.749   1.970  -1.236  0.00  0.00    +0.020 C 
ATOM     23  C   LIG    1       -0.696   3.500  -1.259  0.00  0.00    +0.240 C 
ATOM     24  O   LIG    1        0.667   3.929  -1.237  0.00  0.00    -0.370 OA
ATOM     25  C   LIG    1        1.388   3.522  -0.072  0.00  0.00    +0.240 C 
ATOM     26  C   LIG    1        1.419   1.993  -0.001  0.00  0.00    +0.020 C 
ENDBRANCH  20  21
ENDBRANCH  15  16
ENDBRANCH   4  15
TORSDOF 4
