REMARK  Name = ZINCvU0000000Dzb.0
REMARK                            x       y       z     vdW  Elec       q    Type
REMARK                         _______ _______ _______ _____ _____    ______ ____
ROOT
ATOM      1  C   LIG    1       -3.199   3.726   1.394  0.00  0.00    -0.220 C 
ATOM      2  C   LIG    1       -4.390   3.122   1.177  0.00  0.00    +0.100 C 
ATOM      3  C   LIG    1       -4.532   2.833  -0.266  0.00  0.00    +0.520 C 
ATOM      4  N   LIG    1       -3.440   3.256  -0.929  0.00  0.00    -0.590 N 
ATOM      5  O   LIG    1       -5.493   2.294  -0.778  0.00  0.00    -0.510 OA
ATOM      6  C   LIG    1       -2.520   3.847   0.050  0.00  0.00    +0.340 C 
ENDROOT
BRANCH   6   7
ATOM      7  C   LIG    1       -1.217   3.090   0.058  0.00  0.00    -0.110 A 
ATOM      8  C   LIG    1       -1.220   1.709   0.122  0.00  0.00    +0.040 A 
ATOM      9  C   LIG    1       -0.024   1.016   0.135  0.00  0.00    +0.000 A 
ATOM     10  C   LIG    1        1.174   1.702   0.074  0.00  0.00    -0.060 A 
ATOM     11  C   LIG    1        1.177   3.083   0.006  0.00  0.00    +0.020 A 
ATOM     12  C   LIG    1       -0.018   3.777  -0.002  0.00  0.00    +0.030 A 
BRANCH  10  13
ATOM     13  C   LIG    1        2.477   0.945   0.082  0.00  0.00    +0.020 C 
ATOM     14  C   LIG    1        3.308   1.373   1.294  0.00  0.00    +0.030 C 
ATOM     15  C   LIG    1        3.252   1.250  -1.201  0.00  0.00    +0.040 C 
ENDBRANCH  10  13
ENDBRANCH   6   7
BRANCH   1  16
ATOM     16  C   LIG    1       -2.670   4.177   2.685  0.00  0.00    +0.480 C 
ATOM     17  O   LIG    1       -2.394   3.364   3.547  0.00  0.00    -0.430 OA
BRANCH  16  21
ATOM     18  C   LIG    1       -2.101   8.322   3.417  0.00  0.00    +0.170 A 
ATOM     19  C   LIG    1       -1.678   7.388   4.356  0.00  0.00    -0.020 A 
ATOM     20  C   LIG    1       -1.861   6.043   4.122  0.00  0.00    +0.120 A 
ATOM     21  C   LIG    1       -2.472   5.618   2.939  0.00  0.00    -0.200 A 
ATOM     22  C   LIG    1       -2.891   6.560   1.995  0.00  0.00    +0.100 A 
ATOM     23  C   LIG    1       -2.710   7.903   2.239  0.00  0.00    -0.080 A 
BRANCH  18  24
ATOM     24  O   LIG    1       -1.919   9.646   3.650  0.00  0.00    -0.310 OA
BRANCH  24  25
ATOM     25  C   LIG    1       -2.377  10.551   2.644  0.00  0.00    +0.230 C 
BRANCH  25  27
ATOM     26  C   LIG    1       -1.578  12.820   2.223  0.00  0.00    +0.050 C 
ATOM     27  C   LIG    1       -2.092  11.967   3.075  0.00  0.00    -0.040 C 
ENDBRANCH  25  27
ENDBRANCH  24  25
ENDBRANCH  18  24
ENDBRANCH  16  21
ENDBRANCH   1  16
BRANCH   2  28
ATOM     28  O   LIG    1       -5.306   2.829   2.128  0.00  0.00    -0.430 OA
ATOM     29  H   LIG    1       -6.101   2.396   1.789  0.00  0.00    +0.410 HD
ENDBRANCH   2  28
BRANCH   4  30
ATOM     30  C   LIG    1       -3.211   3.145  -2.371  0.00  0.00    +0.360 C 
BRANCH  30  31
ATOM     31  C   LIG    1       -2.523   1.838  -2.672  0.00  0.00    -0.070 C 
ATOM     32  C   LIG    1       -3.048   1.006  -3.536  0.00  0.00    +0.040 C 
ENDBRANCH  30  31
ENDBRANCH   4  30
TORSDOF 10
