REMARK  Name = ZINCrD000000Atag.1
REMARK                            x       y       z     vdW  Elec       q    Type
REMARK                         _______ _______ _______ _____ _____    ______ ____
ROOT
ATOM      1  C   LIG    1       -1.728  -5.020  -0.009  0.00  0.00    +0.110 C 
ENDROOT
BRANCH   1   3
ATOM      2  O   LIG    1       -3.178  -6.882  -0.004  0.00  0.00    -0.520 OA
ATOM      3  C   LIG    1       -2.028  -6.497  -0.013  0.00  0.00    +0.540 C 
ATOM      4  N   LIG    1       -1.018  -7.390  -0.028  0.00  0.00    -0.720 N 
ATOM      5  H   LIG    1       -0.099  -7.082  -0.036  0.00  0.00    +0.400 HD
BRANCH   4   6
ATOM      6  C   LIG    1       -1.311  -8.826  -0.033  0.00  0.00    +0.180 C 
ATOM      7  C   LIG    1       -2.132  -9.175  -1.276  0.00  0.00    +0.030 C 
ATOM      8  C   LIG    1       -2.437 -10.674  -1.280  0.00  0.00    -0.010 C 
ATOM      9  C   LIG    1       -3.232 -11.037  -0.025  0.00  0.00    +0.020 C 
ATOM     10  C   LIG    1       -2.411 -10.687   1.218  0.00  0.00    -0.010 C 
ATOM     11  C   LIG    1       -1.099 -11.475   1.200  0.00  0.00    +0.020 C 
ATOM     12  C   LIG    1       -0.304 -11.112  -0.055  0.00  0.00    +0.000 C 
ATOM     13  C   LIG    1       -1.125 -11.462  -1.298  0.00  0.00    +0.020 C 
ATOM     14  C   LIG    1       -2.106  -9.188   1.223  0.00  0.00    +0.030 C 
ATOM     15  C   LIG    1        0.001  -9.613  -0.050  0.00  0.00    +0.020 C 
ENDBRANCH   4   6
ENDBRANCH   1   3
BRANCH   1  16
ATOM     16  S   LIG    1       -3.279  -4.089   0.012  0.00  0.00    +0.090 S 
BRANCH  16  17
ATOM     17  C   LIG    1       -2.649  -2.444   0.014  0.00  0.00    +0.250 A 
ATOM     18  N   LIG    1       -1.379  -2.103   0.003  0.00  0.00    -0.530 NA
ATOM     19  C   LIG    1       -1.270  -0.766   0.010  0.00  0.00    +0.280 A 
ATOM     20  N   LIG    1       -2.475  -0.242   0.029  0.00  0.00    -0.270 NA
ATOM     21  N   LIG    1       -3.386  -1.311   0.027  0.00  0.00    -0.460 N 
ATOM     22  H   LIG    1       -4.354  -1.248   0.037  0.00  0.00    +0.450 HD
BRANCH  19  23
ATOM     23  C   LIG    1        0.002  -0.004   0.002  0.00  0.00    -0.050 A 
ATOM     24  C   LIG    1        1.221  -0.677  -0.013  0.00  0.00    +0.080 A 
ATOM     25  C   LIG    1        2.402   0.036  -0.021  0.00  0.00    +0.000 A 
ATOM     26  C   LIG    1        2.381   1.420  -0.013  0.00  0.00    +0.040 A 
ATOM     27  C   LIG    1        1.176   2.098   0.002  0.00  0.00    -0.010 A 
ATOM     28  C   LIG    1       -0.017   1.394   0.010  0.00  0.00    +0.140 A 
BRANCH  28  29
ATOM     29  O   LIG    1       -1.201   2.060   0.019  0.00  0.00    -0.480 OA
ATOM     30  H   LIG    1       -1.540   2.248   0.905  0.00  0.00    +0.390 HD
ENDBRANCH  28  29
ENDBRANCH  19  23
ENDBRANCH  16  17
ENDBRANCH   1  16
TORSDOF 6
