REMARK  Name = ZINCrD000000Atag.0
REMARK                            x       y       z     vdW  Elec       q    Type
REMARK                         _______ _______ _______ _____ _____    ______ ____
ROOT
ATOM      1  C   LIG    1        8.243  -2.505  -0.088  0.00  0.00    +0.080 C 
ENDROOT
BRANCH   1   3
ATOM      2  O   LIG    1       10.310  -1.365  -0.100  0.00  0.00    -0.510 OA
ATOM      3  C   LIG    1        9.749  -2.441  -0.101  0.00  0.00    +0.540 C 
ATOM      4  N   LIG    1       10.472  -3.578  -0.114  0.00  0.00    -0.720 N 
ATOM      5  H   LIG    1       10.024  -4.438  -0.115  0.00  0.00    +0.400 HD
BRANCH   4   6
ATOM      6  C   LIG    1       11.936  -3.515  -0.127  0.00  0.00    +0.180 C 
ATOM      7  C   LIG    1       12.426  -2.779   1.122  0.00  0.00    +0.030 C 
ATOM      8  C   LIG    1       13.954  -2.713   1.108  0.00  0.00    -0.010 C 
ATOM      9  C   LIG    1       14.421  -1.964  -0.141  0.00  0.00    +0.020 C 
ATOM     10  C   LIG    1       13.932  -2.699  -1.390  0.00  0.00    -0.010 C 
ATOM     11  C   LIG    1       14.503  -4.119  -1.403  0.00  0.00    +0.020 C 
ATOM     12  C   LIG    1       14.036  -4.868  -0.153  0.00  0.00    +0.000 C 
ATOM     13  C   LIG    1       14.526  -4.132   1.095  0.00  0.00    +0.020 C 
ATOM     14  C   LIG    1       12.403  -2.765  -1.376  0.00  0.00    +0.030 C 
ATOM     15  C   LIG    1       12.508  -4.934  -0.140  0.00  0.00    +0.030 C 
ENDBRANCH   4   6
ENDBRANCH   1   3
BRANCH   1  16
ATOM     16  S   LIG    1        7.566  -0.823  -0.072  0.00  0.00    +0.110 S 
BRANCH  16  17
ATOM     17  C   LIG    1        5.825  -1.097  -0.058  0.00  0.00    +0.190 A 
ATOM     18  N   LIG    1        5.238  -2.271  -0.059  0.00  0.00    -0.320 NA
ATOM     19  N   LIG    1        3.854  -2.038  -0.039  0.00  0.00    -0.470 N 
ATOM     20  H   LIG    1        3.152  -2.707  -0.031  0.00  0.00    +0.440 HD
ATOM     21  C   LIG    1        3.693  -0.695  -0.036  0.00  0.00    +0.340 A 
ATOM     22  N   LIG    1        4.891  -0.143  -0.044  0.00  0.00    -0.480 NA
BRANCH  21  23
ATOM     23  C   LIG    1        2.404   0.027  -0.021  0.00  0.00    -0.070 A 
ATOM     24  C   LIG    1        1.203  -0.683  -0.013  0.00  0.00    +0.050 A 
ATOM     25  C   LIG    1        0.002  -0.004   0.002  0.00  0.00    +0.010 A 
ATOM     26  C   LIG    1       -0.017   1.380   0.010  0.00  0.00    +0.060 A 
ATOM     27  C   LIG    1        1.166   2.094   0.002  0.00  0.00    -0.010 A 
ATOM     28  C   LIG    1        2.381   1.427  -0.013  0.00  0.00    +0.170 A 
BRANCH  28  29
ATOM     29  O   LIG    1        3.543   2.128  -0.020  0.00  0.00    -0.470 OA
ATOM     30  H   LIG    1        3.872   2.336  -0.905  0.00  0.00    +0.400 HD
ENDBRANCH  28  29
ENDBRANCH  21  23
ENDBRANCH  16  17
ENDBRANCH   1  16
TORSDOF 6
