REMARK  Name = ZINCvU0000000J5m.1
REMARK                            x       y       z     vdW  Elec       q    Type
REMARK                         _______ _______ _______ _____ _____    ______ ____
ROOT
ATOM      1  C   LIG    1       -2.225   5.845  -1.441  0.00  0.00    +0.250 A 
ATOM      2  N   LIG    1       -2.617   4.627  -1.736  0.00  0.00    -0.260 NA
ATOM      3  N   LIG    1       -3.680   4.686  -2.458  0.00  0.00    -0.270 NA
ATOM      4  C   LIG    1       -4.001   5.933  -2.660  0.00  0.00    +0.180 A 
ATOM      5  O   LIG    1       -3.093   6.696  -2.025  0.00  0.00    -0.210 OA
ENDROOT
BRANCH   1   8
ATOM      6  C   LIG    1       -1.215   8.780  -0.702  0.00  0.00    +0.220 C 
ATOM      7  C   LIG    1       -0.599   7.465  -0.298  0.00  0.00    +0.040 A 
ATOM      8  C   LIG    1       -1.049   6.215  -0.627  0.00  0.00    -0.150 A 
ATOM      9  C   LIG    1       -0.070   5.327   0.031  0.00  0.00    +0.120 A 
ATOM     10  N   LIG    1        0.773   6.131   0.630  0.00  0.00    -0.340 NA
ATOM     11  O   LIG    1        0.496   7.292   0.451  0.00  0.00    +0.110 OA
BRANCH   9  12
ATOM     12  C   LIG    1       -0.050   3.844   0.023  0.00  0.00    -0.040 A 
ATOM     13  C   LIG    1        1.165   3.161   0.008  0.00  0.00    +0.050 A 
ATOM     14  C   LIG    1        1.177   1.781   0.000  0.00  0.00    +0.000 A 
ATOM     15  C   LIG    1       -0.013   1.076   0.008  0.00  0.00    +0.030 A 
ATOM     16  C   LIG    1       -1.221   1.748   0.017  0.00  0.00    +0.010 A 
ATOM     17  C   LIG    1       -1.246   3.128   0.030  0.00  0.00    +0.070 A 
ENDBRANCH   9  12
ENDBRANCH   1   8
BRANCH   4  18
ATOM     18  C   LIG    1       -5.177   6.430  -3.460  0.00  0.00    +0.350 C 
BRANCH  18  19
ATOM     19  N   LIG    1       -6.344   6.574  -2.579  0.00  0.00    -0.540 NA
ATOM     20  C   LIG    1       -6.785   5.268  -2.073  0.00  0.00    +0.170 C 
ATOM     21  C   LIG    1       -7.905   5.469  -1.048  0.00  0.00    +0.030 C 
ATOM     22  C   LIG    1       -9.073   6.201  -1.713  0.00  0.00    -0.010 C 
ATOM     23  C   LIG    1       -8.576   7.536  -2.274  0.00  0.00    +0.030 C 
ATOM     24  C   LIG    1       -7.437   7.276  -3.263  0.00  0.00    +0.180 C 
BRANCH  22  25
ATOM     25  C   LIG    1      -10.171   6.459  -0.679  0.00  0.00    +0.060 C 
BRANCH  25  26
ATOM     26  C   LIG    1      -10.745   5.144  -0.217  0.00  0.00    -0.080 A 
ATOM     27  C   LIG    1      -11.826   4.592  -0.878  0.00  0.00    +0.000 A 
ATOM     28  C   LIG    1      -12.350   3.384  -0.458  0.00  0.00    +0.000 A 
ATOM     29  C   LIG    1      -11.798   2.732   0.629  0.00  0.00    -0.010 A 
ATOM     30  C   LIG    1      -10.720   3.287   1.293  0.00  0.00    +0.000 A 
ATOM     31  C   LIG    1      -10.193   4.492   0.870  0.00  0.00    +0.000 A 
ENDBRANCH  25  26
ENDBRANCH  22  25
ENDBRANCH  18  19
ENDBRANCH   4  18
TORSDOF 6
