REMARK  Name = ZINCnE000001UgOj.1
REMARK                            x       y       z     vdW  Elec       q    Type
REMARK                         _______ _______ _______ _____ _____    ______ ____
ROOT
ATOM      1  S   LIG    1       -1.512  -0.906   0.012  0.00  0.00    +2.600 S 
ATOM      2  O   LIG    1       -2.491  -0.040   0.570  0.00  0.00    -1.010 OA
ATOM      3  O   LIG    1       -1.212  -2.188   0.546  0.00  0.00    -1.010 OA
ENDROOT
BRANCH   1   8
ATOM      4  C   LIG    1        1.171   2.085   0.002  0.00  0.00    -0.070 A 
ATOM      5  C   LIG    1        2.377   1.411  -0.014  0.00  0.00    +0.140 A 
ATOM      6  C   LIG    1        2.396   0.028  -0.022  0.00  0.00    +0.010 A 
ATOM      7  C   LIG    1        1.209  -0.679  -0.014  0.00  0.00    +0.190 A 
ATOM      8  C   LIG    1        0.002  -0.004   0.002  0.00  0.00    -0.620 A 
ATOM      9  C   LIG    1       -0.017   1.378   0.010  0.00  0.00    +0.210 A 
BRANCH   4  11
ATOM     10  O   LIG    1        0.088   4.160   0.023  0.00  0.00    -0.160 OA
ATOM     11  N   LIG    1        1.151   3.566   0.010  0.00  0.00    +0.030 N 
ATOM     12  O   LIG    1        2.197   4.189   0.003  0.00  0.00    -0.170 OA
ENDBRANCH   4  11
ENDBRANCH   1   8
BRANCH   1  13
ATOM     13  N   LIG    1       -1.948  -1.148  -1.567  0.00  0.00    -1.080 NA
BRANCH  13  14
ATOM     14  C   LIG    1       -3.121  -1.843  -1.869  0.00  0.00    +0.300 A 
ATOM     15  C   LIG    1       -3.920  -2.337  -0.846  0.00  0.00    -0.160 A 
ATOM     16  C   LIG    1       -5.082  -3.020  -1.147  0.00  0.00    +0.110 A 
ATOM     17  C   LIG    1       -5.445  -3.222  -2.466  0.00  0.00    -0.290 A 
ATOM     18  C   LIG    1       -4.649  -2.736  -3.487  0.00  0.00    +0.090 A 
ATOM     19  C   LIG    1       -3.489  -2.048  -3.193  0.00  0.00    -0.060 A 
BRANCH  17  20
ATOM     20  C   LIG    1       -6.711  -3.972  -2.792  0.00  0.00    +0.520 C 
ATOM     21  F   LIG    1       -7.234  -3.502  -4.001  0.00  0.00    -0.190 F 
ATOM     22  F   LIG    1       -7.646  -3.773  -1.770  0.00  0.00    -0.190 F 
ATOM     23  F   LIG    1       -6.427  -5.338  -2.905  0.00  0.00    -0.190 F 
ENDBRANCH  17  20
ENDBRANCH  13  14
ENDBRANCH   1  13
TORSDOF 5
