REMARK  Name = ZINCvU0000000HwV.0
REMARK                            x       y       z     vdW  Elec       q    Type
REMARK                         _______ _______ _______ _____ _____    ______ ____
ROOT
ATOM      1  C   LIG    1       -0.006  -2.059   0.672  0.00  0.00    +0.030 A 
ATOM      2  C   LIG    1        0.066  -2.084  -0.684  0.00  0.00    +0.160 A 
ATOM      3  N   LIG    1        0.070  -0.782  -1.101  0.00  0.00    -0.560 N 
ATOM      4  H   LIG    1        0.114  -0.473  -2.019  0.00  0.00    +0.420 HD
ATOM      5  C   LIG    1        0.002  -0.004   0.002  0.00  0.00    +0.220 A 
ATOM      6  N   LIG    1       -0.037  -0.767   1.058  0.00  0.00    -0.440 NA
ENDROOT
BRANCH   1  11
ATOM      7  C   LIG    1       -0.140  -4.174   3.778  0.00  0.00    -0.180 A 
ATOM      8  C   LIG    1       -0.094  -5.447   3.240  0.00  0.00    +0.070 A 
ATOM      9  C   LIG    1       -0.020  -5.623   1.870  0.00  0.00    +0.020 A 
ATOM     10  C   LIG    1        0.003  -4.527   1.032  0.00  0.00    +0.050 A 
ATOM     11  C   LIG    1       -0.037  -3.241   1.568  0.00  0.00    +0.000 A 
ATOM     12  C   LIG    1       -0.112  -3.070   2.949  0.00  0.00    +0.110 A 
BRANCH   7  14
ATOM     13  F   LIG    1       -1.562  -3.951   5.665  0.00  0.00    -0.180 F 
ATOM     14  C   LIG    1       -0.220  -3.990   5.272  0.00  0.00    +0.510 C 
ATOM     15  F   LIG    1        0.405  -2.791   5.629  0.00  0.00    -0.170 F 
ATOM     16  F   LIG    1        0.421  -5.058   5.908  0.00  0.00    -0.180 F 
ENDBRANCH   7  14
ENDBRANCH   1  11
BRANCH   5  17
ATOM     17  C   LIG    1       -0.018   1.503   0.010  0.00  0.00    +0.230 C 
ATOM     18  C   LIG    1        1.421   2.061  -0.000  0.00  0.00    +0.050 C 
ATOM     19  C   LIG    1        1.375   3.305   0.911  0.00  0.00    +0.040 C 
ATOM     20  C   LIG    1       -0.088   3.393   1.395  0.00  0.00    +0.180 C 
ATOM     21  N   LIG    1       -0.606   2.006   1.279  0.00  0.00    -0.480 NA
BRANCH  21  22
ATOM     22  C   LIG    1       -2.073   1.995   1.220  0.00  0.00    +0.340 C 
BRANCH  22  23
ATOM     23  C   LIG    1       -2.633   2.273   2.592  0.00  0.00    +0.200 A 
ATOM     24  N   LIG    1       -2.921   3.450   3.090  0.00  0.00    -0.470 NA
ATOM     25  C   LIG    1       -3.390   3.212   4.336  0.00  0.00    +0.230 A 
ATOM     26  N   LIG    1       -3.360   1.916   4.518  0.00  0.00    -0.370 NA
ATOM     27  O   LIG    1       -2.934   1.365   3.525  0.00  0.00    +0.100 OA
BRANCH  25  28
ATOM     28  C   LIG    1       -3.853   4.227   5.311  0.00  0.00    -0.040 A 
ATOM     29  C   LIG    1       -3.853   5.546   5.047  0.00  0.00    -0.030 A 
ATOM     30  S   LIG    1       -4.447   6.424   6.384  0.00  0.00    +0.200 S 
ATOM     31  C   LIG    1       -4.692   4.950   7.309  0.00  0.00    -0.060 A 
ATOM     32  C   LIG    1       -4.330   3.896   6.581  0.00  0.00    +0.040 A 
ENDBRANCH  25  28
ENDBRANCH  22  23
ENDBRANCH  21  22
ENDBRANCH   5  17
TORSDOF 6
