REMARK  Name = ZINCrD000000fK7q.0
REMARK                            x       y       z     vdW  Elec       q    Type
REMARK                         _______ _______ _______ _____ _____    ______ ____
ROOT
ATOM      1  N   LIG    1       -2.884   6.644  -2.300  0.00  0.00    -0.670 N 
ATOM      2  H   LIG    1       -2.876   7.425  -1.725  0.00  0.00    +0.420 HD
ATOM      3  C   LIG    1       -2.809   5.410  -1.762  0.00  0.00    +0.500 C 
ATOM      4  O   LIG    1       -2.926   4.432  -2.469  0.00  0.00    -0.500 OA
ENDROOT
BRANCH   1   8
ATOM      5  C   LIG    1       -3.155   7.103  -6.436  0.00  0.00    +0.140 A 
ATOM      6  C   LIG    1       -3.664   8.082  -5.594  0.00  0.00    +0.060 A 
ATOM      7  C   LIG    1       -3.574   7.930  -4.224  0.00  0.00    +0.020 A 
ATOM      8  C   LIG    1       -2.975   6.797  -3.689  0.00  0.00    +0.150 A 
ATOM      9  C   LIG    1       -2.460   5.820  -4.531  0.00  0.00    +0.060 A 
ATOM     10  C   LIG    1       -2.555   5.969  -5.901  0.00  0.00    -0.040 A 
ATOM     11 CL   LIG    1       -1.917   4.745  -6.954  0.00  0.00    -0.060 Cl
BRANCH   5  14
ATOM     12  C   LIG    1       -3.136   8.639  -9.875  0.00  0.00    +0.110 C 
ATOM     13  C   LIG    1       -3.143   8.483  -8.376  0.00  0.00    +0.510 C 
ATOM     14  N   LIG    1       -3.246   7.257  -7.826  0.00  0.00    -0.670 N 
ATOM     15  H   LIG    1       -3.384   6.482  -8.392  0.00  0.00    +0.410 HD
ATOM     16  O   LIG    1       -3.056   9.462  -7.664  0.00  0.00    -0.530 OA
ENDBRANCH   5  14
ENDBRANCH   1   8
BRANCH   3  17
ATOM     17  C   LIG    1       -2.580   5.246  -0.281  0.00  0.00    +0.340 C 
BRANCH  17  18
ATOM     18  N   LIG    1       -2.538   3.820   0.052  0.00  0.00    -0.530 N 
ATOM     19  C   LIG    1       -3.671   3.161   0.368  0.00  0.00    +0.500 C 
ATOM     20  C   LIG    1       -3.604   1.703   0.745  0.00  0.00    +0.310 C 
ATOM     21  O   LIG    1       -2.535   1.071   0.035  0.00  0.00    -0.300 OA
ATOM     22  C   LIG    1       -1.342   1.725   0.018  0.00  0.00    +0.090 A 
ATOM     23  C   LIG    1       -0.152   1.020  -0.001  0.00  0.00    +0.060 A 
ATOM     24  C   LIG    1        1.052   1.701  -0.022  0.00  0.00    +0.050 A 
ATOM     25  C   LIG    1        1.071   3.084  -0.019  0.00  0.00    -0.030 A 
ATOM     26  C   LIG    1       -0.116   3.796   0.006  0.00  0.00    +0.020 A 
ATOM     27 CL   LIG    1        2.587   3.930  -0.046  0.00  0.00    -0.050 Cl
ATOM     28  O   LIG    1       -4.736   3.740   0.361  0.00  0.00    -0.500 OA
ATOM     29  C   LIG    1       -1.324   3.119   0.028  0.00  0.00    +0.110 A 
ENDBRANCH  17  18
ENDBRANCH   3  17
TORSDOF 4
