REMARK  Name = ZINCbu0000001gNn.0
REMARK                            x       y       z     vdW  Elec       q    Type
REMARK                         _______ _______ _______ _____ _____    ______ ____
ROOT
ATOM      1  C   LIG    1       -2.180   0.893  -1.445  0.00  0.00    +0.110 C 
ATOM      2  C   LIG    1       -1.299  -0.012  -2.327  0.00  0.00    +0.060 C 
ATOM      3  C   LIG    1       -2.105  -0.768  -3.400  0.00  0.00    +0.030 C 
ATOM      4  C   LIG    1       -3.407  -1.305  -2.869  0.00  0.00    -0.000 C 
ATOM      5  C   LIG    1       -4.519  -0.278  -3.168  0.00  0.00    +0.020 C 
ATOM      6  C   LIG    1       -4.529   0.821  -2.213  0.00  0.00    +0.010 C 
ATOM      7  C   LIG    1       -3.220   1.635  -2.239  0.00  0.00    +0.070 C 
ENDROOT
BRANCH   1   8
ATOM      8  N   LIG    1       -2.854   0.062  -0.439  0.00  0.00    -0.650 N 
ATOM      9  H   LIG    1       -2.187  -0.572  -0.024  0.00  0.00    +0.420 HD
ATOM     10  H   LIG    1       -3.591  -0.468  -0.879  0.00  0.00    +0.440 HD
ATOM     11  H   LIG    1       -3.247   0.653   0.278  0.00  0.00    +0.430 HD
ENDBRANCH   1   8
BRANCH   1  12
ATOM     12  C   LIG    1       -1.286   1.908  -0.729  0.00  0.00    -0.030 C 
ATOM     13  C   LIG    1       -0.153   1.362   0.142  0.00  0.00    +0.050 C 
ATOM     14  C   LIG    1       -1.387   1.987   0.796  0.00  0.00    +0.020 C 
ENDBRANCH   1  12
TORSDOF 2
