REMARK  Name = ZINCqH000003954X.0
REMARK                            x       y       z     vdW  Elec       q    Type
REMARK                         _______ _______ _______ _____ _____    ______ ____
ROOT
ATOM      1  C   LIG    1        1.034  -4.404  -1.225  0.00  0.00    -0.010 C 
ATOM      2  C   LIG    1        1.988  -4.976  -2.276  0.00  0.00    +0.060 C 
ATOM      3  C   LIG    1        1.894  -6.503  -2.277  0.00  0.00    +0.020 C 
ATOM      4  C   LIG    1        2.312  -7.038  -0.903  0.00  0.00    +0.270 C 
ATOM      5  N   LIG    1        1.495  -6.383   0.127  0.00  0.00    -0.610 N 
ATOM      6  C   LIG    1        0.806  -7.115   1.025  0.00  0.00    +0.570 C 
ATOM      7  O   LIG    1        0.053  -6.568   1.807  0.00  0.00    -0.530 OA
ATOM      8  C   LIG    1        1.443  -4.915   0.161  0.00  0.00    +0.300 C 
ENDROOT
BRANCH   6   9
ATOM      9  C   LIG    1        0.967  -8.584   1.060  0.00  0.00    -0.130 A 
ATOM     10  C   LIG    1        2.225  -9.156   0.863  0.00  0.00    +0.060 A 
ATOM     11  C   LIG    1        2.370 -10.527   0.903  0.00  0.00    +0.020 A 
ATOM     12  C   LIG    1        1.269 -11.336   1.126  0.00  0.00    -0.010 A 
ATOM     13  C   LIG    1        0.017 -10.775   1.316  0.00  0.00    +0.030 A 
ATOM     14 CL   LIG    1        1.458 -13.061   1.167  0.00  0.00    -0.060 Cl
ATOM     15  C   LIG    1       -0.140  -9.405   1.285  0.00  0.00    +0.090 A 
ENDBRANCH   6   9
BRANCH   1  18
ATOM     16  N   LIG    1        0.346  -2.177  -0.399  0.00  0.00    -0.670 N 
ATOM     17  H   LIG    1       -0.186  -2.625   0.277  0.00  0.00    +0.420 HD
ATOM     18  C   LIG    1        1.105  -2.899  -1.247  0.00  0.00    +0.520 C 
ATOM     19  O   LIG    1        1.843  -2.338  -2.028  0.00  0.00    -0.500 OA
BRANCH  16  23
ATOM     20  C   LIG    1        0.288   1.980  -0.680  0.00  0.00    -0.050 A 
ATOM     21  C   LIG    1        0.435   1.202  -1.832  0.00  0.00    +0.090 A 
ATOM     22  C   LIG    1        0.454  -0.172  -1.735  0.00  0.00    +0.020 A 
ATOM     23  C   LIG    1        0.327  -0.785  -0.493  0.00  0.00    +0.180 A 
ATOM     24  C   LIG    1        0.180  -0.013   0.655  0.00  0.00    -0.010 A 
ATOM     25  C   LIG    1        0.160   1.361   0.566  0.00  0.00    +0.090 A 
BRANCH  20  27
ATOM     26  N   LIG    1        0.253   4.542  -0.854  0.00  0.00    -0.420 NA
ATOM     27  C   LIG    1        0.269   3.409  -0.777  0.00  0.00    +0.250 C 
ENDBRANCH  20  27
ENDBRANCH  16  23
ENDBRANCH   1  18
TORSDOF 4
