REMARK  Name = ZINCpk000000oRWo.0
REMARK                            x       y       z     vdW  Elec       q    Type
REMARK                         _______ _______ _______ _____ _____    ______ ____
ROOT
ATOM      1  N   LIG    1       -4.241   0.822  -1.712  0.00  0.00    -0.710 N 
ATOM      2  H   LIG    1       -4.710   1.386  -1.078  0.00  0.00    +0.410 HD
ATOM      3  C   LIG    1       -2.896   0.855  -1.776  0.00  0.00    +0.510 C 
ATOM      4  O   LIG    1       -2.309   0.149  -2.569  0.00  0.00    -0.510 OA
ENDROOT
BRANCH   3   5
ATOM      5  C   LIG    1       -2.120   1.768  -0.862  0.00  0.00    +0.020 C 
ATOM      6  C   LIG    1       -0.819   1.059  -0.433  0.00  0.00    -0.250 C 
ATOM      7  S   LIG    1        0.385   2.450  -0.307  0.00  0.00    +2.390 S 
ATOM      8  C   LIG    1       -0.343   3.380  -1.716  0.00  0.00    -0.280 C 
ATOM      9  O   LIG    1        0.171   3.163   0.903  0.00  0.00    -0.910 OA
ATOM     10  O   LIG    1        1.688   1.997  -0.651  0.00  0.00    -0.910 OA
ATOM     11  C   LIG    1       -1.850   3.080  -1.588  0.00  0.00    +0.030 C 
BRANCH  11  12
ATOM     12  C   LIG    1       -2.462   3.005  -2.988  0.00  0.00    +0.450 C 
ATOM     13  F   LIG    1       -2.274   4.226  -3.646  0.00  0.00    -0.180 F 
ATOM     14  F   LIG    1       -3.831   2.737  -2.885  0.00  0.00    -0.170 F 
ATOM     15  F   LIG    1       -1.840   1.984  -3.714  0.00  0.00    -0.160 F 
ENDBRANCH  11  12
ENDBRANCH   3   5
BRANCH   1  16
ATOM     16  C   LIG    1       -4.996  -0.066  -2.600  0.00  0.00    +0.310 C 
BRANCH  16  17
ATOM     17  C   LIG    1       -6.493   0.090  -2.325  0.00  0.00    -0.070 C 
ATOM     18  C   LIG    1       -6.813  -0.346  -0.880  0.00  0.00    +0.060 C 
ATOM     19  C   LIG    1       -8.189  -1.048  -0.991  0.00  0.00    +0.020 C 
ATOM     20  C   LIG    1       -8.079  -1.804  -2.338  0.00  0.00    +0.020 C 
ATOM     21  C   LIG    1       -7.298  -0.838  -3.252  0.00  0.00    +0.060 C 
BRANCH  17  22
ATOM     22  C   LIG    1       -6.911   1.522  -2.538  0.00  0.00    +0.470 C 
ATOM     23  O   LIG    1       -7.758   1.788  -3.358  0.00  0.00    -0.500 OA
BRANCH  22  24
ATOM     24  O   LIG    1       -6.341   2.501  -1.818  0.00  0.00    -0.360 OA
BRANCH  24  26
ATOM     25  C   LIG    1       -6.037   4.828  -1.168  0.00  0.00    +0.060 C 
ATOM     26  C   LIG    1       -6.793   3.857  -2.077  0.00  0.00    +0.200 C 
ENDBRANCH  24  26
ENDBRANCH  22  24
ENDBRANCH  17  22
ENDBRANCH  16  17
ENDBRANCH   1  16
TORSDOF 7
