REMARK  Name = ZINCrD00000F5LjE.0
REMARK                            x       y       z     vdW  Elec       q    Type
REMARK                         _______ _______ _______ _____ _____    ______ ____
ROOT
ATOM      1  C   LIG    1       -3.670   3.531  -0.665  0.00  0.00    -0.080 A 
ATOM      2  C   LIG    1       -2.521   3.878   0.034  0.00  0.00    +0.140 A 
ATOM      3  N   LIG    1       -2.804   4.980   0.745  0.00  0.00    -0.470 NA
ATOM      4  C   LIG    1       -4.040   5.340   0.525  0.00  0.00    +0.260 A 
ATOM      5  N   LIG    1       -4.618   4.479  -0.333  0.00  0.00    -0.550 N 
ATOM      6  H   LIG    1       -5.532   4.517  -0.657  0.00  0.00    +0.420 HD
ENDROOT
BRANCH   2   7
ATOM      7  C   LIG    1       -1.225   3.160   0.005  0.00  0.00    -0.000 A 
ATOM      8  C   LIG    1       -0.690   2.730  -1.209  0.00  0.00    +0.080 A 
ATOM      9  C   LIG    1        0.515   2.058  -1.229  0.00  0.00    +0.030 A 
ATOM     10  C   LIG    1        1.197   1.819  -0.048  0.00  0.00    -0.080 A 
ATOM     11  C   LIG    1        0.673   2.248   1.159  0.00  0.00    +0.030 A 
ATOM     12 BR   LIG    1        2.851   0.904  -0.085  0.00  0.00    -0.050 Br
ATOM     13  C   LIG    1       -0.533   2.917   1.192  0.00  0.00    +0.050 A 
ENDBRANCH   2   7
BRANCH   1  15
ATOM     14  O   LIG    1       -2.949   1.574  -1.694  0.00  0.00    -0.510 OA
ATOM     15  C   LIG    1       -3.841   2.393  -1.571  0.00  0.00    +0.590 C 
ATOM     16  N   LIG    1       -4.986   2.252  -2.268  0.00  0.00    -0.730 N 
ATOM     17  H   LIG    1       -5.697   2.905  -2.169  0.00  0.00    +0.390 HD
BRANCH  16  18
ATOM     18  C   LIG    1       -5.157   1.114  -3.174  0.00  0.00    +0.290 C 
BRANCH  18  19
ATOM     19  C   LIG    1       -6.535   1.191  -3.835  0.00  0.00    -0.050 C 
ATOM     20  C   LIG    1       -6.692   0.072  -4.889  0.00  0.00    +0.010 C 
ATOM     21  C   LIG    1       -7.882  -0.766  -4.371  0.00  0.00    +0.200 C 
ATOM     22  O   LIG    1       -8.636   0.139  -3.536  0.00  0.00    -0.370 OA
ATOM     23  C   LIG    1       -7.647   0.896  -2.805  0.00  0.00    +0.200 C 
ENDBRANCH  18  19
ENDBRANCH  16  18
ENDBRANCH   1  15
BRANCH   4  24
ATOM     24  C   LIG    1       -4.719   6.534   1.145  0.00  0.00    +0.160 C 
BRANCH  24  25
ATOM     25  C   LIG    1       -4.602   6.454   2.668  0.00  0.00    +0.170 C 
ATOM     26  C   LIG    1       -5.183   7.731   3.306  0.00  0.00    +0.010 C 
ATOM     27  C   LIG    1       -6.308   7.213   4.235  0.00  0.00    +0.000 C 
ATOM     28  C   LIG    1       -5.901   5.733   4.445  0.00  0.00    +0.200 C 
ATOM     29  O   LIG    1       -5.371   5.343   3.160  0.00  0.00    -0.370 OA
ENDBRANCH  24  25
ENDBRANCH   4  24
TORSDOF 6
