REMARK  Name = ZINCpe000000YjGo.0
REMARK                            x       y       z     vdW  Elec       q    Type
REMARK                         _______ _______ _______ _____ _____    ______ ____
ROOT
ATOM      1  S   LIG    1        0.966   5.925   0.024  0.00  0.00    +2.690 S 
ATOM      2  O   LIG    1        2.278   6.049   0.556  0.00  0.00    -0.940 OA
ATOM      3  O   LIG    1       -0.164   6.580   0.583  0.00  0.00    -0.940 OA
ENDROOT
BRANCH   1   4
ATOM      4  C   LIG    1        0.592   4.204   0.019  0.00  0.00    -0.690 A 
ATOM      5  C   LIG    1       -0.727   3.786   0.029  0.00  0.00    +0.180 A 
ATOM      6  C   LIG    1       -1.030   2.434   0.030  0.00  0.00    +0.030 A 
ATOM      7  C   LIG    1       -0.018   1.504   0.010  0.00  0.00    -0.050 A 
ATOM      8  C   LIG    1        0.002  -0.004   0.002  0.00  0.00    +0.340 C 
ATOM      9  O   LIG    1        1.402  -0.396  -0.013  0.00  0.00    -0.310 OA
ATOM     10  C   LIG    1        2.166   0.709  -0.015  0.00  0.00    +0.520 C 
ATOM     11  O   LIG    1        3.381   0.714  -0.027  0.00  0.00    -0.440 OA
ATOM     12  C   LIG    1        1.318   1.915  -0.000  0.00  0.00    -0.210 A 
ATOM     13  C   LIG    1        1.615   3.278   0.004  0.00  0.00    +0.210 A 
ENDBRANCH   1   4
BRANCH   1  16
ATOM     14  C   LIG    1        0.210   8.243  -2.924  0.00  0.00    +0.240 C 
ATOM     15  C   LIG    1       -0.137   6.903  -2.266  0.00  0.00    +0.270 C 
ATOM     16  N   LIG    1        1.055   6.412  -1.556  0.00  0.00    -1.000 NA
ATOM     17  C   LIG    1        2.329   6.373  -2.291  0.00  0.00    +0.270 C 
ATOM     18  C   LIG    1        2.555   7.734  -2.950  0.00  0.00    +0.220 C 
ATOM     19  O   LIG    1        1.396   8.090  -3.707  0.00  0.00    -0.370 OA
BRANCH  14  23
ATOM     20  C   LIG    1       -3.884  10.564  -4.651  0.00  0.00    +0.360 C 
ATOM     21  N   LIG    1       -2.711   9.691  -4.560  0.00  0.00    -0.370 N 
ATOM     22  C   LIG    1       -1.880   9.586  -3.501  0.00  0.00    +0.250 A 
ATOM     23  C   LIG    1       -0.927   8.677  -3.813  0.00  0.00    -0.240 A 
ATOM     24  C   LIG    1       -1.181   8.215  -5.109  0.00  0.00    +0.270 A 
ATOM     25  N   LIG    1       -2.253   8.818  -5.555  0.00  0.00    -0.300 NA
ENDBRANCH  14  23
ENDBRANCH   1  16
TORSDOF 3
