REMARK  Name = ZINCrH00000No4Es.0
REMARK                            x       y       z     vdW  Elec       q    Type
REMARK                         _______ _______ _______ _____ _____    ______ ____
ROOT
ATOM      1  N   LIG    1        4.466  -0.674   1.608  0.00  0.00    -0.550 N 
ENDROOT
BRANCH   1   5
ATOM      2  C   LIG    1        2.453  -3.576   2.095  0.00  0.00    +0.320 A 
ATOM      3  N   LIG    1        1.562  -2.955   2.813  0.00  0.00    -0.500 NA
ATOM      4  S   LIG    1        2.091  -1.343   2.910  0.00  0.00    +0.230 S 
ATOM      5  C   LIG    1        3.505  -1.604   1.961  0.00  0.00    +0.340 A 
ATOM      6  N   LIG    1        3.468  -2.880   1.640  0.00  0.00    -0.570 NA
BRANCH   2   7
ATOM      7  C   LIG    1        2.318  -5.046   1.791  0.00  0.00    +0.200 C 
ATOM      8  C   LIG    1        2.243  -5.248   0.276  0.00  0.00    +0.050 C 
ATOM      9  C   LIG    1        1.044  -5.587   2.442  0.00  0.00    +0.040 C 
BRANCH   7  11
ATOM     10  C   LIG    1        3.423  -7.154   2.073  0.00  0.00    +0.220 C 
ATOM     11  O   LIG    1        3.452  -5.745   2.309  0.00  0.00    -0.370 OA
ENDBRANCH   7  11
ENDBRANCH   2   7
ENDBRANCH   1   5
BRANCH   1  12
ATOM     12  C   LIG    1        5.611  -1.079   0.789  0.00  0.00    +0.390 C 
BRANCH  12  13
ATOM     13  C   LIG    1        6.736  -1.529   1.685  0.00  0.00    +0.090 A 
ATOM     14  C   LIG    1        6.884  -2.873   1.972  0.00  0.00    +0.040 A 
ATOM     15  C   LIG    1        7.922  -3.277   2.797  0.00  0.00    +0.040 A 
ATOM     16  C   LIG    1        8.778  -2.309   3.305  0.00  0.00    +0.050 A 
ATOM     17  C   LIG    1        8.566  -0.982   2.973  0.00  0.00    +0.240 A 
ATOM     18  F   LIG    1        9.803  -2.657   4.114  0.00  0.00    -0.130 F 
ATOM     19  N   LIG    1        7.571  -0.636   2.180  0.00  0.00    -0.450 NA
ENDBRANCH  12  13
ENDBRANCH   1  12
BRANCH   1  20
ATOM     20  C   LIG    1        4.340   0.716   2.054  0.00  0.00    +0.330 C 
BRANCH  20  21
ATOM     21  C   LIG    1        3.552   1.515   1.015  0.00  0.00    +0.170 C 
BRANCH  21  22
ATOM     22  O   LIG    1        2.214   1.017   0.945  0.00  0.00    -0.380 OA
BRANCH  22  23
ATOM     23  C   LIG    1        1.389   1.699  -0.002  0.00  0.00    +0.170 C 
BRANCH  23  24
ATOM     24  C   LIG    1       -0.013   1.086   0.008  0.00  0.00    -0.020 C 
ATOM     25  C   LIG    1       -0.939   1.683   1.080  0.00  0.00    +0.020 C 
ATOM     26  C   LIG    1       -2.063   1.621   0.029  0.00  0.00    +0.010 C 
ATOM     27  C   LIG    1       -0.959   1.695  -1.040  0.00  0.00    +0.020 C 
ENDBRANCH  23  24
ENDBRANCH  22  23
ENDBRANCH  21  22
ENDBRANCH  20  21
ENDBRANCH   1  20
TORSDOF 10
