REMARK  Name = ZINCpe000000XOT7.0
REMARK                            x       y       z     vdW  Elec       q    Type
REMARK                         _______ _______ _______ _____ _____    ______ ____
ROOT
ATOM      1  C   LIG    1        0.653  -4.954  -0.032  0.00  0.00    +0.090 C 
ATOM      2  C   LIG    1       -0.554  -4.053  -0.015  0.00  0.00    -0.100 A 
ATOM      3  C   LIG    1       -1.823  -4.601  -0.006  0.00  0.00    +0.020 A 
ATOM      4  C   LIG    1       -2.935  -3.779   0.009  0.00  0.00    -0.040 A 
ATOM      5  C   LIG    1       -2.778  -2.401   0.016  0.00  0.00    +0.200 A 
ATOM      6  C   LIG    1       -1.498  -1.849   0.006  0.00  0.00    +0.060 A 
ATOM      7  C   LIG    1       -0.390  -2.679  -0.014  0.00  0.00    -0.030 A 
ENDROOT
BRANCH   5   8
ATOM      8  N   LIG    1       -3.902  -1.567   0.031  0.00  0.00    -0.730 N 
ATOM      9  H   LIG    1       -3.791  -0.604   0.035  0.00  0.00    +0.420 HD
BRANCH   8  10
ATOM     10  C   LIG    1       -5.246  -2.150   0.041  0.00  0.00    +0.310 C 
BRANCH  10  11
ATOM     11  C   LIG    1       -6.272  -1.045   0.056  0.00  0.00    +0.510 C 
ATOM     12  N   LIG    1       -7.585  -1.346   0.067  0.00  0.00    -0.690 N 
ATOM     13  H   LIG    1       -7.871  -2.273   0.065  0.00  0.00    +0.410 HD
ATOM     14  C   LIG    1       -8.503  -0.359   0.081  0.00  0.00    +0.700 C 
ATOM     15  N   LIG    1       -9.816  -0.659   0.092  0.00  0.00    -0.710 N 
ATOM     16  H   LIG    1      -10.102  -1.587   0.090  0.00  0.00    +0.400 HD
ATOM     17  O   LIG    1       -8.145   0.803   0.084  0.00  0.00    -0.520 OA
ATOM     18  O   LIG    1       -5.915   0.113   0.059  0.00  0.00    -0.450 OA
BRANCH  15  19
ATOM     19  C   LIG    1      -10.813   0.414   0.108  0.00  0.00    +0.230 C 
ATOM     20  C   LIG    1      -12.004   0.259   1.057  0.00  0.00    +0.020 C 
ATOM     21  C   LIG    1      -12.201   0.097  -0.453  0.00  0.00    +0.020 C 
ENDBRANCH  15  19
ENDBRANCH  10  11
ENDBRANCH   8  10
ENDBRANCH   5   8
BRANCH   6  22
ATOM     22  O   LIG    1       -1.339  -0.499   0.012  0.00  0.00    -0.290 OA
BRANCH  22  23
ATOM     23  C   LIG    1        0.002  -0.004   0.002  0.00  0.00    +0.230 C 
BRANCH  23  24
ATOM     24  C   LIG    1       -0.018   1.503   0.010  0.00  0.00    +0.510 C 
ATOM     25  N   LIG    1        1.139   2.192   0.003  0.00  0.00    -0.620 N 
ATOM     26  C   LIG    1        2.418   1.477  -0.013  0.00  0.00    +0.290 C 
ATOM     27  C   LIG    1        1.120   3.657   0.011  0.00  0.00    +0.300 C 
ATOM     28  O   LIG    1       -1.077   2.095   0.018  0.00  0.00    -0.510 OA
ENDBRANCH  23  24
ENDBRANCH  22  23
ENDBRANCH   6  22
TORSDOF 7
