REMARK  Name = ZINCrD000000BrRx.0
REMARK                            x       y       z     vdW  Elec       q    Type
REMARK                         _______ _______ _______ _____ _____    ______ ____
ROOT
ATOM      1  O   LIG    1       -8.348   2.871  -1.223  0.00  0.00    -0.510 OA
ATOM      2  C   LIG    1       -7.577   2.514  -2.094  0.00  0.00    +0.590 C 
ATOM      3  N   LIG    1       -6.419   1.909  -1.762  0.00  0.00    -0.720 N 
ATOM      4  H   LIG    1       -5.804   1.624  -2.456  0.00  0.00    +0.400 HD
ENDROOT
BRANCH   2   5
ATOM      5  C   LIG    1       -7.907   2.744  -3.509  0.00  0.00    -0.040 A 
ATOM      6  C   LIG    1       -9.050   3.342  -4.005  0.00  0.00    +0.040 A 
ATOM      7  C   LIG    1       -8.898   3.330  -5.405  0.00  0.00    +0.100 A 
ATOM      8  N   LIG    1       -7.744   2.752  -5.674  0.00  0.00    -0.240 NA
ATOM      9  N   LIG    1       -7.148   2.401  -4.593  0.00  0.00    -0.370 N 
ATOM     10  H   LIG    1       -6.285   1.959  -4.551  0.00  0.00    +0.450 HD
BRANCH   7  11
ATOM     11  C   LIG    1       -9.860   3.863  -6.394  0.00  0.00    +0.050 A 
ATOM     12  C   LIG    1       -9.707   3.849  -7.744  0.00  0.00    -0.020 A 
ATOM     13  C   LIG    1      -10.858   4.454  -8.290  0.00  0.00    -0.060 A 
ATOM     14  C   LIG    1      -11.643   4.811  -7.256  0.00  0.00    +0.190 A 
ATOM     15  O   LIG    1      -11.038   4.453  -6.111  0.00  0.00    -0.170 OA
ENDBRANCH   7  11
ENDBRANCH   2   5
BRANCH   3  16
ATOM     16  C   LIG    1       -6.090   1.681  -0.352  0.00  0.00    +0.330 C 
BRANCH  16  17
ATOM     17  C   LIG    1       -4.752   0.993  -0.254  0.00  0.00    -0.100 A 
ATOM     18  C   LIG    1       -4.684  -0.388  -0.255  0.00  0.00    +0.020 A 
ATOM     19  C   LIG    1       -3.458  -1.022  -0.165  0.00  0.00    +0.030 A 
ATOM     20  C   LIG    1       -2.298  -0.278  -0.079  0.00  0.00    +0.030 A 
ATOM     21  C   LIG    1       -2.364   1.109  -0.073  0.00  0.00    +0.150 A 
ATOM     22  C   LIG    1       -3.596   1.744  -0.164  0.00  0.00    +0.000 A 
BRANCH  21  23
ATOM     23  N   LIG    1       -1.191   1.867   0.018  0.00  0.00    -0.680 N 
ATOM     24  H   LIG    1       -1.129   2.722  -0.435  0.00  0.00    +0.410 HD
ATOM     25  C   LIG    1       -0.146   1.407   0.735  0.00  0.00    +0.520 C 
ATOM     26  O   LIG    1       -0.256   0.386   1.379  0.00  0.00    -0.510 OA
BRANCH  25  27
ATOM     27  C   LIG    1        1.159   2.160   0.732  0.00  0.00    -0.020 C 
ATOM     28  C   LIG    1        2.028   1.882  -0.506  0.00  0.00    +0.050 C 
ATOM     29  C   LIG    1        3.239   1.879   0.444  0.00  0.00    +0.030 C 
ATOM     30  C   LIG    1        2.262   1.484   1.563  0.00  0.00    +0.050 C 
ENDBRANCH  25  27
ENDBRANCH  21  23
ENDBRANCH  16  17
ENDBRANCH   3  16
TORSDOF 6
