REMARK  Name = ZINCrD0000070Yol.0
REMARK                            x       y       z     vdW  Elec       q    Type
REMARK                         _______ _______ _______ _____ _____    ______ ____
ROOT
ATOM      1  C   LIG    1       -2.323   1.311   1.027  0.00  0.00    +0.190 C 
ATOM      2  C   LIG    1       -2.467   1.131   2.539  0.00  0.00    +0.070 C 
ENDROOT
BRANCH   1   3
ATOM      3  C   LIG    1       -3.518   2.057   0.493  0.00  0.00    +0.520 C 
ATOM      4  N   LIG    1       -4.755   1.544   0.643  0.00  0.00    -0.720 N 
ATOM      5  H   LIG    1       -4.876   0.694   1.095  0.00  0.00    +0.400 HD
ATOM      6  O   LIG    1       -3.367   3.120  -0.072  0.00  0.00    -0.510 OA
BRANCH   4   7
ATOM      7  C   LIG    1       -5.917   2.269   0.124  0.00  0.00    +0.290 C 
ATOM      8  C   LIG    1       -6.379   3.299   1.157  0.00  0.00    +0.040 C 
BRANCH   7   9
ATOM      9  C   LIG    1       -7.035   1.296  -0.150  0.00  0.00    -0.110 A 
ATOM     10  C   LIG    1       -7.273   0.253   0.726  0.00  0.00    +0.040 A 
ATOM     11  C   LIG    1       -8.301  -0.636   0.478  0.00  0.00    -0.010 A 
ATOM     12  C   LIG    1       -9.087  -0.489  -0.652  0.00  0.00    +0.100 A 
ATOM     13  C   LIG    1       -8.844   0.553  -1.531  0.00  0.00    -0.010 A 
ATOM     14  F   LIG    1      -10.089  -1.361  -0.898  0.00  0.00    -0.140 F 
ATOM     15  C   LIG    1       -7.819   1.445  -1.279  0.00  0.00    +0.060 A 
ENDBRANCH   7   9
ENDBRANCH   4   7
ENDBRANCH   1   3
BRANCH   1  16
ATOM     16  O   LIG    1       -1.115   2.065   0.742  0.00  0.00    -0.330 OA
BRANCH  16  17
ATOM     17  C   LIG    1        0.020   1.358   0.560  0.00  0.00    +0.540 C 
ATOM     18  O   LIG    1       -0.001   0.145   0.638  0.00  0.00    -0.490 OA
BRANCH  17  23
ATOM     19  C   LIG    1        3.417   2.495  -0.199  0.00  0.00    -0.260 A 
ATOM     20  C   LIG    1        2.720   3.691  -0.130  0.00  0.00    +0.120 A 
ATOM     21  N   LIG    1        1.435   3.417   0.143  0.00  0.00    -0.510 N 
ATOM     22  H   LIG    1        0.730   4.075   0.241  0.00  0.00    +0.430 HD
ATOM     23  C   LIG    1        1.277   2.053   0.263  0.00  0.00    -0.050 A 
ATOM     24  C   LIG    1        3.304   5.066  -0.333  0.00  0.00    +0.160 C 
ATOM     25  C   LIG    1        2.486   1.459   0.054  0.00  0.00    -0.020 A 
ATOM     26  C   LIG    1        2.776  -0.019   0.085  0.00  0.00    +0.140 C 
BRANCH  19  28
ATOM     27  C   LIG    1        5.324   2.182  -1.900  0.00  0.00    +0.080 C 
ATOM     28  C   LIG    1        4.847   2.334  -0.479  0.00  0.00    +0.440 C 
ATOM     29  O   LIG    1        5.646   2.322   0.434  0.00  0.00    -0.450 OA
ENDBRANCH  19  28
ENDBRANCH  17  23
ENDBRANCH  16  17
ENDBRANCH   1  16
TORSDOF 7
