REMARK  Name = ZINCpe000000YYwU.1
REMARK                            x       y       z     vdW  Elec       q    Type
REMARK                         _______ _______ _______ _____ _____    ______ ____
ROOT
ATOM      1  N   LIG    1       -0.875   1.865   1.354  0.00  0.00    -1.000 NA
ATOM      2  C   LIG    1       -0.677   3.186   1.971  0.00  0.00    +0.320 C 
ATOM      3  C   LIG    1       -2.054   3.840   2.161  0.00  0.00    +0.240 C 
ATOM      4  N   LIG    1       -2.920   2.936   2.929  0.00  0.00    -0.380 N 
ATOM      5  C   LIG    1       -3.170   1.710   2.160  0.00  0.00    +0.260 C 
ATOM      6  H   LIG    1       -2.470   2.700   3.800  0.00  0.00    +0.420 HD
ATOM      7  C   LIG    1       -1.852   0.953   1.967  0.00  0.00    +0.320 C 
ENDROOT
BRANCH   1   8
ATOM      8  S   LIG    1       -0.017   1.417   0.010  0.00  0.00    +2.730 S 
ATOM      9  O   LIG    1        1.162   2.210   0.003  0.00  0.00    -1.020 OA
ATOM     10  O   LIG    1        0.002  -0.004   0.002  0.00  0.00    -1.020 OA
BRANCH   8  13
ATOM     11  O   LIG    1        0.632   1.077  -2.701  0.00  0.00    -0.610 OA
ATOM     12  C   LIG    1       -0.434   1.636  -2.553  0.00  0.00    +0.540 C 
ATOM     13  N   LIG    1       -0.900   1.880  -1.312  0.00  0.00    -1.140 NA
BRANCH  12  14
ATOM     14  C   LIG    1       -1.237   2.057  -3.756  0.00  0.00    +0.160 C 
BRANCH  14  15
ATOM     15  C   LIG    1       -0.500   1.672  -5.013  0.00  0.00    +0.090 A 
ATOM     16  C   LIG    1       -1.050   0.920  -5.972  0.00  0.00    -0.090 A 
ATOM     17  S   LIG    1        0.146   0.712  -7.249  0.00  0.00    +0.080 S 
ATOM     18  C   LIG    1        1.266   1.655  -6.367  0.00  0.00    +0.230 A 
ATOM     19  N   LIG    1        0.737   2.052  -5.259  0.00  0.00    -0.440 NA
ENDBRANCH  14  15
ENDBRANCH  12  14
ENDBRANCH   8  13
ENDBRANCH   1   8
BRANCH   4  20
ATOM     20  C   LIG    1       -4.198   3.606   3.208  0.00  0.00    +0.310 C 
BRANCH  20  21
ATOM     21  C   LIG    1       -3.957   4.796   4.099  0.00  0.00    -0.160 A 
ATOM     22  C   LIG    1       -4.003   4.652   5.473  0.00  0.00    +0.040 A 
ATOM     23  C   LIG    1       -3.777   5.743   6.291  0.00  0.00    +0.010 A 
ATOM     24  C   LIG    1       -3.515   6.981   5.735  0.00  0.00    +0.040 A 
ATOM     25  C   LIG    1       -3.474   7.127   4.361  0.00  0.00    +0.030 A 
ATOM     26  C   LIG    1       -3.695   6.034   3.543  0.00  0.00    +0.030 A 
ENDBRANCH  20  21
ENDBRANCH   4  20
TORSDOF 6
