REMARK  Name = ZINCrH00000No4uL.0
REMARK                            x       y       z     vdW  Elec       q    Type
REMARK                         _______ _______ _______ _____ _____    ______ ____
ROOT
ATOM      1  N   LIG    1        4.648   4.618  -0.302  0.00  0.00    -0.450 N 
ATOM      2  C   LIG    1        3.868   5.716  -0.514  0.00  0.00    +0.010 A 
ATOM      3  C   LIG    1        2.580   5.331  -0.571  0.00  0.00    -0.010 A 
ATOM      4  C   LIG    1        2.569   3.879  -0.378  0.00  0.00    -0.110 A 
ATOM      5  C   LIG    1        4.368   7.130  -0.659  0.00  0.00    +0.130 C 
ATOM      6  C   LIG    1        3.872   3.505  -0.213  0.00  0.00    +0.060 A 
ATOM      7  C   LIG    1        4.365   2.101   0.024  0.00  0.00    +0.150 C 
ENDROOT
BRANCH   4   8
ATOM      8  C   LIG    1        1.387   2.997  -0.360  0.00  0.00    +0.200 C 
ATOM      9  N   LIG    1        1.532   1.720  -0.177  0.00  0.00    -0.230 NA
BRANCH   9  10
ATOM     10  N   LIG    1        0.409   0.883  -0.160  0.00  0.00    -0.580 N 
ATOM     11  H   LIG    1       -0.477   1.256  -0.288  0.00  0.00    +0.390 HD
BRANCH  10  12
ATOM     12  C   LIG    1        0.564  -0.482   0.036  0.00  0.00    +0.190 A 
ATOM     13  C   LIG    1        1.839  -1.019   0.209  0.00  0.00    -0.050 A 
ATOM     14  C   LIG    1        1.995  -2.361   0.406  0.00  0.00    +0.080 A 
ATOM     15  C   LIG    1        0.873  -3.199   0.424  0.00  0.00    -0.170 A 
ATOM     16  C   LIG    1       -0.405  -2.657   0.244  0.00  0.00    +0.080 A 
ATOM     17  C   LIG    1       -0.554  -1.313   0.053  0.00  0.00    -0.080 A 
BRANCH  15  18
ATOM     18  C   LIG    1        1.038  -4.646   0.631  0.00  0.00    +0.520 C 
ATOM     19  O   LIG    1        2.156  -5.119   0.788  0.00  0.00    -0.690 OA
ATOM     20  O   LIG    1        0.057  -5.377   0.646  0.00  0.00    -0.690 OA
ENDBRANCH  15  18
ENDBRANCH  10  12
ENDBRANCH   9  10
ENDBRANCH   4   8
BRANCH   1  21
ATOM     21  C   LIG    1        6.108   4.635  -0.182  0.00  0.00    +0.320 C 
BRANCH  21  26
ATOM     22  N   LIG    1        7.976   4.703   1.443  0.00  0.00    -0.390 N 
ATOM     23  C   LIG    1        8.204   5.288   2.790  0.00  0.00    +0.270 C 
ATOM     24  C   LIG    1        7.157   6.415   2.907  0.00  0.00    +0.070 C 
ATOM     25  C   LIG    1        6.034   6.023   1.925  0.00  0.00    +0.070 C 
ATOM     26  C   LIG    1        6.497   4.691   1.297  0.00  0.00    +0.160 C 
ATOM     27  H   LIG    1        8.396   5.282   0.731  0.00  0.00    +0.420 HD
BRANCH  22  29
ATOM     28  C   LIG    1       10.038   3.383   1.409  0.00  0.00    +0.090 C 
ATOM     29  C   LIG    1        8.509   3.336   1.379  0.00  0.00    +0.250 C 
ENDBRANCH  22  29
ENDBRANCH  21  26
ENDBRANCH   1  21
TORSDOF 7
