REMARK  Name = ZINCrH00000No4uL.1
REMARK                            x       y       z     vdW  Elec       q    Type
REMARK                         _______ _______ _______ _____ _____    ______ ____
ROOT
ATOM      1  N   LIG    1        2.629   3.668   1.176  0.00  0.00    -0.450 N 
ATOM      2  C   LIG    1        3.624   3.416   2.073  0.00  0.00    +0.000 A 
ATOM      3  C   LIG    1        4.681   4.193   1.760  0.00  0.00    -0.020 A 
ATOM      4  C   LIG    1        4.321   4.960   0.634  0.00  0.00    -0.130 A 
ATOM      5  C   LIG    1        3.557   2.434   3.215  0.00  0.00    +0.140 C 
ATOM      6  C   LIG    1        3.061   4.618   0.298  0.00  0.00    +0.040 A 
ATOM      7  C   LIG    1        2.266   5.188  -0.848  0.00  0.00    +0.130 C 
ENDROOT
BRANCH   1   8
ATOM      8  C   LIG    1        1.311   3.028   1.161  0.00  0.00    +0.310 C 
BRANCH   8  13
ATOM      9  N   LIG    1        0.085   1.027   0.424  0.00  0.00    -0.380 N 
ATOM     10  C   LIG    1       -0.340   0.855  -0.981  0.00  0.00    +0.260 C 
ATOM     11  C   LIG    1        0.979   0.849  -1.795  0.00  0.00    +0.080 C 
ATOM     12  C   LIG    1        1.824   1.902  -1.030  0.00  0.00    +0.090 C 
ATOM     13  C   LIG    1        1.406   1.682   0.439  0.00  0.00    +0.140 C 
ATOM     14  H   LIG    1        0.148   0.125   0.873  0.00  0.00    +0.430 HD
BRANCH   9  16
ATOM     15  C   LIG    1       -2.235   1.143   1.201  0.00  0.00    +0.080 C 
ATOM     16  C   LIG    1       -0.888   1.866   1.136  0.00  0.00    +0.240 C 
ENDBRANCH   9  16
ENDBRANCH   8  13
ENDBRANCH   1   8
BRANCH   4  17
ATOM     17  C   LIG    1        5.186   5.976  -0.066  0.00  0.00    +0.260 C 
BRANCH  17  18
ATOM     18  N   LIG    1        4.807   7.323   0.369  0.00  0.00    -0.250 NA
ATOM     19  N   LIG    1        5.641   8.053   0.925  0.00  0.00    -0.180 NA
BRANCH  19  20
ATOM     20  C   LIG    1        5.286   9.313   1.332  0.00  0.00    +0.010 A 
ATOM     21  C   LIG    1        3.986   9.777   1.115  0.00  0.00    +0.020 A 
ATOM     22  C   LIG    1        3.628  11.040   1.529  0.00  0.00    +0.030 A 
ATOM     23  C   LIG    1        4.568  11.863   2.155  0.00  0.00    -0.090 A 
ATOM     24  C   LIG    1        5.870  11.401   2.367  0.00  0.00    +0.040 A 
ATOM     25  C   LIG    1        6.226  10.136   1.958  0.00  0.00    +0.060 A 
BRANCH  23  26
ATOM     26  C   LIG    1        4.186  13.220   2.594  0.00  0.00    +0.520 C 
ATOM     27  O   LIG    1        3.047  13.624   2.409  0.00  0.00    -0.680 OA
ATOM     28  O   LIG    1        5.009  13.940   3.142  0.00  0.00    -0.680 OA
ENDBRANCH  23  26
ENDBRANCH  19  20
ENDBRANCH  17  18
ENDBRANCH   4  17
TORSDOF 7
