REMARK  Name = ZINCrH00000No4uL.2
REMARK                            x       y       z     vdW  Elec       q    Type
REMARK                         _______ _______ _______ _____ _____    ______ ____
ROOT
ATOM      1  N   LIG    1        2.959  -1.860   0.018  0.00  0.00    -0.470 N 
ATOM      2  C   LIG    1        3.077  -2.554   1.186  0.00  0.00    +0.020 A 
ATOM      3  C   LIG    1        3.748  -1.784   2.067  0.00  0.00    -0.030 A 
ATOM      4  C   LIG    1        4.055  -0.571   1.420  0.00  0.00    -0.110 A 
ATOM      5  C   LIG    1        2.549  -3.941   1.447  0.00  0.00    +0.140 C 
ATOM      6  C   LIG    1        3.566  -0.648   0.166  0.00  0.00    -0.000 A 
ATOM      7  C   LIG    1        3.668   0.423  -0.890  0.00  0.00    +0.130 C 
ENDROOT
BRANCH   1   8
ATOM      8  C   LIG    1        2.296  -2.340  -1.197  0.00  0.00    +0.330 C 
BRANCH   8  13
ATOM      9  N   LIG    1        0.690  -0.478  -1.207  0.00  0.00    -0.400 N 
ATOM     10  C   LIG    1       -0.098  -0.111  -2.403  0.00  0.00    +0.250 C 
ATOM     11  C   LIG    1        0.088  -1.300  -3.378  0.00  0.00    +0.080 C 
ATOM     12  C   LIG    1        0.095  -2.507  -2.403  0.00  0.00    +0.090 C 
ATOM     13  C   LIG    1        0.818  -1.946  -1.161  0.00  0.00    +0.140 C 
ATOM     14  H   LIG    1        1.606  -0.058  -1.264  0.00  0.00    +0.420 HD
BRANCH   9  16
ATOM     15  C   LIG    1       -0.019   1.526   0.010  0.00  0.00    +0.080 C 
ATOM     16  C   LIG    1        0.002  -0.004   0.002  0.00  0.00    +0.250 C 
ENDBRANCH   9  16
ENDBRANCH   8  13
ENDBRANCH   1   8
BRANCH   4  17
ATOM     17  C   LIG    1        4.800   0.595   2.017  0.00  0.00    +0.260 C 
BRANCH  17  18
ATOM     18  N   LIG    1        3.843   1.621   2.438  0.00  0.00    -0.260 NA
ATOM     19  N   LIG    1        3.788   1.968   3.627  0.00  0.00    -0.170 NA
BRANCH  19  20
ATOM     20  C   LIG    1        2.893   2.929   4.021  0.00  0.00    +0.010 A 
ATOM     21  C   LIG    1        2.046   3.521   3.080  0.00  0.00    +0.010 A 
ATOM     22  C   LIG    1        1.142   4.482   3.476  0.00  0.00    +0.030 A 
ATOM     23  C   LIG    1        1.081   4.873   4.817  0.00  0.00    -0.090 A 
ATOM     24  C   LIG    1        1.932   4.284   5.756  0.00  0.00    +0.050 A 
ATOM     25  C   LIG    1        2.831   3.320   5.360  0.00  0.00    +0.070 A 
BRANCH  23  26
ATOM     26  C   LIG    1        0.116   5.907   5.240  0.00  0.00    +0.510 C 
ATOM     27  O   LIG    1       -0.629   6.422   4.419  0.00  0.00    -0.680 OA
ATOM     28  O   LIG    1        0.062   6.249   6.413  0.00  0.00    -0.670 OA
ENDBRANCH  23  26
ENDBRANCH  19  20
ENDBRANCH  17  18
ENDBRANCH   4  17
TORSDOF 7
