REMARK  Name = ZINCvU0000000Csd.0
REMARK                            x       y       z     vdW  Elec       q    Type
REMARK                         _______ _______ _______ _____ _____    ______ ____
ROOT
ATOM      1  C   LIG    1        0.041   0.427   0.001  0.00  0.00    +0.290 A 
ATOM      2  N   LIG    1        0.495  -0.140  -1.079  0.00  0.00    -0.480 NA
ATOM      3  C   LIG    1        0.384  -1.488  -0.968  0.00  0.00    +0.050 A 
ATOM      4  C   LIG    1        0.711  -2.554  -1.810  0.00  0.00    +0.070 A 
ATOM      5  C   LIG    1        0.467  -3.838  -1.409  0.00  0.00    +0.000 A 
ATOM      6  C   LIG    1       -0.105  -4.096  -0.172  0.00  0.00    +0.030 A 
ATOM      7  C   LIG    1       -0.436  -3.059   0.675  0.00  0.00    +0.020 A 
ATOM      8  C   LIG    1       -0.195  -1.750   0.285  0.00  0.00    +0.060 A 
ATOM      9  N   LIG    1       -0.400  -0.518   0.874  0.00  0.00    -0.480 N 
ENDROOT
BRANCH   1  12
ATOM     10  N   LIG    1        0.141   3.913  -1.071  0.00  0.00    -0.560 N 
ATOM     11  C   LIG    1       -0.610   2.657  -0.961  0.00  0.00    +0.300 C 
ATOM     12  C   LIG    1        0.004   1.913   0.245  0.00  0.00    +0.090 C 
ATOM     13  C   LIG    1        1.433   2.504   0.285  0.00  0.00    +0.090 C 
ATOM     14  C   LIG    1        1.296   3.853  -0.386  0.00  0.00    +0.520 C 
ATOM     15  O   LIG    1        2.109   4.750  -0.314  0.00  0.00    -0.500 OA
BRANCH  10  20
ATOM     16  C   LIG    1       -1.601   8.439  -4.015  0.00  0.00    +0.090 C 
ATOM     17  C   LIG    1       -1.137   7.237  -3.233  0.00  0.00    -0.110 A 
ATOM     18  C   LIG    1        0.010   7.313  -2.466  0.00  0.00    +0.040 A 
ATOM     19  C   LIG    1        0.434   6.214  -1.744  0.00  0.00    -0.010 A 
ATOM     20  C   LIG    1       -0.288   5.029  -1.798  0.00  0.00    +0.160 A 
ATOM     21  C   LIG    1       -1.441   4.956  -2.569  0.00  0.00    -0.030 A 
ATOM     22  C   LIG    1       -1.862   6.059  -3.285  0.00  0.00    -0.060 A 
ATOM     23  C   LIG    1       -3.112   5.981  -4.123  0.00  0.00    +0.090 C 
ENDBRANCH  10  20
ENDBRANCH   1  12
BRANCH   9  24
ATOM     24  C   LIG    1       -0.985  -0.273   2.195  0.00  0.00    +0.370 C 
BRANCH  24  25
ATOM     25  C   LIG    1        0.116  -0.134   3.214  0.00  0.00    -0.160 A 
ATOM     26  C   LIG    1        0.525   1.121   3.623  0.00  0.00    +0.050 A 
ATOM     27  C   LIG    1        1.535   1.249   4.559  0.00  0.00    +0.010 A 
ATOM     28  C   LIG    1        2.138   0.122   5.085  0.00  0.00    +0.060 A 
ATOM     29  C   LIG    1        1.732  -1.134   4.677  0.00  0.00    -0.010 A 
ATOM     30  C   LIG    1        0.716  -1.264   3.745  0.00  0.00    +0.120 A 
ATOM     31  F   LIG    1        0.313  -2.492   3.350  0.00  0.00    -0.130 F 
ENDBRANCH  24  25
ENDBRANCH   9  24
TORSDOF 4
