REMARK  Name = ZINCvU0000000Gum.0
REMARK                            x       y       z     vdW  Elec       q    Type
REMARK                         _______ _______ _______ _____ _____    ______ ____
ROOT
ATOM      1  C   LIG    1        0.424   3.747  -0.549  0.00  0.00    -0.160 A 
ATOM      2  C   LIG    1        1.615   3.404   0.090  0.00  0.00    +0.120 A 
ATOM      3  C   LIG    1        1.763   2.161   0.677  0.00  0.00    +0.000 A 
ATOM      4  C   LIG    1        0.735   1.241   0.639  0.00  0.00    +0.140 A 
ATOM      5  C   LIG    1       -0.462   1.563  -0.000  0.00  0.00    -0.230 A 
ATOM      6  C   LIG    1       -1.584   0.605  -0.055  0.00  0.00    +0.430 A 
ATOM      7  O   LIG    1       -1.498  -0.503   0.449  0.00  0.00    -0.460 OA
ATOM      8  C   LIG    1       -2.762   1.021  -0.720  0.00  0.00    -0.270 A 
ATOM      9  C   LIG    1       -3.945   0.093  -0.820  0.00  0.00    +0.130 C 
ATOM     10  C   LIG    1       -2.817   2.264  -1.268  0.00  0.00    +0.200 A 
ATOM     11  O   LIG    1       -1.790   3.126  -1.206  0.00  0.00    -0.200 OA
ATOM     12  C   LIG    1       -0.629   2.822  -0.595  0.00  0.00    +0.190 A 
ENDROOT
BRANCH  10  13
ATOM     13  C   LIG    1       -4.053   2.681  -1.959  0.00  0.00    -0.070 A 
ATOM     14  C   LIG    1       -4.617   1.865  -2.943  0.00  0.00    +0.050 A 
ATOM     15  C   LIG    1       -5.775   2.259  -3.581  0.00  0.00    +0.010 A 
ATOM     16  C   LIG    1       -6.372   3.464  -3.255  0.00  0.00    +0.040 A 
ATOM     17  C   LIG    1       -5.817   4.280  -2.285  0.00  0.00    +0.010 A 
ATOM     18  C   LIG    1       -4.662   3.896  -1.636  0.00  0.00    +0.050 A 
ENDBRANCH  10  13
BRANCH   1  20
ATOM     19  N   LIG    1        0.731   6.174  -0.540  0.00  0.00    -0.610 N 
ATOM     20  C   LIG    1        0.273   5.076  -1.173  0.00  0.00    +0.570 C 
ATOM     21  O   LIG    1       -0.264   5.180  -2.259  0.00  0.00    -0.510 OA
ATOM     22  C   LIG    1        1.273   6.064   0.817  0.00  0.00    +0.280 C 
BRANCH  19  23
ATOM     23  C   LIG    1        0.686   7.477  -1.208  0.00  0.00    +0.340 C 
BRANCH  23  27
ATOM     24  C   LIG    1       -3.031   9.398  -0.337  0.00  0.00    -0.080 A 
ATOM     25  C   LIG    1       -1.933   9.599   0.491  0.00  0.00    +0.030 A 
ATOM     26  C   LIG    1       -0.733   8.976   0.207  0.00  0.00    +0.040 A 
ATOM     27  C   LIG    1       -0.625   8.154  -0.900  0.00  0.00    -0.120 A 
ATOM     28  C   LIG    1       -1.714   7.957  -1.729  0.00  0.00    +0.060 A 
ATOM     29  C   LIG    1       -2.918   8.572  -1.448  0.00  0.00    -0.020 A 
BRANCH  24  31
ATOM     30  C   LIG    1       -5.642   9.620  -1.319  0.00  0.00    +0.140 C 
ATOM     31  S   LIG    1       -4.563  10.191   0.022  0.00  0.00    -0.120 S 
ENDBRANCH  24  31
ENDBRANCH  23  27
ENDBRANCH  19  23
ENDBRANCH   1  20
TORSDOF 5
