REMARK  Name = ZINCpk00001AZiSO.0
REMARK                            x       y       z     vdW  Elec       q    Type
REMARK                         _______ _______ _______ _____ _____    ______ ____
ROOT
ATOM      1  O   LIG    1        0.482  -2.607   0.253  0.00  0.00    -0.500 OA
ATOM      2  C   LIG    1        0.790  -1.998   1.256  0.00  0.00    +0.550 C 
ATOM      3  N   LIG    1        1.359  -2.648   2.291  0.00  0.00    -0.630 N 
ATOM      4  C   LIG    1        1.774  -2.302   3.659  0.00  0.00    +0.290 C 
ATOM      5  C   LIG    1        2.822  -3.420   3.565  0.00  0.00    +0.070 C 
ATOM      6  C   LIG    1        1.831  -4.016   2.552  0.00  0.00    +0.330 C 
ENDROOT
BRANCH   6   7
ATOM      7  C   LIG    1        2.499  -4.657   1.363  0.00  0.00    +0.160 A 
ATOM      8  N   LIG    1        3.378  -4.100   0.572  0.00  0.00    -0.260 NA
ATOM      9  N   LIG    1        3.742  -4.940  -0.333  0.00  0.00    -0.290 NA
ATOM     10  C   LIG    1        3.110  -6.066  -0.161  0.00  0.00    +0.190 A 
ATOM     11  C   LIG    1        3.247  -7.322  -0.983  0.00  0.00    +0.150 C 
ATOM     12  C   LIG    1        1.851  -7.855  -1.319  0.00  0.00    +0.010 C 
ATOM     13  C   LIG    1        1.378  -8.785  -0.206  0.00  0.00    +0.020 C 
ATOM     14  C   LIG    1        1.912  -8.316   1.147  0.00  0.00    +0.030 C 
ATOM     15  C   LIG    1        1.378  -6.914   1.455  0.00  0.00    +0.280 C 
ATOM     16  N   LIG    1        2.298  -5.915   0.911  0.00  0.00    -0.460 N 
ENDBRANCH   6   7
BRANCH   2  17
ATOM     17  C   LIG    1        0.537  -0.515   1.344  0.00  0.00    +0.260 C 
ATOM     18  C   LIG    1       -0.899  -0.266   1.817  0.00  0.00    +0.060 C 
ATOM     19  C   LIG    1       -1.236   1.220   1.668  0.00  0.00    +0.060 C 
ATOM     20  C   LIG    1       -1.329   1.570   0.177  0.00  0.00    +0.170 C 
ATOM     21  C   LIG    1       -0.106   1.017  -0.514  0.00  0.00    +0.280 A 
ATOM     22  N   LIG    1        0.353   1.323  -1.695  0.00  0.00    -0.540 NA
ATOM     23  C   LIG    1        1.459   0.618  -1.944  0.00  0.00    +0.410 A 
ATOM     24  N   LIG    1        1.715  -0.151  -0.916  0.00  0.00    -0.290 NA
ATOM     25  N   LIG    1        0.710   0.091   0.024  0.00  0.00    -0.370 N 
ENDBRANCH   2  17
TORSDOF 2
