REMARK  Name = ZINCvU0000000IAJ.0
REMARK                            x       y       z     vdW  Elec       q    Type
REMARK                         _______ _______ _______ _____ _____    ______ ____
ROOT
ATOM      1  C   LIG    1       -2.424   0.554   4.289  0.00  0.00    +0.100 C 
ENDROOT
BRANCH   1   2
ATOM      2  C   LIG    1       -1.875   1.548   3.298  0.00  0.00    -0.090 A 
ATOM      3  C   LIG    1       -1.233   1.103   2.157  0.00  0.00    +0.020 A 
ATOM      4  C   LIG    1       -0.724   2.012   1.250  0.00  0.00    -0.090 A 
ATOM      5  C   LIG    1       -0.868   3.373   1.479  0.00  0.00    +0.110 A 
ATOM      6  C   LIG    1       -1.517   3.817   2.622  0.00  0.00    -0.090 A 
ATOM      7  C   LIG    1       -2.020   2.904   3.528  0.00  0.00    +0.020 A 
BRANCH   6   8
ATOM      8  C   LIG    1       -1.675   5.294   2.873  0.00  0.00    -0.020 C 
ATOM      9  C   LIG    1       -2.470   5.924   1.727  0.00  0.00    +0.030 C 
ATOM     10  C   LIG    1       -0.295   5.948   2.956  0.00  0.00    +0.030 C 
ATOM     11  C   LIG    1       -2.422   5.510   4.191  0.00  0.00    +0.030 C 
ENDBRANCH   6   8
BRANCH   4  12
ATOM     12  C   LIG    1       -0.019   1.526   0.010  0.00  0.00    -0.020 C 
ATOM     13  C   LIG    1       -0.759   2.033  -1.229  0.00  0.00    +0.030 C 
ATOM     14  C   LIG    1        1.417   2.055  -0.000  0.00  0.00    +0.030 C 
ATOM     15  C   LIG    1        0.002  -0.004   0.002  0.00  0.00    +0.030 C 
ENDBRANCH   4  12
BRANCH   5  16
ATOM     16  O   LIG    1       -0.373   4.269   0.586  0.00  0.00    -0.490 OA
ATOM     17  H   LIG    1       -0.999   4.520  -0.107  0.00  0.00    +0.380 HD
ENDBRANCH   5  16
ENDBRANCH   1   2
BRANCH   1  18
ATOM     18  C   LIG    1       -3.866   0.204   3.915  0.00  0.00    +0.070 C 
BRANCH  18  21
ATOM     19  N   LIG    1       -5.676  -1.246   4.776  0.00  0.00    -0.730 N 
ATOM     20  H   LIG    1       -6.231  -0.934   4.044  0.00  0.00    +0.400 HD
ATOM     21  C   LIG    1       -4.414  -0.790   4.906  0.00  0.00    +0.510 C 
ATOM     22  O   LIG    1       -3.720  -1.180   5.821  0.00  0.00    -0.540 OA
BRANCH  19  23
ATOM     23  C   LIG    1       -6.209  -2.212   5.739  0.00  0.00    +0.320 C 
BRANCH  23  27
ATOM     24  C   LIG    1      -10.239  -3.191   4.694  0.00  0.00    -0.120 A 
ATOM     25  C   LIG    1       -9.179  -3.938   4.176  0.00  0.00    +0.090 A 
ATOM     26  C   LIG    1       -7.882  -3.616   4.517  0.00  0.00    +0.030 A 
ATOM     27  C   LIG    1       -7.629  -2.557   5.371  0.00  0.00    -0.070 A 
ATOM     28  C   LIG    1       -8.675  -1.816   5.892  0.00  0.00    +0.030 A 
ATOM     29  C   LIG    1       -9.977  -2.122   5.555  0.00  0.00    +0.080 A 
BRANCH  24  30
ATOM     30  C   LIG    1      -11.631  -3.529   4.334  0.00  0.00    +0.510 C 
ATOM     31  O   LIG    1      -11.856  -4.459   3.586  0.00  0.00    -0.500 OA
BRANCH  30  33
ATOM     32  C   LIG    1      -13.993  -3.196   4.439  0.00  0.00    +0.290 C 
ATOM     33  O   LIG    1      -12.652  -2.806   4.836  0.00  0.00    -0.350 OA
ENDBRANCH  30  33
ENDBRANCH  24  30
ENDBRANCH  23  27
ENDBRANCH  19  23
ENDBRANCH  18  21
ENDBRANCH   1  18
TORSDOF 10
