REMARK  Name = ZINCvU000000058O.0
REMARK                            x       y       z     vdW  Elec       q    Type
REMARK                         _______ _______ _______ _____ _____    ______ ____
ROOT
ATOM      1  C   LIG    1        0.003   0.113   0.013  0.00  0.00    +0.290 C 
ENDROOT
BRANCH   1   8
ATOM      2  C   LIG    1       -0.175  -0.550   2.425  0.00  0.00    +0.120 A 
ATOM      3  C   LIG    1        0.378  -1.062   3.590  0.00  0.00    +0.040 A 
ATOM      4  C   LIG    1        1.701  -1.462   3.607  0.00  0.00    -0.070 A 
ATOM      5  C   LIG    1        2.472  -1.354   2.464  0.00  0.00    +0.050 A 
ATOM      6  C   LIG    1        1.921  -0.849   1.300  0.00  0.00    +0.050 A 
ATOM      7 BR   LIG    1        2.456  -2.159   5.194  0.00  0.00    -0.030 Br
ATOM      8  C   LIG    1        0.601  -0.442   1.280  0.00  0.00    -0.090 A 
BRANCH   2   9
ATOM      9  O   LIG    1       -1.476  -0.155   2.405  0.00  0.00    -0.250 OA
BRANCH   9  14
ATOM     10  C   LIG    1       -5.300  -3.749   0.361  0.00  0.00    +0.100 C 
ATOM     11  C   LIG    1       -4.277  -2.788   0.908  0.00  0.00    -0.110 A 
ATOM     12  C   LIG    1       -4.653  -1.504   1.257  0.00  0.00    +0.050 A 
ATOM     13  C   LIG    1       -3.717  -0.620   1.758  0.00  0.00    -0.010 A 
ATOM     14  C   LIG    1       -2.398  -1.022   1.912  0.00  0.00    +0.120 A 
ATOM     15  C   LIG    1       -2.022  -2.309   1.556  0.00  0.00    -0.060 A 
ATOM     16  C   LIG    1       -2.963  -3.191   1.061  0.00  0.00    +0.050 A 
ENDBRANCH   9  14
ENDBRANCH   2   9
ENDBRANCH   1   8
BRANCH   1  17
ATOM     17  N   LIG    1       -0.026   1.580   0.087  0.00  0.00    -0.440 N 
ATOM     18  C   LIG    1        1.335   2.133   0.103  0.00  0.00    +0.230 C 
BRANCH  17  19
ATOM     19  C   LIG    1       -0.768   2.115  -0.954  0.00  0.00    +0.370 A 
ATOM     20  N   LIG    1       -1.374   1.442  -1.904  0.00  0.00    -0.310 NA
ATOM     21  N   LIG    1       -1.973   2.250  -2.704  0.00  0.00    -0.260 NA
ATOM     22  C   LIG    1       -1.777   3.490  -2.319  0.00  0.00    +0.250 A 
ATOM     23  N   LIG    1       -0.999   3.441  -1.186  0.00  0.00    -0.480 N 
ATOM     24  C   LIG    1       -0.517   4.576  -0.394  0.00  0.00    +0.330 C 
BRANCH  22  25
ATOM     25  C   LIG    1       -2.295   4.708  -2.979  0.00  0.00    -0.110 A 
ATOM     26  C   LIG    1       -1.885   5.989  -2.776  0.00  0.00    +0.210 A 
ATOM     27  O   LIG    1       -2.607   6.795  -3.569  0.00  0.00    -0.170 OA
ATOM     28  C   LIG    1       -3.486   6.087  -4.294  0.00  0.00    -0.010 A 
ATOM     29  C   LIG    1       -3.354   4.784  -3.993  0.00  0.00    +0.020 A 
BRANCH  28  30
ATOM     30  C   LIG    1       -4.460   6.660  -5.291  0.00  0.00    +0.320 C 
BRANCH  30  31
ATOM     31  O   LIG    1       -5.685   6.980  -4.629  0.00  0.00    -0.570 OA
ATOM     32  H   LIG    1       -6.360   7.355  -5.212  0.00  0.00    +0.390 HD
ENDBRANCH  30  31
ENDBRANCH  28  30
ENDBRANCH  22  25
ENDBRANCH  17  19
ENDBRANCH   1  17
TORSDOF 8
