REMARK  Name = ZINCpk000000om32.0
REMARK                            x       y       z     vdW  Elec       q    Type
REMARK                         _______ _______ _______ _____ _____    ______ ____
ROOT
ATOM      1  N   LIG    1       -3.534  -8.959  -1.483  0.00  0.00    -0.520 NA
ATOM      2  C   LIG    1       -4.222  -8.655  -0.221  0.00  0.00    +0.190 C 
ATOM      3  C   LIG    1       -4.576  -7.166  -0.182  0.00  0.00    +0.190 C 
ATOM      4  N   LIG    1       -3.348  -6.370  -0.315  0.00  0.00    -0.520 NA
ATOM      5  C   LIG    1       -2.661  -6.674  -1.578  0.00  0.00    +0.200 C 
ATOM      6  C   LIG    1       -2.306  -8.162  -1.616  0.00  0.00    +0.200 C 
ENDROOT
BRANCH   1   7
ATOM      7  C   LIG    1       -3.244 -10.395  -1.591  0.00  0.00    +0.210 C 
BRANCH   7  10
ATOM      8  N   LIG    1       -2.440 -11.972  -3.320  0.00  0.00    -0.740 N 
ATOM      9  H   LIG    1       -2.512 -12.681  -2.661  0.00  0.00    +0.400 HD
ATOM     10  C   LIG    1       -2.767 -10.708  -2.986  0.00  0.00    +0.510 C 
ATOM     11  O   LIG    1       -2.678  -9.821  -3.809  0.00  0.00    -0.520 OA
BRANCH   8  12
ATOM     12  C   LIG    1       -1.977 -12.276  -4.676  0.00  0.00    +0.260 C 
BRANCH  12  14
ATOM     13  C   LIG    1       -1.191 -14.088  -6.205  0.00  0.00    +0.030 C 
ATOM     14  C   LIG    1       -1.675 -13.771  -4.788  0.00  0.00    +0.000 C 
ENDBRANCH  12  14
ENDBRANCH   8  12
ENDBRANCH   7  10
ENDBRANCH   1   7
BRANCH   4  15
ATOM     15  C   LIG    1       -3.639  -4.934  -0.207  0.00  0.00    +0.220 C 
BRANCH  15  16
ATOM     16  C   LIG    1       -2.346  -4.167  -0.101  0.00  0.00    +0.510 C 
ATOM     17  N   LIG    1       -2.366  -2.823   0.009  0.00  0.00    -0.680 N 
ATOM     18  H   LIG    1       -3.212  -2.356   0.087  0.00  0.00    +0.410 HD
ATOM     19  O   LIG    1       -1.287  -4.758  -0.115  0.00  0.00    -0.490 OA
BRANCH  17  20
ATOM     20  C   LIG    1       -1.166  -2.103   0.009  0.00  0.00    +0.160 A 
ATOM     21  C   LIG    1       -1.107  -0.850  -0.586  0.00  0.00    -0.020 A 
ATOM     22  C   LIG    1        0.077  -0.137  -0.585  0.00  0.00    +0.050 A 
ATOM     23  C   LIG    1        1.204  -0.666   0.011  0.00  0.00    -0.020 A 
ATOM     24  C   LIG    1        1.154  -1.923   0.605  0.00  0.00    -0.070 A 
ATOM     25  C   LIG    1       -0.034  -2.640   0.606  0.00  0.00    +0.050 A 
BRANCH  24  26
ATOM     26  S   LIG    1        2.594  -2.600   1.361  0.00  0.00    -0.110 S 
ATOM     27  C   LIG    1        3.840  -1.308   1.096  0.00  0.00    +0.120 C 
ENDBRANCH  24  26
ENDBRANCH  17  20
ENDBRANCH  15  16
ENDBRANCH   4  15
TORSDOF 8
