REMARK  Name = ZINCrH000004ujV6.0
REMARK                            x       y       z     vdW  Elec       q    Type
REMARK                         _______ _______ _______ _____ _____    ______ ____
ROOT
ATOM      1  O   LIG    1        5.127   5.456   0.281  0.00  0.00    -0.580 OA
ATOM      2  C   LIG    1        4.084   6.076   0.193  0.00  0.00    +0.710 C 
ATOM      3  N   LIG    1        4.100   7.424   0.187  0.00  0.00    -0.740 N 
ATOM      4  H   LIG    1        3.269   7.918   0.117  0.00  0.00    +0.400 HD
ATOM      5  N   LIG    1        2.913   5.416   0.101  0.00  0.00    -0.750 N 
ATOM      6  H   LIG    1        2.082   5.910   0.031  0.00  0.00    +0.400 HD
ENDROOT
BRANCH   3   7
ATOM      7  C   LIG    1        5.373   8.142   0.287  0.00  0.00    +0.340 C 
BRANCH   7   8
ATOM      8  C   LIG    1        5.117   9.626   0.259  0.00  0.00    -0.060 A 
ATOM      9  C   LIG    1        5.304  10.338  -0.911  0.00  0.00    +0.040 A 
ATOM     10  C   LIG    1        5.063  11.699  -0.939  0.00  0.00    +0.050 A 
ATOM     11  C   LIG    1        4.646  12.350   0.207  0.00  0.00    +0.030 A 
ATOM     12  C   LIG    1        4.464  11.639   1.379  0.00  0.00    +0.070 A 
ATOM     13  C   LIG    1        4.699  10.278   1.405  0.00  0.00    -0.170 A 
BRANCH  13  14
ATOM     14  C   LIG    1        4.501   9.503   2.682  0.00  0.00    +0.510 C 
ATOM     15  F   LIG    1        5.709   8.902   3.055  0.00  0.00    -0.170 F 
ATOM     16  F   LIG    1        3.531   8.515   2.483  0.00  0.00    -0.170 F 
ATOM     17  F   LIG    1        4.080  10.372   3.694  0.00  0.00    -0.180 F 
ENDBRANCH  13  14
ENDBRANCH   7   8
ENDBRANCH   3   7
BRANCH   5  18
ATOM     18  C   LIG    1        2.896   3.951   0.107  0.00  0.00    +0.290 C 
BRANCH  18  19
ATOM     19  C   LIG    1        1.452   3.458  -0.007  0.00  0.00    +0.070 C 
BRANCH  19  20
ATOM     20  C   LIG    1        1.433   1.928  -0.001  0.00  0.00    +0.150 C 
ATOM     21  C   LIG    1       -0.017   1.428   0.010  0.00  0.00    +0.230 C 
ATOM     22  O   LIG    1        0.002  -0.004   0.002  0.00  0.00    -0.310 OA
ATOM     23  C   LIG    1        0.843  -0.599  -0.887  0.00  0.00    +0.050 A 
ATOM     24  C   LIG    1        0.661  -1.937  -1.206  0.00  0.00    +0.020 A 
ATOM     25  C   LIG    1        1.509  -2.556  -2.105  0.00  0.00    +0.010 A 
ATOM     26  C   LIG    1        2.539  -1.844  -2.690  0.00  0.00    +0.020 A 
ATOM     27  C   LIG    1        2.725  -0.510  -2.378  0.00  0.00    +0.030 A 
ATOM     28  C   LIG    1        1.878   0.117  -1.477  0.00  0.00    +0.050 A 
ATOM     29  O   LIG    1        2.070   1.433  -1.184  0.00  0.00    -0.300 OA
ENDBRANCH  19  20
ENDBRANCH  18  19
ENDBRANCH   5  18
TORSDOF 6
