REMARK  Name = ZINCrg000000sB8J.0
REMARK                            x       y       z     vdW  Elec       q    Type
REMARK                         _______ _______ _______ _____ _____    ______ ____
ROOT
ATOM      1  C   LIG    1        3.844  -3.852  -1.474  0.00  0.00    +0.520 C 
ATOM      2  N   LIG    1        4.500  -5.001  -1.731  0.00  0.00    -0.520 N 
ATOM      3  H   LIG    1        4.820  -5.551  -1.000  0.00  0.00    +0.440 HD
ATOM      4  O   LIG    1        3.444  -3.164  -2.389  0.00  0.00    -0.520 OA
ENDROOT
BRANCH   2   5
ATOM      5  N   LIG    1        4.720  -5.400  -3.056  0.00  0.00    -0.510 N 
ATOM      6  H   LIG    1        4.400  -4.849  -3.788  0.00  0.00    +0.440 HD
ATOM      7  C   LIG    1        5.376  -6.548  -3.314  0.00  0.00    +0.510 C 
ATOM      8  O   LIG    1        5.776  -7.237  -2.399  0.00  0.00    -0.530 OA
BRANCH   7   9
ATOM      9  C   LIG    1        5.613  -6.978  -4.739  0.00  0.00    +0.330 C 
BRANCH   9  10
ATOM     10  N   LIG    1        6.341  -8.249  -4.751  0.00  0.00    -0.710 N 
ATOM     11  H   LIG    1        6.590  -8.674  -3.916  0.00  0.00    +0.420 HD
ATOM     12  C   LIG    1        6.665  -8.828  -5.924  0.00  0.00    +0.610 C 
ATOM     13  O   LIG    1        6.354  -8.295  -6.973  0.00  0.00    -0.510 OA
BRANCH  12  14
ATOM     14  C   LIG    1        7.394 -10.100  -5.937  0.00  0.00    -0.060 A 
ATOM     15  C   LIG    1        7.782 -10.791  -7.049  0.00  0.00    +0.060 A 
ATOM     16  C   LIG    1        8.445 -11.943  -6.598  0.00  0.00    +0.010 A 
ATOM     17  C   LIG    1        8.432 -11.905  -5.245  0.00  0.00    +0.000 A 
ATOM     18 BR   LIG    1        9.185 -13.208  -4.100  0.00  0.00    +0.070 Br
ATOM     19  O   LIG    1        7.803 -10.790  -4.851  0.00  0.00    -0.150 OA
ENDBRANCH  12  14
ENDBRANCH   9  10
ENDBRANCH   7   9
ENDBRANCH   2   5
BRANCH   1  20
ATOM     20  C   LIG    1        3.607  -3.423  -0.049  0.00  0.00    +0.210 C 
BRANCH  20  30
ATOM     21  C   LIG    1        4.876  -0.603  -0.048  0.00  0.00    +0.340 C 
ATOM     22  N   LIG    1        3.439  -0.884  -0.035  0.00  0.00    -0.480 N 
ATOM     23  C   LIG    1        2.422   0.049  -0.021  0.00  0.00    +0.050 A 
ATOM     24  C   LIG    1        2.383   1.437  -0.014  0.00  0.00    +0.010 A 
ATOM     25  C   LIG    1        1.167   2.086   0.002  0.00  0.00    +0.030 A 
ATOM     26  C   LIG    1       -0.017   1.362   0.009  0.00  0.00    +0.000 A 
ATOM     27  C   LIG    1        0.002  -0.004   0.002  0.00  0.00    +0.070 A 
ATOM     28  C   LIG    1        1.223  -0.684  -0.013  0.00  0.00    +0.050 A 
ATOM     29  N   LIG    1        1.562  -1.998  -0.023  0.00  0.00    -0.470 NA
ATOM     30  C   LIG    1        2.858  -2.115  -0.036  0.00  0.00    +0.290 A 
ENDBRANCH  20  30
ENDBRANCH   1  20
TORSDOF 6
