REMARK  Name = ZINCpe00000MJMvI.0
REMARK                            x       y       z     vdW  Elec       q    Type
REMARK                         _______ _______ _______ _____ _____    ______ ____
ROOT
ATOM      1  N   LIG    1        0.062   1.895  -7.573  0.00  0.00    -0.570 N 
ATOM      2  C   LIG    1       -0.928   0.833  -7.345  0.00  0.00    +0.300 C 
ATOM      3  C   LIG    1       -1.652   1.110  -6.024  0.00  0.00    +0.010 C 
ATOM      4  C   LIG    1       -0.621   1.260  -4.903  0.00  0.00    +0.250 C 
ATOM      5  C   LIG    1        0.298   2.445  -5.208  0.00  0.00    -0.000 C 
ATOM      6  C   LIG    1        1.044   2.183  -6.519  0.00  0.00    +0.290 C 
ENDROOT
BRANCH   1  12
ATOM      7  C   LIG    1        2.175   5.191 -10.560  0.00  0.00    +0.320 C 
ATOM      8  N   LIG    1        1.117   4.235 -10.224  0.00  0.00    -0.480 N 
ATOM      9  C   LIG    1        0.084   4.016 -11.087  0.00  0.00    +0.150 A 
ATOM     10  C   LIG    1       -0.895   3.137 -10.786  0.00  0.00    +0.190 A 
ATOM     11  N   LIG    1       -0.896   2.452  -9.643  0.00  0.00    -0.510 NA
ATOM     12  C   LIG    1        0.068   2.612  -8.762  0.00  0.00    +0.350 A 
ATOM     13  C   LIG    1        1.148   3.563  -9.051  0.00  0.00    +0.480 A 
ATOM     14  O   LIG    1        2.055   3.739  -8.255  0.00  0.00    -0.520 OA
ENDBRANCH   1  12
BRANCH   4  15
ATOM     15  N   LIG    1       -1.312   1.492  -3.632  0.00  0.00    -0.740 N 
ATOM     16  H   LIG    1       -2.199   1.883  -3.626  0.00  0.00    +0.390 HD
ATOM     17  C   LIG    1       -0.713   1.162  -2.470  0.00  0.00    +0.700 C 
ATOM     18  N   LIG    1       -1.349   1.375  -1.301  0.00  0.00    -0.750 N 
ATOM     19  H   LIG    1       -2.236   1.766  -1.295  0.00  0.00    +0.390 HD
ATOM     20  O   LIG    1        0.399   0.672  -2.477  0.00  0.00    -0.590 OA
BRANCH  18  21
ATOM     21  C   LIG    1       -0.699   1.017  -0.038  0.00  0.00    +0.280 C 
BRANCH  21  22
ATOM     22  C   LIG    1       -1.627   1.359   1.129  0.00  0.00    +0.010 C 
BRANCH  22  23
ATOM     23  C   LIG    1       -0.948   0.985   2.448  0.00  0.00    +0.170 C 
ATOM     24  C   LIG    1       -1.921   1.220   3.623  0.00  0.00    +0.010 C 
ATOM     25  C   LIG    1       -0.983   1.796   4.718  0.00  0.00    +0.000 C 
ATOM     26  C   LIG    1        0.019   2.601   3.853  0.00  0.00    +0.200 C 
ATOM     27  O   LIG    1        0.196   1.820   2.660  0.00  0.00    -0.380 OA
ENDBRANCH  22  23
ENDBRANCH  21  22
ENDBRANCH  18  21
ENDBRANCH   4  15
TORSDOF 5
