REMARK  Name = ZINCvU000000049R.0
REMARK                            x       y       z     vdW  Elec       q    Type
REMARK                         _______ _______ _______ _____ _____    ______ ____
ROOT
ATOM      1  N   LIG    1        2.604   1.120   0.973  0.00  0.00    -0.670 N 
ATOM      2  H   LIG    1        2.525   0.177   0.761  0.00  0.00    +0.410 HD
ATOM      3  C   LIG    1        3.769   1.763   0.757  0.00  0.00    +0.570 C 
ATOM      4  O   LIG    1        3.897   2.923   1.102  0.00  0.00    -0.490 OA
ENDROOT
BRANCH   1   8
ATOM      5  C   LIG    1       -0.652   3.184   2.547  0.00  0.00    -0.150 A 
ATOM      6  C   LIG    1       -0.853   2.182   1.593  0.00  0.00    +0.100 A 
ATOM      7  C   LIG    1        0.226   1.498   1.079  0.00  0.00    -0.020 A 
ATOM      8  C   LIG    1        1.515   1.811   1.500  0.00  0.00    +0.190 A 
ATOM      9  C   LIG    1        1.718   2.811   2.446  0.00  0.00    +0.020 A 
ATOM     10  C   LIG    1        0.644   3.495   2.968  0.00  0.00    +0.110 A 
BRANCH   5  11
ATOM     11  C   LIG    1       -1.805   3.915   3.104  0.00  0.00    +0.510 C 
ATOM     12  O   LIG    1       -1.629   4.789   3.930  0.00  0.00    -0.510 OA
BRANCH  11  13
ATOM     13  O   LIG    1       -3.054   3.614   2.698  0.00  0.00    -0.350 OA
BRANCH  13  14
ATOM     14  C   LIG    1       -4.141   4.374   3.289  0.00  0.00    +0.210 C 
BRANCH  14  15
ATOM     15  C   LIG    1       -5.473   3.895   2.708  0.00  0.00    +0.030 C 
BRANCH  15  17
ATOM     16  C   LIG    1       -7.950   4.216   2.751  0.00  0.00    +0.030 C 
ATOM     17  C   LIG    1       -6.618   4.696   3.331  0.00  0.00    +0.020 C 
ENDBRANCH  15  17
ENDBRANCH  14  15
ENDBRANCH  13  14
ENDBRANCH  11  13
ENDBRANCH   5  11
ENDBRANCH   1   8
BRANCH   3  18
ATOM     18  C   LIG    1        4.885   1.063   0.104  0.00  0.00    -0.170 C 
ATOM     19  C   LIG    1        6.018   1.760  -0.259  0.00  0.00    +0.260 C 
BRANCH  19  20
ATOM     20  C   LIG    1        6.011   3.223  -0.251  0.00  0.00    -0.180 A 
ATOM     21  C   LIG    1        4.905   3.925  -0.755  0.00  0.00    +0.130 A 
ATOM     22  C   LIG    1        4.901   5.290  -0.740  0.00  0.00    -0.090 A 
ATOM     23  C   LIG    1        5.997   5.987  -0.237  0.00  0.00    +0.260 A 
ATOM     24  C   LIG    1        7.101   5.295   0.260  0.00  0.00    -0.090 A 
ATOM     25  C   LIG    1        7.112   3.930   0.255  0.00  0.00    +0.100 A 
BRANCH  23  26
ATOM     26  N   LIG    1        5.990   7.376  -0.230  0.00  0.00    -0.620 N 
BRANCH  26  27
ATOM     27  C   LIG    1        7.142   8.111   0.299  0.00  0.00    +0.270 C 
ATOM     28  C   LIG    1        8.139   8.377  -0.830  0.00  0.00    +0.020 C 
ENDBRANCH  26  27
BRANCH  26  29
ATOM     29  C   LIG    1        4.832   8.105  -0.751  0.00  0.00    +0.270 C 
ATOM     30  C   LIG    1        3.831   8.349   0.380  0.00  0.00    +0.020 C 
ENDBRANCH  26  29
ENDBRANCH  23  26
ENDBRANCH  19  20
BRANCH  18  31
ATOM     31  C   LIG    1        4.795  -0.342  -0.154  0.00  0.00    +0.250 C 
ATOM     32  N   LIG    1        4.724  -1.457  -0.360  0.00  0.00    -0.410 NA
ENDBRANCH  18  31
ENDBRANCH   3  18
TORSDOF 12
