REMARK  Name = ZINCpe000000Wgxk.0
REMARK                            x       y       z     vdW  Elec       q    Type
REMARK                         _______ _______ _______ _____ _____    ______ ____
ROOT
ATOM      1  C   LIG    1       -1.194   2.089   0.019  0.00  0.00    +0.560 C 
ATOM      2  N   LIG    1       -0.143   1.391   0.493  0.00  0.00    -0.600 N 
ATOM      3  C   LIG    1       -0.210  -0.088   0.567  0.00  0.00    +0.290 C 
ATOM      4  C   LIG    1        0.553  -0.690  -0.537  0.00  0.00    -0.000 C 
ATOM      5  C   LIG    1        2.027  -0.251  -0.521  0.00  0.00    +0.300 C 
ATOM      6  N   LIG    1        2.100   1.072  -1.071  0.00  0.00    -0.990 NA
ATOM      7  C   LIG    1        2.061   2.289  -0.214  0.00  0.00    +0.270 C 
ATOM      8  C   LIG    1        1.038   2.080   0.930  0.00  0.00    +0.270 C 
ATOM      9  O   LIG    1       -2.123   1.508  -0.507  0.00  0.00    -0.520 OA
ENDROOT
BRANCH   1  12
ATOM     10  C   LIG    1       -2.453   5.612   0.365  0.00  0.00    +0.150 A 
ATOM     11  C   LIG    1       -2.435   4.234   0.253  0.00  0.00    -0.030 A 
ATOM     12  C   LIG    1       -1.217   3.560   0.139  0.00  0.00    -0.060 A 
ATOM     13  C   LIG    1       -0.019   4.281   0.143  0.00  0.00    -0.070 A 
ATOM     14  C   LIG    1       -0.044   5.659   0.249  0.00  0.00    +0.140 A 
ATOM     15  C   LIG    1       -1.259   6.328   0.363  0.00  0.00    +0.050 A 
BRANCH  10  17
ATOM     16  C   LIG    1       -4.825   5.472   0.471  0.00  0.00    +0.250 C 
ATOM     17  O   LIG    1       -3.639   6.269   0.477  0.00  0.00    -0.300 OA
ENDBRANCH  10  17
BRANCH  14  18
ATOM     18  O   LIG    1        1.121   6.361   0.247  0.00  0.00    -0.300 OA
ATOM     19  C   LIG    1        2.331   5.610   0.126  0.00  0.00    +0.240 C 
ENDBRANCH  14  18
BRANCH  15  20
ATOM     20  O   LIG    1       -1.280   7.682   0.473  0.00  0.00    -0.310 OA
ATOM     21  C   LIG    1       -1.227   8.227   1.793  0.00  0.00    +0.240 C 
ENDBRANCH  15  20
ENDBRANCH   1  12
BRANCH   6  22
ATOM     22  S   LIG    1        2.231   1.252  -2.712  0.00  0.00    +2.600 S 
ATOM     23  O   LIG    1        1.673   2.533  -2.970  0.00  0.00    -0.950 OA
ATOM     24  O   LIG    1        1.638   0.075  -3.242  0.00  0.00    -0.940 OA
ATOM     25  C   LIG    1        4.018   1.261  -3.025  0.00  0.00    -0.280 C 
ENDBRANCH   6  22
TORSDOF 5
