REMARK  Name = ZINCtV00001bB3kH.0
REMARK                            x       y       z     vdW  Elec       q    Type
REMARK                         _______ _______ _______ _____ _____    ______ ____
ROOT
ATOM      1  N   LIG    1        0.025   1.419  -1.251  0.00  0.00    -0.450 NA
ATOM      2  C   LIG    1        1.314   1.213  -1.114  0.00  0.00    +0.400 C 
ATOM      3  S   LIG    1        2.186  -0.216  -1.679  0.00  0.00    -0.120 S 
ATOM      4  C   LIG    1        3.828   0.314  -1.099  0.00  0.00    +0.130 C 
ATOM      5  C   LIG    1        3.581   1.679  -0.449  0.00  0.00    +0.290 C 
ATOM      6  N   LIG    1        2.190   2.067  -0.512  0.00  0.00    -0.540 N 
ATOM      7  C   LIG    1        1.772   3.238   0.007  0.00  0.00    +0.520 C 
ATOM      8  O   LIG    1        0.612   3.574  -0.110  0.00  0.00    -0.440 OA
ENDROOT
BRANCH   1  16
ATOM      9  C   LIG    1       -1.763   2.127  -3.343  0.00  0.00    +0.110 C 
ATOM     10  C   LIG    1       -1.672   0.726  -2.795  0.00  0.00    -0.060 A 
ATOM     11  C   LIG    1       -2.471  -0.274  -3.313  0.00  0.00    -0.030 A 
ATOM     12  C   LIG    1       -2.393  -1.560  -2.806  0.00  0.00    +0.030 A 
ATOM     13  C   LIG    1       -1.510  -1.854  -1.783  0.00  0.00    +0.050 A 
ATOM     14  C   LIG    1       -0.701  -0.866  -1.260  0.00  0.00    -0.010 A 
ATOM     15 CL   LIG    1       -3.583   0.085  -4.598  0.00  0.00    -0.060 Cl
ATOM     16  C   LIG    1       -0.775   0.434  -1.766  0.00  0.00    +0.110 A 
ENDBRANCH   1  16
BRANCH   7  17
ATOM     17  C   LIG    1        2.744   4.131   0.734  0.00  0.00    +0.090 C 
BRANCH  17  18
ATOM     18  C   LIG    1        3.170   3.469   2.019  0.00  0.00    -0.080 A 
ATOM     19  C   LIG    1        2.228   2.869   2.833  0.00  0.00    +0.010 A 
ATOM     20  C   LIG    1        2.619   2.258   4.010  0.00  0.00    +0.020 A 
ATOM     21  C   LIG    1        3.952   2.254   4.377  0.00  0.00    +0.020 A 
ATOM     22  C   LIG    1        4.894   2.858   3.565  0.00  0.00    +0.020 A 
ATOM     23  C   LIG    1        4.503   3.466   2.387  0.00  0.00    +0.020 A 
ENDBRANCH  17  18
BRANCH  17  24
ATOM     24  C   LIG    1        2.082   5.449   1.044  0.00  0.00    -0.070 A 
ATOM     25  C   LIG    1        1.008   5.495   1.912  0.00  0.00    +0.040 A 
ATOM     26  C   LIG    1        0.403   6.705   2.199  0.00  0.00    +0.000 A 
ATOM     27  C   LIG    1        0.867   7.866   1.611  0.00  0.00    +0.010 A 
ATOM     28  C   LIG    1        1.939   7.819   0.739  0.00  0.00    +0.000 A 
ATOM     29  C   LIG    1        2.546   6.610   0.455  0.00  0.00    +0.010 A 
ENDBRANCH  17  24
ENDBRANCH   7  17
TORSDOF 4
