REMARK  Name = ZINCpe00000gN06n.0
REMARK                            x       y       z     vdW  Elec       q    Type
REMARK                         _______ _______ _______ _____ _____    ______ ____
ROOT
ATOM      1  N   LIG    1       -2.392   0.933   0.019  0.00  0.00    -0.610 N 
ATOM      2  C   LIG    1       -2.394  -0.531  -0.105  0.00  0.00    +0.270 C 
ATOM      3  C   LIG    1       -3.311  -0.931  -1.259  0.00  0.00    +0.020 C 
ATOM      4  C   LIG    1       -4.696  -0.316  -1.044  0.00  0.00    +0.020 C 
ATOM      5  C   LIG    1       -4.581   1.210  -1.023  0.00  0.00    +0.240 C 
ATOM      6  C   LIG    1       -3.678   1.634   0.139  0.00  0.00    +0.300 C 
ENDROOT
BRANCH   1  11
ATOM      7  C   LIG    1        2.424   3.731  -0.041  0.00  0.00    +0.330 C 
ATOM      8  N   LIG    1        1.151   3.005  -0.013  0.00  0.00    -0.560 N 
ATOM      9  C   LIG    1        0.125   3.484   0.716  0.00  0.00    +0.560 A 
ATOM     10  C   LIG    1       -1.093   2.786   0.741  0.00  0.00    -0.210 A 
ATOM     11  C   LIG    1       -1.212   1.633   0.017  0.00  0.00    +0.470 A 
ATOM     12  N   LIG    1       -0.138   1.178  -0.709  0.00  0.00    -0.650 N 
ATOM     13  H   LIG    1       -0.215   0.358  -1.222  0.00  0.00    +0.430 HD
ATOM     14  O   LIG    1        0.252   4.517   1.351  0.00  0.00    -0.530 OA
ATOM     15  C   LIG    1        1.018   1.866  -0.717  0.00  0.00    +0.710 A 
ATOM     16  O   LIG    1        1.958   1.451  -1.368  0.00  0.00    -0.540 OA
ENDBRANCH   1  11
BRANCH   5  17
ATOM     17  N   LIG    1       -5.911   1.798  -0.849  0.00  0.00    -0.700 N 
ATOM     18  H   LIG    1       -6.222   2.039   0.037  0.00  0.00    +0.410 HD
BRANCH  17  19
ATOM     19  C   LIG    1       -6.724   2.011  -1.950  0.00  0.00    +0.480 A 
ATOM     20  N   LIG    1       -6.305   1.685  -3.157  0.00  0.00    -0.570 NA
ATOM     21  C   LIG    1       -7.075   1.881  -4.236  0.00  0.00    +0.260 A 
ATOM     22  C   LIG    1       -8.303   2.417  -4.137  0.00  0.00    +0.090 A 
ATOM     23  N   LIG    1       -8.799   2.779  -2.902  0.00  0.00    -0.320 N 
ATOM     24  C   LIG    1       -9.973   3.328  -2.504  0.00  0.00    +0.150 A 
ATOM     25  C   LIG    1       -9.958   3.469  -1.154  0.00  0.00    -0.010 A 
ATOM     26  C   LIG    1       -8.726   3.005  -0.686  0.00  0.00    -0.010 A 
ATOM     27  C   LIG    1       -8.012   2.574  -1.787  0.00  0.00    -0.050 A 
ENDBRANCH  17  19
ENDBRANCH   5  17
TORSDOF 3
