REMARK  Name = ZINCrD000000ASbz.0
REMARK                            x       y       z     vdW  Elec       q    Type
REMARK                         _______ _______ _______ _____ _____    ______ ____
ROOT
ATOM      1  C   LIG    1        4.224   0.818   2.418  0.00  0.00    +0.050 A 
ATOM      2  N   LIG    1        3.655  -0.037   3.233  0.00  0.00    -0.190 NA
ATOM      3  N   LIG    1        4.246  -0.589   4.225  0.00  0.00    -0.360 N 
ATOM      4  C   LIG    1        5.533  -0.352   4.551  0.00  0.00    +0.520 A 
ATOM      5  C   LIG    1        6.303   0.589   3.725  0.00  0.00    -0.140 A 
ATOM      6  C   LIG    1        7.635   0.900   3.977  0.00  0.00    +0.090 A 
ATOM      7  C   LIG    1        8.292   1.782   3.143  0.00  0.00    +0.020 A 
ATOM      8  C   LIG    1        7.634   2.369   2.071  0.00  0.00    +0.050 A 
ATOM      9  C   LIG    1        6.311   2.077   1.808  0.00  0.00    +0.070 A 
ATOM     10  O   LIG    1        6.046  -0.905   5.507  0.00  0.00    -0.500 OA
ATOM     11  C   LIG    1        5.634   1.183   2.630  0.00  0.00    -0.030 A 
ENDROOT
BRANCH   1  13
ATOM     12  O   LIG    1        3.994   2.196   0.547  0.00  0.00    -0.520 OA
ATOM     13  C   LIG    1        3.460   1.403   1.298  0.00  0.00    +0.600 C 
ATOM     14  N   LIG    1        2.171   1.059   1.109  0.00  0.00    -0.710 N 
ATOM     15  H   LIG    1        1.745   0.426   1.708  0.00  0.00    +0.410 HD
BRANCH  14  16
ATOM     16  C   LIG    1        1.414   1.639  -0.003  0.00  0.00    +0.260 C 
BRANCH  16  17
ATOM     17  C   LIG    1       -0.013   1.086   0.008  0.00  0.00    -0.030 C 
ATOM     18  C   LIG    1       -0.789   1.611   1.242  0.00  0.00    +0.020 C 
ATOM     19  C   LIG    1       -2.268   1.485   0.789  0.00  0.00    +0.010 C 
ATOM     20  C   LIG    1       -2.243   1.875  -0.703  0.00  0.00    -0.010 C 
ATOM     21  C   LIG    1       -0.809   1.622  -1.200  0.00  0.00    +0.020 C 
ENDBRANCH  16  17
ENDBRANCH  14  16
ENDBRANCH   1  13
BRANCH   3  22
ATOM     22  C   LIG    1        3.483  -1.527   5.051  0.00  0.00    +0.370 C 
BRANCH  22  23
ATOM     23  C   LIG    1        2.812  -0.778   6.174  0.00  0.00    -0.120 A 
ATOM     24  C   LIG    1        3.464  -0.613   7.381  0.00  0.00    +0.040 A 
ATOM     25  C   LIG    1        2.850   0.079   8.409  0.00  0.00    +0.010 A 
ATOM     26  C   LIG    1        1.580   0.596   8.233  0.00  0.00    +0.010 A 
ATOM     27  C   LIG    1        0.926   0.426   7.027  0.00  0.00    +0.000 A 
ATOM     28  C   LIG    1        1.542  -0.261   5.997  0.00  0.00    +0.040 A 
ENDBRANCH  22  23
ENDBRANCH   3  22
TORSDOF 5
