REMARK  Name = ZINCnE000001TxT4.0
REMARK                            x       y       z     vdW  Elec       q    Type
REMARK                         _______ _______ _______ _____ _____    ______ ____
ROOT
ATOM      1  C   LIG    1       -0.073   5.559   0.033  0.00  0.00    +0.530 C 
ATOM      2  N   LIG    1       -1.250   6.217   0.047  0.00  0.00    -0.730 N 
ATOM      3  H   LIG    1       -2.083   5.721   0.053  0.00  0.00    +0.400 HD
ATOM      4  O   LIG    1        0.969   6.180   0.026  0.00  0.00    -0.540 OA
ENDROOT
BRANCH   1   8
ATOM      5  C   LIG    1       -0.018   1.503   0.010  0.00  0.00    -0.120 C 
ATOM      6  C   LIG    1       -0.758   2.010  -1.229  0.00  0.00    +0.030 C 
ATOM      7  C   LIG    1       -0.779   3.539  -1.221  0.00  0.00    +0.020 C 
ATOM      8  C   LIG    1       -0.053   4.053   0.024  0.00  0.00    -0.070 C 
ATOM      9  C   LIG    1       -0.755   3.526   1.278  0.00  0.00    +0.020 C 
ATOM     10  C   LIG    1        1.396   3.562   0.008  0.00  0.00    +0.030 C 
ATOM     11  C   LIG    1       -0.735   1.996   1.269  0.00  0.00    +0.040 C 
ATOM     12  C   LIG    1        1.417   2.032  -0.001  0.00  0.00    +0.030 C 
BRANCH   5  14
ATOM     13  O   LIG    1       -0.899  -0.629   0.535  0.00  0.00    -0.700 OA
ATOM     14  C   LIG    1        0.002  -0.004   0.002  0.00  0.00    +0.500 C 
ATOM     15  O   LIG    1        0.920  -0.598  -0.538  0.00  0.00    -0.700 OA
ENDBRANCH   5  14
ENDBRANCH   1   8
BRANCH   2  16
ATOM     16  C   LIG    1       -1.269   7.682   0.055  0.00  0.00    +0.250 C 
BRANCH  16  17
ATOM     17  C   LIG    1       -2.719   8.172   0.072  0.00  0.00    +0.180 C 
ATOM     18  F   LIG    1       -3.383   7.703  -1.067  0.00  0.00    -0.200 F 
BRANCH  17  19
ATOM     19  C   LIG    1       -2.739   9.702   0.080  0.00  0.00    -0.020 C 
ATOM     20  C   LIG    1       -4.182  10.192   0.223  0.00  0.00    +0.010 C 
ATOM     21  C   LIG    1       -4.203  11.722   0.231  0.00  0.00    +0.000 C 
ATOM     22  C   LIG    1       -3.612  12.247  -1.079  0.00  0.00    +0.000 C 
ATOM     23  C   LIG    1       -2.170  11.757  -1.222  0.00  0.00    +0.000 C 
ATOM     24  C   LIG    1       -2.149  10.227  -1.230  0.00  0.00    +0.020 C 
ENDBRANCH  17  19
ENDBRANCH  16  17
ENDBRANCH   2  16
TORSDOF 5
