REMARK  Name = ZINCpk00000KfLvn.0
REMARK                            x       y       z     vdW  Elec       q    Type
REMARK                         _______ _______ _______ _____ _____    ______ ____
ROOT
ATOM      1  C   LIG    1        1.202   6.277  -1.563  0.00  0.00    +0.140 C 
ATOM      2  C   LIG    1        2.451   7.155  -1.687  0.00  0.00    +0.180 C 
ATOM      3  N   LIG    1        2.756   7.365  -3.110  0.00  0.00    -0.530 NA
ATOM      4  C   LIG    1        2.973   6.081  -3.791  0.00  0.00    +0.150 C 
ATOM      5  C   LIG    1        1.720   5.214  -3.646  0.00  0.00    +0.230 C 
ATOM      6  O   LIG    1        1.421   5.046  -2.257  0.00  0.00    -0.370 OA
ENDROOT
BRANCH   1   7
ATOM      7  C   LIG    1        0.926   5.989  -0.086  0.00  0.00    +0.320 C 
BRANCH   7   8
ATOM      8  N   LIG    1       -0.269   5.149   0.032  0.00  0.00    -0.590 N 
BRANCH   8   9
ATOM      9  C   LIG    1       -0.148   3.763   0.024  0.00  0.00    +0.350 A 
ATOM     10  C   LIG    1        1.114   3.170   0.008  0.00  0.00    -0.020 A 
ATOM     11  C   LIG    1        1.180   1.786   0.000  0.00  0.00    +0.070 A 
ATOM     12  C   LIG    1       -0.013   1.076   0.008  0.00  0.00    +0.150 A 
ATOM     13  N   LIG    1       -1.163   1.719   0.017  0.00  0.00    -0.210 NA
ATOM     14  N   LIG    1       -1.232   3.001   0.030  0.00  0.00    -0.310 NA
ENDBRANCH   8   9
BRANCH   8  16
ATOM     15  C   LIG    1       -1.911   5.987   1.638  0.00  0.00    +0.010 C 
ATOM     16  C   LIG    1       -1.590   5.768   0.158  0.00  0.00    +0.280 C 
ENDBRANCH   8  16
ENDBRANCH   7   8
ENDBRANCH   1   7
BRANCH   3  17
ATOM     17  C   LIG    1        3.916   8.251  -3.274  0.00  0.00    +0.360 C 
BRANCH  17  18
ATOM     18  C   LIG    1        4.050   8.640  -4.724  0.00  0.00    +0.180 A 
ATOM     19  N   LIG    1        3.504   9.680  -5.307  0.00  0.00    -0.460 NA
ATOM     20  C   LIG    1        3.896   9.622  -6.592  0.00  0.00    +0.200 A 
ATOM     21  N   LIG    1        4.647   8.570  -6.722  0.00  0.00    -0.380 NA
ATOM     22  O   LIG    1        4.753   7.995  -5.659  0.00  0.00    +0.080 OA
BRANCH  20  23
ATOM     23  C   LIG    1        3.531  10.598  -7.681  0.00  0.00    +0.060 C 
ATOM     24  C   LIG    1        3.921  10.234  -9.115  0.00  0.00    +0.050 C 
ATOM     25  C   LIG    1        4.674  11.341  -8.375  0.00  0.00    +0.060 C 
ENDBRANCH  20  23
ENDBRANCH  17  18
ENDBRANCH   3  17
TORSDOF 7
