REMARK  Name = ZINCrg00000zU4jb.0
REMARK                            x       y       z     vdW  Elec       q    Type
REMARK                         _______ _______ _______ _____ _____    ______ ____
ROOT
ATOM      1  C   LIG    1       -4.292   5.719  -2.095  0.00  0.00    +0.050 C 
ATOM      2  C   LIG    1       -4.056   5.641  -0.586  0.00  0.00    +0.350 C 
ENDROOT
BRANCH   2   3
ATOM      3  C   LIG    1       -4.054   7.032  -0.005  0.00  0.00    -0.050 A 
ATOM      4  C   LIG    1       -5.149   7.726   0.370  0.00  0.00    +0.290 A 
ATOM      5  N   LIG    1       -4.710   8.928   0.841  0.00  0.00    -0.320 N 
ATOM      6  N   LIG    1       -3.312   8.912   0.718  0.00  0.00    -0.010 NA
ATOM      7  N   LIG    1       -2.970   7.777   0.215  0.00  0.00    -0.210 NA
BRANCH   5   8
ATOM      8  C   LIG    1       -5.496   9.969   1.341  0.00  0.00    +0.540 A 
ATOM      9  N   LIG    1       -6.810   9.822   1.383  0.00  0.00    -0.500 NA
ATOM     10  C   LIG    1       -7.584  10.785   1.855  0.00  0.00    +0.360 A 
ATOM     11  C   LIG    1       -7.001  11.964   2.299  0.00  0.00    -0.000 A 
ATOM     12  C   LIG    1       -5.620  12.085   2.234  0.00  0.00    +0.360 A 
ATOM     13  F   LIG    1       -7.761  12.972   2.782  0.00  0.00    -0.110 F 
ATOM     14  N   LIG    1       -4.907  11.079   1.755  0.00  0.00    -0.480 NA
ENDBRANCH   5   8
ENDBRANCH   2   3
BRANCH   2  15
ATOM     15  N   LIG    1       -2.764   5.002  -0.326  0.00  0.00    -0.710 N 
ATOM     16  H   LIG    1       -1.972   5.545  -0.188  0.00  0.00    +0.410 HD
ATOM     17  C   LIG    1       -2.675   3.658  -0.279  0.00  0.00    +0.550 C 
ATOM     18  O   LIG    1       -3.666   2.976  -0.452  0.00  0.00    -0.510 OA
BRANCH  17  19
ATOM     19  C   LIG    1       -1.371   3.012  -0.016  0.00  0.00    -0.050 A 
ATOM     20  C   LIG    1       -0.211   3.784   0.071  0.00  0.00    +0.040 A 
ATOM     21  C   LIG    1        1.002   3.176   0.316  0.00  0.00    +0.070 A 
ATOM     22  C   LIG    1        1.072   1.803   0.476  0.00  0.00    +0.030 A 
ATOM     23  C   LIG    1       -0.074   1.032   0.391  0.00  0.00    +0.120 A 
ATOM     24  C   LIG    1       -1.293   1.627   0.141  0.00  0.00    -0.610 A 
BRANCH  24  25
ATOM     25  S   LIG    1       -2.749   0.642   0.026  0.00  0.00    +2.510 S 
ATOM     26  O   LIG    1       -3.678   1.288   0.886  0.00  0.00    -0.910 OA
ATOM     27  O   LIG    1       -2.301  -0.679   0.292  0.00  0.00    -0.950 OA
ATOM     28  C   LIG    1       -3.268   0.802  -1.705  0.00  0.00    -0.250 C 
ENDBRANCH  24  25
ENDBRANCH  17  19
ENDBRANCH   2  15
TORSDOF 5
