REMARK  Name = ZINCtj00000mhmXh.0
REMARK                            x       y       z     vdW  Elec       q    Type
REMARK                         _______ _______ _______ _____ _____    ______ ____
ROOT
ATOM      1  N   LIG    1       -2.451   6.214  -0.260  0.00  0.00    -0.500 N 
ATOM      2  H   LIG    1       -2.555   7.134   0.141  0.00  0.00    +0.430 HD
ATOM      3  H   LIG    1       -2.240   5.550   0.469  0.00  0.00    +0.430 HD
ENDROOT
BRANCH   1   4
ATOM      4  C   LIG    1       -3.701   5.827  -0.928  0.00  0.00    +0.310 C 
BRANCH   4   5
ATOM      5  C   LIG    1       -4.841   5.812   0.092  0.00  0.00    -0.380 C 
BRANCH   5   6
ATOM      6  S   LIG    1       -6.385   5.335  -0.732  0.00  0.00    +2.620 S 
ATOM      7  O   LIG    1       -6.333   3.974  -1.138  0.00  0.00    -0.920 OA
ATOM      8  O   LIG    1       -6.806   6.352  -1.631  0.00  0.00    -0.920 OA
BRANCH   6  12
ATOM      9  C   LIG    1       -9.133   7.998   2.650  0.00  0.00    +0.070 C 
ATOM     10  C   LIG    1       -8.197   6.846   2.280  0.00  0.00    +0.130 C 
ATOM     11  C   LIG    1       -8.282   6.582   0.772  0.00  0.00    +0.280 C 
ATOM     12  N   LIG    1       -7.521   5.358   0.472  0.00  0.00    -0.990 NA
ATOM     13  C   LIG    1       -7.804   4.155   1.270  0.00  0.00    +0.280 C 
ATOM     14  C   LIG    1       -7.739   4.539   2.757  0.00  0.00    +0.190 C 
ATOM     15  C   LIG    1       -6.299   4.896   3.134  0.00  0.00    +0.010 C 
ATOM     16  O   LIG    1       -8.586   5.667   2.988  0.00  0.00    -0.360 OA
ENDBRANCH   6  12
ENDBRANCH   5   6
ENDBRANCH   4   5
ENDBRANCH   1   4
BRANCH   1  17
ATOM     17  C   LIG    1       -1.357   6.229  -1.240  0.00  0.00    +0.360 C 
BRANCH  17  18
ATOM     18  C   LIG    1       -0.055   6.506  -0.535  0.00  0.00    -0.310 A 
ATOM     19  C   LIG    1        0.909   5.601  -0.257  0.00  0.00    +0.330 A 
ATOM     20  N   LIG    1        1.912   6.242   0.380  0.00  0.00    -0.450 N 
ATOM     21  H   LIG    1        2.735   5.838   0.697  0.00  0.00    +0.460 HD
ATOM     22  N   LIG    1        1.562   7.593   0.497  0.00  0.00    -0.250 NA
ATOM     23  C   LIG    1        0.375   7.756  -0.048  0.00  0.00    +0.150 A 
BRANCH  23  24
ATOM     24  C   LIG    1       -0.376   9.033  -0.139  0.00  0.00    -0.040 A 
ATOM     25  C   LIG    1       -1.030   9.376  -1.320  0.00  0.00    +0.040 A 
ATOM     26  C   LIG    1       -1.732  10.562  -1.402  0.00  0.00    +0.050 A 
ATOM     27  C   LIG    1       -1.782  11.419  -0.314  0.00  0.00    +0.060 A 
ATOM     28  O   LIG    1       -2.394  12.627  -0.144  0.00  0.00    -0.300 OA
ATOM     29  C   LIG    1       -1.771  13.214   1.014  0.00  0.00    +0.450 C 
ATOM     30  O   LIG    1       -1.334  12.077   1.782  0.00  0.00    -0.300 OA
ATOM     31  C   LIG    1       -1.130  11.081   0.871  0.00  0.00    +0.040 A 
ATOM     32  C   LIG    1       -0.429   9.891   0.958  0.00  0.00    +0.070 A 
ENDBRANCH  23  24
ENDBRANCH  17  18
ENDBRANCH   1  17
TORSDOF 7
