REMARK  Name = ZINCrD000007437n.0
REMARK                            x       y       z     vdW  Elec       q    Type
REMARK                         _______ _______ _______ _____ _____    ______ ____
ROOT
ATOM      1  C   LIG    1       -1.187   1.624   0.017  0.00  0.00    +0.590 C 
ATOM      2  N   LIG    1       -0.011   0.966   0.007  0.00  0.00    -0.710 N 
ATOM      3  H   LIG    1        0.002  -0.004   0.002  0.00  0.00    +0.390 HD
ATOM      4  O   LIG    1       -1.204   2.840   0.023  0.00  0.00    -0.510 OA
ENDROOT
BRANCH   1  11
ATOM      5  C   LIG    1       -6.711  -0.514  -0.993  0.00  0.00    +0.070 C 
ATOM      6  C   LIG    1       -6.086   0.439   0.028  0.00  0.00    +0.260 C 
ATOM      7  O   LIG    1       -6.384   1.796  -0.327  0.00  0.00    -0.370 OA
ATOM      8  C   LIG    1       -5.692   2.783   0.441  0.00  0.00    +0.150 C 
ATOM      9  C   LIG    1       -4.208   2.810   0.041  0.00  0.00    +0.110 C 
ATOM     10  C   LIG    1       -3.719   1.387   0.027  0.00  0.00    -0.110 A 
ATOM     11  C   LIG    1       -2.452   0.871   0.018  0.00  0.00    -0.030 A 
ATOM     12  N   LIG    1       -2.602  -0.492   0.006  0.00  0.00    -0.390 N 
ATOM     13  H   LIG    1       -1.874  -1.134  -0.007  0.00  0.00    +0.440 HD
ATOM     14  N   LIG    1       -3.856  -0.792   0.016  0.00  0.00    -0.240 NA
ATOM     15  C   LIG    1       -6.313   4.157   0.178  0.00  0.00    +0.070 C 
ATOM     16  C   LIG    1       -4.585   0.282   0.024  0.00  0.00    -0.000 A 
ENDBRANCH   1  11
BRANCH   2  17
ATOM     17  C   LIG    1        1.248   1.716  -0.001  0.00  0.00    +0.340 C 
BRANCH  17  18
ATOM     18  C   LIG    1        2.406   0.752  -0.017  0.00  0.00    -0.090 A 
ATOM     19  C   LIG    1        3.082   0.463   1.152  0.00  0.00    +0.040 A 
ATOM     20  C   LIG    1        4.145  -0.421   1.138  0.00  0.00    +0.010 A 
ATOM     21  C   LIG    1        4.535  -1.019  -0.046  0.00  0.00    +0.020 A 
ATOM     22  C   LIG    1        3.864  -0.735  -1.219  0.00  0.00    -0.030 A 
ATOM     23  C   LIG    1        2.792   0.149  -1.207  0.00  0.00    +0.110 A 
BRANCH  23  24
ATOM     24  N   LIG    1        2.108   0.434  -2.391  0.00  0.00    -0.500 N 
ATOM     25  C   LIG    1        1.436  -0.763  -2.912  0.00  0.00    +0.170 C 
ATOM     26  C   LIG    1        0.581  -0.383  -4.123  0.00  0.00    +0.020 C 
ATOM     27  C   LIG    1        1.477   0.233  -5.202  0.00  0.00    +0.010 C 
ATOM     28  C   LIG    1        2.202   1.449  -4.619  0.00  0.00    +0.020 C 
ATOM     29  C   LIG    1        3.010   1.016  -3.393  0.00  0.00    +0.180 C 
ENDBRANCH  23  24
ENDBRANCH  17  18
ENDBRANCH   2  17
TORSDOF 4
