REMARK  Name = ZINCpe00000gN08b.0
REMARK                            x       y       z     vdW  Elec       q    Type
REMARK                         _______ _______ _______ _____ _____    ______ ____
ROOT
ATOM      1  C   LIG    1        6.494   0.988   1.067  0.00  0.00    +0.610 C 
ATOM      2  N   LIG    1        5.617   1.973   0.792  0.00  0.00    -0.630 N 
ATOM      3  C   LIG    1        5.731   3.429   0.579  0.00  0.00    +0.280 C 
ATOM      4  C   LIG    1        4.257   3.502   1.018  0.00  0.00    -0.080 C 
ATOM      5  C   LIG    1        4.070   3.713   2.522  0.00  0.00    +0.070 C 
ATOM      6  C   LIG    1        3.409   4.455   0.173  0.00  0.00    +0.050 C 
ATOM      7  C   LIG    1        4.157   2.030   0.582  0.00  0.00    +0.340 C 
ATOM      8  O   LIG    1        6.093  -0.139   1.292  0.00  0.00    -0.480 OA
ENDROOT
BRANCH   1  15
ATOM      9  C   LIG    1       11.198  -0.421   1.991  0.00  0.00    +0.350 C 
ATOM     10  N   LIG    1       10.213   0.571   1.552  0.00  0.00    -0.550 N 
ATOM     11  C   LIG    1       10.623   1.790   1.159  0.00  0.00    +0.690 A 
ATOM     12  N   LIG    1        9.763   2.734   0.748  0.00  0.00    -0.630 N 
ATOM     13  H   LIG    1       10.104   3.599   0.474  0.00  0.00    +0.440 HD
ATOM     14  C   LIG    1        8.425   2.504   0.702  0.00  0.00    +0.390 A 
ATOM     15  C   LIG    1        7.936   1.274   1.097  0.00  0.00    -0.290 A 
ATOM     16  O   LIG    1       11.812   2.044   1.177  0.00  0.00    -0.530 OA
ATOM     17  C   LIG    1        8.901   0.256   1.544  0.00  0.00    +0.560 A 
ATOM     18  O   LIG    1        8.524  -0.845   1.899  0.00  0.00    -0.460 OA
ENDBRANCH   1  15
BRANCH   7  19
ATOM     19  C   LIG    1        3.373   1.165   1.534  0.00  0.00    +0.200 A 
ATOM     20  N   LIG    1        3.792   0.735   2.692  0.00  0.00    -0.450 NA
ATOM     21  C   LIG    1        2.831  -0.006   3.264  0.00  0.00    +0.150 A 
ATOM     22  C   LIG    1        1.773  -0.031   2.430  0.00  0.00    +0.110 A 
ATOM     23  N   LIG    1        2.119   0.707   1.330  0.00  0.00    -0.420 N 
BRANCH  23  24
ATOM     24  C   LIG    1        1.282   0.958   0.154  0.00  0.00    +0.190 C 
ATOM     25  C   LIG    1       -0.054   1.670   0.377  0.00  0.00    +0.040 C 
ATOM     26  C   LIG    1       -0.029   0.178   0.041  0.00  0.00    +0.040 C 
ENDBRANCH  23  24
ENDBRANCH   7  19
TORSDOF 3
