REMARK  Name = ZINCrH000004sgZ2.0
REMARK                            x       y       z     vdW  Elec       q    Type
REMARK                         _______ _______ _______ _____ _____    ______ ____
ROOT
ATOM      1  C   LIG    1       -0.110   4.076  -0.044  0.00  0.00    +0.160 C 
ATOM      2  C   LIG    1       -0.485   4.206  -1.522  0.00  0.00    +0.000 C 
ATOM      3  C   LIG    1       -1.838   4.913  -1.642  0.00  0.00    +0.290 C 
ATOM      4  N   LIG    1       -1.769   6.192  -0.922  0.00  0.00    -0.610 N 
ATOM      5  C   LIG    1       -1.332   6.190   0.481  0.00  0.00    +0.300 C 
ATOM      6  C   LIG    1       -2.100   7.345  -1.536  0.00  0.00    +0.570 C 
ATOM      7  O   LIG    1       -1.936   8.406  -0.966  0.00  0.00    -0.520 OA
ATOM      8  C   LIG    1        0.016   5.469   0.576  0.00  0.00    +0.040 C 
ENDROOT
BRANCH   6   9
ATOM      9  C   LIG    1       -2.660   7.319  -2.901  0.00  0.00    -0.150 A 
ATOM     10  C   LIG    1       -3.777   6.533  -3.182  0.00  0.00    +0.080 A 
ATOM     11  C   LIG    1       -4.307   6.512  -4.455  0.00  0.00    -0.010 A 
ATOM     12  C   LIG    1       -3.719   7.261  -5.462  0.00  0.00    +0.090 A 
ATOM     13  C   LIG    1       -2.611   8.034  -5.197  0.00  0.00    -0.170 A 
ATOM     14  C   LIG    1       -1.764   8.933  -6.077  0.00  0.00    -0.050 C 
ATOM     15  C   LIG    1       -2.466  10.268  -6.331  0.00  0.00    +0.050 C 
ATOM     16  C   LIG    1       -1.418   8.240  -7.396  0.00  0.00    +0.060 C 
ATOM     17  C   LIG    1       -0.499   9.130  -5.208  0.00  0.00    +0.240 C 
ATOM     18  O   LIG    1       -0.993   8.917  -3.875  0.00  0.00    -0.290 OA
ATOM     19  C   LIG    1       -2.064   8.082  -3.922  0.00  0.00    +0.160 A 
ENDBRANCH   6   9
BRANCH   1  20
ATOM     20  O   LIG    1        1.137   3.388   0.072  0.00  0.00    -0.300 OA
BRANCH  20  27
ATOM     21  C   LIG    1        3.613   1.964   0.097  0.00  0.00    +0.110 C 
ATOM     22  C   LIG    1        2.269   1.281   0.070  0.00  0.00    -0.170 A 
ATOM     23  C   LIG    1        2.186  -0.096   0.056  0.00  0.00    +0.290 A 
ATOM     24  N   LIG    1        1.013  -0.702   0.034  0.00  0.00    -0.510 NA
ATOM     25  C   LIG    1       -0.120  -0.026   0.024  0.00  0.00    +0.290 A 
ATOM     26  C   LIG    1       -0.120   1.354   0.036  0.00  0.00    -0.120 A 
ATOM     27  C   LIG    1        1.096   2.031   0.060  0.00  0.00    +0.170 A 
ENDBRANCH  20  27
ENDBRANCH   1  20
TORSDOF 3
