REMARK  Name = ZINCrH000004ph36.0
REMARK                            x       y       z     vdW  Elec       q    Type
REMARK                         _______ _______ _______ _____ _____    ______ ____
ROOT
ATOM      1  N   LIG    1       -3.654  -5.260  -0.686  0.00  0.00    -0.720 N 
ATOM      2  H   LIG    1       -2.881  -5.727  -1.041  0.00  0.00    +0.400 HD
ATOM      3  C   LIG    1       -4.873  -5.475  -1.219  0.00  0.00    +0.550 C 
ATOM      4  O   LIG    1       -5.853  -4.963  -0.719  0.00  0.00    -0.520 OA
ENDROOT
BRANCH   3   5
ATOM      5  C   LIG    1       -5.020  -6.353  -2.436  0.00  0.00    -0.070 C 
ATOM      6  C   LIG    1       -6.482  -6.644  -2.813  0.00  0.00    +0.070 C 
ATOM      7  C   LIG    1       -6.395  -7.865  -1.877  0.00  0.00    +0.030 C 
ATOM      8  C   LIG    1       -4.879  -7.854  -2.134  0.00  0.00    +0.050 C 
BRANCH   5   9
ATOM      9  C   LIG    1       -4.178  -5.889  -3.596  0.00  0.00    -0.040 A 
ATOM     10  C   LIG    1       -4.455  -4.682  -4.212  0.00  0.00    +0.010 A 
ATOM     11  C   LIG    1       -3.683  -4.255  -5.277  0.00  0.00    +0.060 A 
ATOM     12  C   LIG    1       -2.634  -5.034  -5.727  0.00  0.00    -0.010 A 
ATOM     13  C   LIG    1       -2.356  -6.243  -5.111  0.00  0.00    +0.100 A 
ATOM     14  F   LIG    1       -1.331  -7.005  -5.550  0.00  0.00    -0.140 F 
ATOM     15  C   LIG    1       -3.126  -6.667  -4.042  0.00  0.00    -0.010 A 
ENDBRANCH   5   9
ENDBRANCH   3   5
BRANCH   1  17
ATOM     16  C   LIG    1       -3.784  -5.043   1.746  0.00  0.00    +0.040 C 
ATOM     17  C   LIG    1       -3.497  -4.322   0.428  0.00  0.00    +0.290 C 
BRANCH  17  18
ATOM     18  C   LIG    1       -2.086  -3.792   0.442  0.00  0.00    -0.090 A 
ATOM     19  C   LIG    1       -1.853  -2.459   0.727  0.00  0.00    +0.060 A 
ATOM     20  C   LIG    1       -0.562  -1.970   0.742  0.00  0.00    +0.030 A 
ATOM     21  C   LIG    1        0.503  -2.818   0.469  0.00  0.00    +0.150 A 
ATOM     22  C   LIG    1        0.266  -4.154   0.177  0.00  0.00    +0.010 A 
ATOM     23  C   LIG    1       -1.028  -4.639   0.171  0.00  0.00    +0.040 A 
BRANCH  21  24
ATOM     24  N   LIG    1        1.815  -2.324   0.482  0.00  0.00    -0.330 N 
ATOM     25  C   LIG    1        2.943  -3.020   0.239  0.00  0.00    +0.480 A 
ATOM     26  N   LIG    1        3.957  -2.200   0.349  0.00  0.00    -0.530 NA
ATOM     27  C   LIG    1        3.520  -0.980   0.658  0.00  0.00    +0.440 A 
ATOM     28  N   LIG    1        2.216  -1.005   0.751  0.00  0.00    -0.310 NA
ENDBRANCH  21  24
ENDBRANCH  17  18
ENDBRANCH   1  17
TORSDOF 5
