REMARK  Name = ZINCpk00000kHg8k.0
REMARK                            x       y       z     vdW  Elec       q    Type
REMARK                         _______ _______ _______ _____ _____    ______ ____
ROOT
ATOM      1  C   LIG    1       -2.175  -5.075   1.694  0.00  0.00    +0.430 A 
ATOM      2  C   LIG    1       -1.706  -4.081   0.817  0.00  0.00    -0.060 A 
ATOM      3  N   LIG    1       -1.007  -4.087  -0.343  0.00  0.00    -0.450 NA
ATOM      4  C   LIG    1       -0.834  -2.863  -0.751  0.00  0.00    +0.480 A 
ATOM      5  N   LIG    1       -1.414  -1.994   0.125  0.00  0.00    -0.470 N 
ATOM      6  C   LIG    1       -1.971  -2.738   1.134  0.00  0.00    +0.290 A 
ATOM      7  N   LIG    1       -2.659  -2.458   2.237  0.00  0.00    -0.540 NA
ATOM      8  C   LIG    1       -3.078  -3.423   3.029  0.00  0.00    +0.560 A 
ATOM      9  N   LIG    1       -2.849  -4.698   2.775  0.00  0.00    -0.570 NA
ENDROOT
BRANCH   1  10
ATOM     10  N   LIG    1       -1.940  -6.414   1.436  0.00  0.00    -0.460 N 
ATOM     11  C   LIG    1       -2.449  -6.793   0.111  0.00  0.00    +0.260 C 
BRANCH  10  12
ATOM     12  C   LIG    1       -2.521  -7.262   2.486  0.00  0.00    +0.270 C 
BRANCH  12  20
ATOM     13  C   LIG    1        0.103  -8.026   3.422  0.00  0.00    +0.100 C 
ATOM     14  C   LIG    1       -0.786  -9.045   2.757  0.00  0.00    -0.030 A 
ATOM     15  C   LIG    1       -0.345 -10.345   2.596  0.00  0.00    -0.020 A 
ATOM     16  C   LIG    1       -1.162 -11.281   1.986  0.00  0.00    +0.110 A 
ATOM     17  C   LIG    1       -2.420 -10.914   1.537  0.00  0.00    -0.020 A 
ATOM     18  C   LIG    1       -2.860  -9.615   1.704  0.00  0.00    +0.050 A 
ATOM     19  F   LIG    1       -0.733 -12.553   1.827  0.00  0.00    -0.140 F 
ATOM     20  C   LIG    1       -2.042  -8.680   2.309  0.00  0.00    -0.100 A 
ENDBRANCH  12  20
ENDBRANCH  10  12
ENDBRANCH   1  10
BRANCH   5  21
ATOM     21  C   LIG    1       -1.433  -0.534   0.013  0.00  0.00    +0.260 C 
BRANCH  21  22
ATOM     22  C   LIG    1       -2.135  -0.131  -1.286  0.00  0.00    +0.180 C 
BRANCH  22  23
ATOM     23  O   LIG    1       -2.258   1.292  -1.340  0.00  0.00    -0.540 OA
ATOM     24  H   LIG    1       -2.694   1.619  -2.138  0.00  0.00    +0.380 HD
ENDBRANCH  22  23
ENDBRANCH  21  22
BRANCH  21  25
ATOM     25  C   LIG    1        0.002  -0.004   0.002  0.00  0.00    +0.180 C 
BRANCH  25  26
ATOM     26  O   LIG    1       -0.017   1.425   0.010  0.00  0.00    -0.540 OA
ATOM     27  H   LIG    1        0.861   1.830   0.004  0.00  0.00    +0.380 HD
ENDBRANCH  25  26
ENDBRANCH  21  25
ENDBRANCH   5  21
TORSDOF 8
