REMARK  Name = ZINCbu0000000GKW.0
REMARK                            x       y       z     vdW  Elec       q    Type
REMARK                         _______ _______ _______ _____ _____    ______ ____
ROOT
ATOM      1  C   LIG    1       -0.742   1.585  -1.213  0.00  0.00    -0.090 A 
ATOM      2  C   LIG    1       -1.677   0.781  -1.836  0.00  0.00    +0.060 A 
ATOM      3  C   LIG    1       -2.350   1.241  -2.954  0.00  0.00    -0.030 A 
ATOM      4  C   LIG    1       -2.078   2.502  -3.455  0.00  0.00    +0.070 A 
ATOM      5  C   LIG    1       -1.138   3.304  -2.835  0.00  0.00    +0.060 A 
ATOM      6 CL   LIG    1       -3.530   0.234  -3.733  0.00  0.00    -0.040 Cl
ATOM      7  C   LIG    1       -0.470   2.846  -1.713  0.00  0.00    -0.030 A 
ATOM      8 CL   LIG    1        0.710   3.854  -0.934  0.00  0.00    -0.050 Cl
ENDROOT
BRANCH   1   9
ATOM      9  C   LIG    1       -0.013   1.086   0.008  0.00  0.00    +0.100 C 
BRANCH   9  10
ATOM     10  C   LIG    1       -0.729   1.579   1.267  0.00  0.00    +0.260 C 
BRANCH  10  11
ATOM     11  N   LIG    1       -0.018   1.093   2.457  0.00  0.00    -0.640 N 
ATOM     12  H   LIG    1       -0.005   0.084   2.451  0.00  0.00    +0.440 HD
ATOM     13  H   LIG    1       -0.491   1.418   3.287  0.00  0.00    +0.440 HD
ATOM     14  H   LIG    1        0.928   1.442   2.450  0.00  0.00    +0.440 HD
ENDBRANCH  10  11
ENDBRANCH   9  10
ENDBRANCH   1   9
TORSDOF 3
