REMARK  Name = ZINCtV00000L6kFF.0
REMARK                            x       y       z     vdW  Elec       q    Type
REMARK                         _______ _______ _______ _____ _____    ______ ____
ROOT
ATOM      1  O   LIG    1        4.292  -0.354   0.857  0.00  0.00    -0.740 OA
ENDROOT
BRANCH   1   3
ATOM      2  O   LIG    1        3.810  -2.015   2.695  0.00  0.00    -1.010 OA
ATOM      3  P   LIG    1        4.906  -1.408   1.908  0.00  0.00    +2.570 P 
BRANCH   3   4
ATOM      4  C   LIG    1        6.050  -0.551   3.026  0.00  0.00    -0.730 A 
ATOM      5  C   LIG    1        6.753   0.553   2.581  0.00  0.00    +0.070 A 
ATOM      6  C   LIG    1        7.621   1.209   3.434  0.00  0.00    -0.010 A 
ATOM      7  C   LIG    1        7.793   0.754   4.729  0.00  0.00    +0.050 A 
ATOM      8  C   LIG    1        7.093  -0.353   5.171  0.00  0.00    -0.010 A 
ATOM      9  C   LIG    1        6.222  -1.005   4.320  0.00  0.00    +0.100 A 
ENDBRANCH   3   4
BRANCH   3  10
ATOM     10  C   LIG    1        5.798  -2.708   1.010  0.00  0.00    -0.760 A 
ATOM     11  C   LIG    1        5.758  -4.013   1.464  0.00  0.00    +0.110 A 
ATOM     12  C   LIG    1        6.434  -5.004   0.777  0.00  0.00    -0.010 A 
ATOM     13  C   LIG    1        7.158  -4.688  -0.357  0.00  0.00    +0.050 A 
ATOM     14  C   LIG    1        7.203  -3.382  -0.808  0.00  0.00    +0.000 A 
ATOM     15  C   LIG    1        6.523  -2.392  -0.124  0.00  0.00    +0.050 A 
ENDBRANCH   3  10
ENDBRANCH   1   3
BRANCH   1  16
ATOM     16  C   LIG    1        3.104  -0.607   0.105  0.00  0.00    +0.330 C 
BRANCH  16  17
ATOM     17  C   LIG    1        1.900  -0.203   0.918  0.00  0.00    -0.130 A 
ATOM     18  C   LIG    1        0.642  -0.645   0.555  0.00  0.00    +0.040 A 
ATOM     19  C   LIG    1       -0.462  -0.275   1.301  0.00  0.00    +0.010 A 
ATOM     20  C   LIG    1       -0.307   0.536   2.410  0.00  0.00    +0.030 A 
ATOM     21  C   LIG    1        0.952   0.978   2.772  0.00  0.00    +0.010 A 
ATOM     22  C   LIG    1        2.055   0.609   2.026  0.00  0.00    +0.050 A 
ENDBRANCH  16  17
BRANCH  16  23
ATOM     23  C   LIG    1        3.138   0.203  -1.192  0.00  0.00    +0.010 C 
ATOM     24 CL   LIG    1        3.070   1.963  -0.804  0.00  0.00    -0.040 Cl
ATOM     25 CL   LIG    1        1.723  -0.242  -2.216  0.00  0.00    -0.050 Cl
BRANCH  23  26
ATOM     26  C   LIG    1        4.432  -0.102  -1.949  0.00  0.00    +0.460 C 
ATOM     27  F   LIG    1        5.526   0.353  -1.205  0.00  0.00    -0.150 F 
ATOM     28  F   LIG    1        4.410   0.545  -3.189  0.00  0.00    -0.150 F 
ATOM     29  F   LIG    1        4.543  -1.483  -2.146  0.00  0.00    -0.160 F 
ENDBRANCH  23  26
ENDBRANCH  16  23
ENDBRANCH   1  16
TORSDOF 7
