REMARK  Name = ZINCrg00000BwCpj.0
REMARK                            x       y       z     vdW  Elec       q    Type
REMARK                         _______ _______ _______ _____ _____    ______ ____
ROOT
ATOM      1  CA  LIG    1        5.434   7.126  -0.011  0.00  0.00    +0.250 C 
ENDROOT
BRANCH   1   4
ATOM      2  O   LIG    1        5.022   9.790  -0.089  0.00  0.00    -0.520 OA
ATOM      3  C   LIG    1        4.659   9.177  -1.075  0.00  0.00    +0.560 C 
ATOM      4  N   LIG    1        4.821   7.840  -1.134  0.00  0.00    -0.710 N 
ATOM      5  H   LIG    1        4.531   7.351  -1.920  0.00  0.00    +0.400 HD
BRANCH   3   6
ATOM      6  C   LIG    1        4.040   9.897  -2.206  0.00  0.00    -0.160 A 
ATOM      7  C   LIG    1        3.622   9.196  -3.339  0.00  0.00    +0.090 A 
ATOM      8  C   LIG    1        3.045   9.873  -4.392  0.00  0.00    +0.030 A 
ATOM      9  C   LIG    1        2.878  11.246  -4.330  0.00  0.00    +0.100 A 
ATOM     10  C   LIG    1        3.289  11.950  -3.213  0.00  0.00    -0.090 A 
ATOM     11 CL   LIG    1        3.075  13.671  -3.145  0.00  0.00    -0.040 Cl
ATOM     12  C   LIG    1        3.866  11.283  -2.146  0.00  0.00    +0.170 A 
ATOM     13  F   LIG    1        4.262  11.969  -1.052  0.00  0.00    -0.100 F 
ENDBRANCH   3   6
ENDBRANCH   1   4
BRANCH   1  14
ATOM     14  C   LIG    1        4.963   5.671  -0.014  0.00  0.00    +0.290 C 
BRANCH  14  15
ATOM     15  N   LIG    1        3.499   5.631  -0.001  0.00  0.00    -0.710 N 
ATOM     16  H   LIG    1        2.991   6.458   0.007  0.00  0.00    +0.410 HD
ATOM     17  C   LIG    1        2.857   4.447  -0.001  0.00  0.00    +0.570 C 
ATOM     18  O   LIG    1        3.492   3.410  -0.012  0.00  0.00    -0.490 OA
BRANCH  17  19
ATOM     19  C   LIG    1        1.379   4.407   0.012  0.00  0.00    +0.170 A 
ATOM     20  N   LIG    1        0.676   5.527   0.024  0.00  0.00    -0.420 NA
ATOM     21  C   LIG    1       -0.651   5.506   0.036  0.00  0.00    +0.210 A 
ATOM     22  C   LIG    1       -1.352   4.346   0.037  0.00  0.00    +0.230 A 
ATOM     23  N   LIG    1       -0.707   3.147   0.025  0.00  0.00    -0.360 N 
ATOM     24  C   LIG    1       -1.122   1.850   0.017  0.00  0.00    +0.110 A 
ATOM     25  C   LIG    1       -0.013   1.076   0.008  0.00  0.00    +0.230 A 
ATOM     26  N   LIG    1        1.061   1.870   0.002  0.00  0.00    -0.430 NA
ATOM     27  C   LIG    1        0.669   3.128   0.012  0.00  0.00    +0.190 A 
ENDBRANCH  17  19
ENDBRANCH  14  15
ENDBRANCH   1  14
BRANCH   1  28
ATOM     28  C   LIG    1        6.957   7.170  -0.150  0.00  0.00    +0.190 C 
BRANCH  28  29
ATOM     29  O   LIG    1        7.350   6.446  -1.319  0.00  0.00    -0.570 OA
ATOM     30  H   LIG    1        8.305   6.432  -1.470  0.00  0.00    +0.380 HD
ENDBRANCH  28  29
ENDBRANCH   1  28
TORSDOF 7
