REMARK  Name = ZINCpe000000YV8S.0
REMARK                            x       y       z     vdW  Elec       q    Type
REMARK                         _______ _______ _______ _____ _____    ______ ____
ROOT
ATOM      1  N   LIG    1       -0.016   1.344   0.009  0.00  0.00    -0.530 N 
ATOM      2  H   LIG    1       -0.863   1.817   0.016  0.00  0.00    +0.430 HD
ATOM      3  C   LIG    1        0.002  -0.004   0.002  0.00  0.00    +0.510 C 
ATOM      4  O   LIG    1        1.060  -0.596  -0.011  0.00  0.00    -0.520 OA
ENDROOT
BRANCH   1   7
ATOM      5  O   LIG    1        0.111   4.000   0.022  0.00  0.00    -0.530 OA
ATOM      6  C   LIG    1        1.169   3.408   0.009  0.00  0.00    +0.510 C 
ATOM      7  N   LIG    1        1.187   2.061   0.002  0.00  0.00    -0.520 N 
ATOM      8  H   LIG    1        2.034   1.587  -0.009  0.00  0.00    +0.440 HD
BRANCH   6   9
ATOM      9  C   LIG    1        2.464   4.179   0.001  0.00  0.00    +0.330 C 
BRANCH   9  10
ATOM     10  N   LIG    1        2.177   5.616   0.011  0.00  0.00    -0.710 N 
ATOM     11  H   LIG    1        1.258   5.927   0.022  0.00  0.00    +0.420 HD
ATOM     12  C   LIG    1        3.189   6.505   0.006  0.00  0.00    +0.610 C 
ATOM     13  O   LIG    1        4.342   6.115  -0.007  0.00  0.00    -0.520 OA
BRANCH  12  14
ATOM     14  C   LIG    1        2.902   7.944   0.017  0.00  0.00    -0.090 A 
ATOM     15  C   LIG    1        3.828   8.947   0.019  0.00  0.00    +0.050 A 
ATOM     16  C   LIG    1        3.114  10.155   0.028  0.00  0.00    -0.070 A 
ATOM     17  C   LIG    1        1.799   9.840   0.039  0.00  0.00    +0.210 A 
ATOM     18  O   LIG    1        1.676   8.507   0.032  0.00  0.00    -0.160 OA
ENDBRANCH  12  14
ENDBRANCH   9  10
ENDBRANCH   6   9
ENDBRANCH   1   7
BRANCH   3  19
ATOM     19  C   LIG    1       -1.293  -0.775   0.010  0.00  0.00    +0.170 C 
BRANCH  19  20
ATOM     20  C   LIG    1       -0.997  -2.253  -0.001  0.00  0.00    -0.170 A 
ATOM     21  C   LIG    1       -0.949  -3.050  -1.080  0.00  0.00    +0.240 A 
ATOM     22  N   LIG    1       -0.649  -4.330  -0.701  0.00  0.00    -0.590 N 
ATOM     23  H   LIG    1       -0.557  -5.083  -1.306  0.00  0.00    +0.420 HD
ATOM     24  C   LIG    1       -0.503  -4.392   0.666  0.00  0.00    +0.090 A 
ATOM     25  C   LIG    1       -0.209  -5.423   1.552  0.00  0.00    -0.010 A 
ATOM     26  C   LIG    1       -0.130  -5.163   2.903  0.00  0.00    +0.030 A 
ATOM     27  C   LIG    1       -0.340  -3.880   3.390  0.00  0.00    -0.020 A 
ATOM     28  C   LIG    1       -0.629  -2.852   2.538  0.00  0.00    +0.050 A 
ATOM     29  C   LIG    1       -0.715  -3.094   1.165  0.00  0.00    -0.090 A 
ENDBRANCH  19  20
ENDBRANCH   3  19
TORSDOF 6
