REMARK  Name = ZINCrH000004tVDW.0
REMARK                            x       y       z     vdW  Elec       q    Type
REMARK                         _______ _______ _______ _____ _____    ______ ____
ROOT
ATOM      1  N   LIG    1        4.053   0.173  -1.700  0.00  0.00    -0.680 NA
ATOM      2  C   LIG    1        4.429  -0.037  -2.961  0.00  0.00    +0.490 A 
ATOM      3  C   LIG    1        3.727   0.357  -4.119  0.00  0.00    -0.110 A 
ATOM      4  C   LIG    1        4.436  -0.040  -5.199  0.00  0.00    +0.350 A 
ATOM      5  N   LIG    1        5.567  -0.673  -4.776  0.00  0.00    -0.390 N 
ATOM      6  N   LIG    1        5.574  -0.671  -3.374  0.00  0.00    -0.480 N 
ATOM      7  H   LIG    1        6.260  -1.049  -2.802  0.00  0.00    +0.450 HD
ENDROOT
BRANCH   1   9
ATOM      8  O   LIG    1        2.217   1.201  -2.358  0.00  0.00    -0.560 OA
ATOM      9  C   LIG    1        2.915   0.810  -1.442  0.00  0.00    +0.500 C 
BRANCH   9  10
ATOM     10  C   LIG    1        2.490   1.048  -0.016  0.00  0.00    +0.120 C 
BRANCH  10  11
ATOM     11  C   LIG    1        1.175   1.783   0.000  0.00  0.00    -0.030 A 
ATOM     12  C   LIG    1       -0.013   1.076   0.008  0.00  0.00    +0.020 A 
ATOM     13  C   LIG    1       -1.219   1.751   0.017  0.00  0.00    +0.060 A 
ATOM     14  C   LIG    1       -1.238   3.133   0.030  0.00  0.00    -0.190 A 
ATOM     15  C   LIG    1       -0.050   3.840   0.022  0.00  0.00    +0.060 A 
ATOM     16  C   LIG    1        1.156   3.165   0.008  0.00  0.00    +0.020 A 
BRANCH  14  17
ATOM     17  C   LIG    1       -2.553   3.869   0.045  0.00  0.00    +0.510 C 
ATOM     18  F   LIG    1       -2.396   5.090   0.709  0.00  0.00    -0.180 F 
ATOM     19  F   LIG    1       -3.511   3.096   0.710  0.00  0.00    -0.180 F 
ATOM     20  F   LIG    1       -2.972   4.102  -1.269  0.00  0.00    -0.180 F 
ENDBRANCH  14  17
ENDBRANCH  10  11
ENDBRANCH   9  10
ENDBRANCH   1   9
BRANCH   5  21
ATOM     21  C   LIG    1        6.600  -1.251  -5.639  0.00  0.00    +0.350 C 
BRANCH  21  22
ATOM     22  C   LIG    1        6.194  -2.671  -6.041  0.00  0.00    +0.080 C 
BRANCH  22  23
ATOM     23  C   LIG    1        7.257  -3.265  -6.928  0.00  0.00    -0.050 A 
ATOM     24  C   LIG    1        7.195  -3.118  -8.306  0.00  0.00    -0.030 A 
ATOM     25  C   LIG    1        8.190  -3.674  -9.087  0.00  0.00    +0.260 A 
ATOM     26  N   LIG    1        9.184  -4.345  -8.538  0.00  0.00    -0.480 NA
ATOM     27  C   LIG    1        9.272  -4.508  -7.232  0.00  0.00    +0.260 A 
ATOM     28  C   LIG    1        8.316  -3.977  -6.387  0.00  0.00    -0.030 A 
ENDBRANCH  22  23
ENDBRANCH  21  22
ENDBRANCH   5  21
TORSDOF 7
