REMARK  Name = ZINCpe00000zj6zB.0
REMARK                            x       y       z     vdW  Elec       q    Type
REMARK                         _______ _______ _______ _____ _____    ______ ____
ROOT
ATOM      1  C   LIG    1       -2.654   5.867   3.350  0.00  0.00    -0.010 C 
ATOM      2  C   LIG    1       -2.533   4.683   4.345  0.00  0.00    +0.040 C 
ATOM      3  C   LIG    1       -1.994   3.542   3.457  0.00  0.00    +0.240 C 
ATOM      4  N   LIG    1       -1.338   4.163   2.297  0.00  0.00    -0.620 N 
ATOM      5  C   LIG    1       -0.755   3.503   1.277  0.00  0.00    +0.530 C 
ATOM      6  O   LIG    1       -0.247   4.121   0.366  0.00  0.00    -0.540 OA
ATOM      7  C   LIG    1       -1.429   5.629   2.432  0.00  0.00    +0.260 C 
ENDROOT
BRANCH   1   8
ATOM      8  C   LIG    1       -2.542   7.209   4.077  0.00  0.00    +0.040 C 
BRANCH   8   9
ATOM      9  C   LIG    1       -3.822   7.466   4.874  0.00  0.00    +0.280 C 
BRANCH   9  11
ATOM     10  C   LIG    1       -4.731   9.187   6.340  0.00  0.00    +0.510 C 
ATOM     11  N   LIG    1       -3.714   8.750   5.570  0.00  0.00    -0.700 N 
ATOM     12  H   LIG    1       -2.911   9.286   5.478  0.00  0.00    +0.410 HD
ATOM     13  O   LIG    1       -5.736   8.516   6.455  0.00  0.00    -0.520 OA
BRANCH  10  17
ATOM     14  N   LIG    1       -5.638  10.934   7.819  0.00  0.00    -0.820 N 
ATOM     15  H   LIG    1       -5.567  11.785   8.280  0.00  0.00    +0.410 HD
ATOM     16  H   LIG    1       -6.441  10.398   7.912  0.00  0.00    +0.420 HD
ATOM     17  C   LIG    1       -4.621  10.497   7.050  0.00  0.00    +0.510 C 
ATOM     18  O   LIG    1       -3.616  11.168   6.934  0.00  0.00    -0.520 OA
ENDBRANCH  10  17
ENDBRANCH   9  11
ENDBRANCH   8   9
ENDBRANCH   1   8
BRANCH   5  19
ATOM     19  C   LIG    1       -0.735   1.996   1.269  0.00  0.00    +0.070 C 
BRANCH  19  20
ATOM     20  C   LIG    1       -0.018   1.503   0.010  0.00  0.00    +0.110 C 
BRANCH  20  21
ATOM     21  C   LIG    1        0.002  -0.004   0.002  0.00  0.00    -0.080 A 
ATOM     22  C   LIG    1        1.057  -0.683   0.582  0.00  0.00    +0.040 A 
ATOM     23  C   LIG    1        1.076  -2.065   0.581  0.00  0.00    +0.010 A 
ATOM     24  C   LIG    1        0.041  -2.771  -0.013  0.00  0.00    +0.110 A 
ATOM     25  C   LIG    1       -1.015  -2.087  -0.600  0.00  0.00    -0.060 A 
ATOM     26 CL   LIG    1       -2.313  -2.967  -1.345  0.00  0.00    -0.060 Cl
ATOM     27  C   LIG    1       -1.032  -0.705  -0.591  0.00  0.00    +0.050 A 
BRANCH  24  28
ATOM     28  O   LIG    1        0.061  -4.130  -0.021  0.00  0.00    -0.490 OA
ATOM     29  H   LIG    1        0.501  -4.513  -0.793  0.00  0.00    +0.390 HD
ENDBRANCH  24  28
ENDBRANCH  20  21
ENDBRANCH  19  20
ENDBRANCH   5  19
TORSDOF 8
