REMARK  Name = ZINCrD000000C4jI.0
REMARK                            x       y       z     vdW  Elec       q    Type
REMARK                         _______ _______ _______ _____ _____    ______ ____
ROOT
ATOM      1  N   LIG    1        0.551   1.076  -0.098  0.00  0.00    -0.680 N 
ATOM      2  H   LIG    1       -0.379   1.344  -0.029  0.00  0.00    +0.410 HD
ATOM      3  C   LIG    1        1.523   2.009  -0.091  0.00  0.00    +0.730 C 
ATOM      4  N   LIG    1        1.212   3.305   0.110  0.00  0.00    -0.650 N 
ATOM      5  C   LIG    1       -0.023   4.071   0.349  0.00  0.00    +0.280 C 
ATOM      6  C   LIG    1        0.683   5.278  -0.257  0.00  0.00    -0.120 C 
ATOM      7  C   LIG    1        0.357   6.706   0.172  0.00  0.00    +0.050 C 
ATOM      8  C   LIG    1        0.798   7.135  -1.240  0.00  0.00    +0.010 C 
ATOM      9  C   LIG    1        0.456   5.707  -1.704  0.00  0.00    +0.050 C 
ATOM     10  C   LIG    1        1.959   4.571   0.192  0.00  0.00    +0.280 C 
ATOM     11  O   LIG    1        2.681   1.682  -0.266  0.00  0.00    -0.560 OA
ENDROOT
BRANCH   1  21
ATOM     12  O   LIG    1        4.087  -1.683  -2.543  0.00  0.00    -0.520 OA
ATOM     13  C   LIG    1        3.400  -2.479  -1.928  0.00  0.00    +0.550 A 
ATOM     14  N   LIG    1        3.663  -3.799  -1.993  0.00  0.00    -0.630 N 
ATOM     15  H   LIG    1        4.407  -4.103  -2.537  0.00  0.00    +0.420 HD
ATOM     16  C   LIG    1        2.919  -4.725  -1.318  0.00  0.00    +0.270 A 
ATOM     17  C   LIG    1        1.875  -4.385  -0.545  0.00  0.00    -0.050 A 
ATOM     18  C   LIG    1        1.509  -2.974  -0.411  0.00  0.00    -0.010 A 
ATOM     19  C   LIG    1        0.433  -2.563   0.378  0.00  0.00    +0.040 A 
ATOM     20  C   LIG    1        0.130  -1.234   0.472  0.00  0.00    +0.020 A 
ATOM     21  C   LIG    1        0.882  -0.280  -0.211  0.00  0.00    +0.140 A 
ATOM     22  C   LIG    1        1.950  -0.661  -1.005  0.00  0.00    +0.110 A 
ATOM     23  C   LIG    1        2.277  -2.012  -1.108  0.00  0.00    -0.140 A 
ENDBRANCH   1  21
BRANCH  10  24
ATOM     24  C   LIG    1        2.391   4.935   1.614  0.00  0.00    -0.010 C 
ATOM     25  C   LIG    1        3.289   6.175   1.576  0.00  0.00    +0.010 C 
ATOM     26  C   LIG    1        3.781   6.483   2.992  0.00  0.00    +0.210 C 
ATOM     27  O   LIG    1        4.473   5.347   3.514  0.00  0.00    -0.380 OA
ATOM     28  C   LIG    1        3.668   4.170   3.618  0.00  0.00    +0.200 C 
ATOM     29  C   LIG    1        3.173   3.768   2.226  0.00  0.00    +0.010 C 
ENDBRANCH  10  24
TORSDOF 2
