REMARK  Name = ZINCvU00000006dY.0
REMARK                            x       y       z     vdW  Elec       q    Type
REMARK                         _______ _______ _______ _____ _____    ______ ____
ROOT
ATOM      1  C   LIG    1       -5.910   1.643   0.345  0.00  0.00    +0.580 C 
ATOM      2  N   LIG    1       -4.736   0.992   0.234  0.00  0.00    -0.640 N 
ATOM      3  H   LIG    1       -4.718   0.022   0.229  0.00  0.00    +0.410 HD
ATOM      4  O   LIG    1       -5.933   2.860   0.351  0.00  0.00    -0.390 OA
ENDROOT
BRANCH   1  11
ATOM      5  C   LIG    1      -11.760   1.707   0.885  0.00  0.00    +0.180 C 
ATOM      6  C   LIG    1      -10.863   0.499   0.798  0.00  0.00    +0.150 A 
ATOM      7  N   LIG    1      -11.253  -0.739   0.831  0.00  0.00    -0.250 NA
ATOM      8  N   LIG    1      -10.142  -1.581   0.725  0.00  0.00    -0.300 N 
ATOM      9  C   LIG    1       -9.023  -0.796   0.624  0.00  0.00    +0.040 A 
ATOM     10  S   LIG    1       -7.273  -0.865   0.462  0.00  0.00    +0.190 S 
ATOM     11  C   LIG    1       -7.160   0.887   0.457  0.00  0.00    -0.280 A 
ATOM     12  C   LIG    1       -8.379   1.436   0.577  0.00  0.00    +0.210 A 
ATOM     13  C   LIG    1       -9.439   0.525   0.667  0.00  0.00    -0.220 A 
BRANCH   8  14
ATOM     14  C   LIG    1      -10.167  -2.981   0.723  0.00  0.00    +0.150 A 
ATOM     15  C   LIG    1       -9.267  -3.692  -0.060  0.00  0.00    +0.000 A 
ATOM     16  C   LIG    1       -9.291  -5.073  -0.055  0.00  0.00    +0.050 A 
ATOM     17  C   LIG    1      -10.218  -5.747   0.719  0.00  0.00    +0.010 A 
ATOM     18  C   LIG    1      -11.119  -5.042   1.494  0.00  0.00    +0.040 A 
ATOM     19  C   LIG    1      -11.097  -3.661   1.499  0.00  0.00    +0.030 A 
ENDBRANCH   8  14
ENDBRANCH   1  11
BRANCH   2  20
ATOM     20  C   LIG    1       -3.586   1.688   0.130  0.00  0.00    +0.510 C 
ATOM     21  S   LIG    1       -3.618   3.399   0.139  0.00  0.00    -0.470 S 
BRANCH  20  22
ATOM     22  N   LIG    1       -2.412   1.036   0.019  0.00  0.00    -0.620 N 
ATOM     23  H   LIG    1       -2.399   0.070  -0.067  0.00  0.00    +0.410 HD
BRANCH  22  24
ATOM     24  C   LIG    1       -1.211   1.752   0.029  0.00  0.00    +0.140 A 
ATOM     25  C   LIG    1       -0.208   1.413  -0.852  0.00  0.00    +0.020 A 
ATOM     26  C   LIG    1        0.995   2.138  -0.844  0.00  0.00    -0.040 A 
ATOM     27  C   LIG    1        2.039   1.826  -1.731  0.00  0.00    +0.020 A 
ATOM     28  C   LIG    1        3.191   2.550  -1.696  0.00  0.00    +0.000 A 
ATOM     29  C   LIG    1        3.353   3.598  -0.793  0.00  0.00    +0.010 A 
ATOM     30  C   LIG    1        2.363   3.929   0.082  0.00  0.00    +0.020 A 
ATOM     31  C   LIG    1        1.158   3.205   0.075  0.00  0.00    -0.040 A 
ATOM     32  C   LIG    1        0.116   3.521   0.965  0.00  0.00    +0.030 A 
ATOM     33  C   LIG    1       -1.038   2.803   0.938  0.00  0.00    +0.060 A 
ENDBRANCH  22  24
ENDBRANCH  20  22
ENDBRANCH   2  20
TORSDOF 5
