REMARK  Name = ZINCpe000000U8bL.0
REMARK                            x       y       z     vdW  Elec       q    Type
REMARK                         _______ _______ _______ _____ _____    ______ ____
ROOT
ATOM      1  S   LIG    1        0.301   5.519   3.840  0.00  0.00    +2.690 S 
ATOM      2  O   LIG    1        0.451   6.651   2.996  0.00  0.00    -0.950 OA
ATOM      3  O   LIG    1        1.304   5.089   4.750  0.00  0.00    -0.940 OA
ENDROOT
BRANCH   1   4
ATOM      4  C   LIG    1       -1.152   5.801   4.797  0.00  0.00    -0.670 A 
ATOM      5  C   LIG    1       -2.127   6.664   4.333  0.00  0.00    +0.140 A 
ATOM      6  C   LIG    1       -3.271   6.885   5.079  0.00  0.00    +0.000 A 
ATOM      7  C   LIG    1       -3.437   6.250   6.295  0.00  0.00    +0.120 A 
ATOM      8  C   LIG    1       -2.455   5.385   6.766  0.00  0.00    +0.100 A 
ATOM      9  F   LIG    1       -4.553   6.469   7.026  0.00  0.00    -0.130 F 
ATOM     10  C   LIG    1       -1.312   5.162   6.012  0.00  0.00    +0.160 A 
BRANCH   8  11
ATOM     11  N   LIG    1       -2.620   4.739   7.998  0.00  0.00    -0.670 N 
ATOM     12  H   LIG    1       -3.505   4.657   8.388  0.00  0.00    +0.420 HD
ATOM     13  C   LIG    1       -1.550   4.233   8.642  0.00  0.00    +0.510 C 
ATOM     14  O   LIG    1       -0.435   4.417   8.203  0.00  0.00    -0.510 OA
ATOM     15  C   LIG    1       -1.740   3.438   9.908  0.00  0.00    +0.120 C 
ENDBRANCH   8  11
ENDBRANCH   1   4
BRANCH   1  19
ATOM     16  N   LIG    1        0.417   2.281   0.901  0.00  0.00    -0.530 NA
ATOM     17  C   LIG    1        1.113   2.169   2.191  0.00  0.00    +0.200 C 
ATOM     18  C   LIG    1        0.281   2.856   3.278  0.00  0.00    +0.290 C 
ATOM     19  N   LIG    1       -0.010   4.231   2.845  0.00  0.00    -1.000 NA
ATOM     20  C   LIG    1       -0.582   4.434   1.506  0.00  0.00    +0.300 C 
ATOM     21  C   LIG    1        0.285   3.685   0.488  0.00  0.00    +0.170 C 
BRANCH  16  22
ATOM     22  C   LIG    1        1.096   1.489  -0.133  0.00  0.00    +0.190 C 
BRANCH  22  24
ATOM     23  C   LIG    1       -0.366  -0.499   0.253  0.00  0.00    +0.020 C 
ATOM     24  C   LIG    1        1.076   0.011   0.261  0.00  0.00    +0.020 C 
ENDBRANCH  22  24
BRANCH  22  25
ATOM     25  C   LIG    1        2.545   1.962  -0.269  0.00  0.00    +0.140 C 
BRANCH  25  26
ATOM     26  O   LIG    1        3.251   1.685   0.942  0.00  0.00    -0.560 OA
ATOM     27  H   LIG    1        4.178   1.959   0.928  0.00  0.00    +0.380 HD
ENDBRANCH  25  26
ENDBRANCH  22  25
ENDBRANCH  16  22
ENDBRANCH   1  19
TORSDOF 7
