REMARK  Name = ZINCkj00000dDibu.1
REMARK                            x       y       z     vdW  Elec       q    Type
REMARK                         _______ _______ _______ _____ _____    ______ ____
ROOT
ATOM      1  C   LIG    1       -6.410   0.850  -1.245  0.00  0.00    +0.320 C 
ENDROOT
BRANCH   1   2
ATOM      2  C   LIG    1       -7.366   1.839  -0.575  0.00  0.00    -0.030 C 
ATOM      3  C   LIG    1       -8.776   1.242  -0.540  0.00  0.00    +0.080 C 
ATOM      4  C   LIG    1       -9.676   2.122   0.337  0.00  0.00    +0.190 C 
ATOM      5  C   LIG    1       -9.495   3.558  -0.093  0.00  0.00    +0.310 C 
ATOM      6  N   LIG    1      -10.265   4.569   0.185  0.00  0.00    -0.470 N 
ATOM      7  C   LIG    1       -9.763   5.677  -0.384  0.00  0.00    +0.230 C 
ATOM      8  C   LIG    1       -8.635   5.336  -1.040  0.00  0.00    +0.250 C 
ATOM      9  H   LIG    1      -11.074   4.529   0.719  0.00  0.00    +0.460 HD
ATOM     10  N   LIG    1       -8.466   3.996  -0.856  0.00  0.00    -0.400 N 
ATOM     11  C   LIG    1       -7.386   3.150  -1.369  0.00  0.00    +0.330 C 
ENDBRANCH   1   2
BRANCH   1  13
ATOM     12  C   LIG    1       -4.523   2.220  -2.245  0.00  0.00    +0.280 C 
ATOM     13  N   LIG    1       -5.042   1.368  -1.173  0.00  0.00    -0.630 N 
ATOM     14  C   LIG    1       -4.260   1.061  -0.118  0.00  0.00    +0.520 C 
ATOM     15  O   LIG    1       -4.690   0.356   0.770  0.00  0.00    -0.520 OA
BRANCH  14  16
ATOM     16  C   LIG    1       -2.853   1.594  -0.043  0.00  0.00    -0.030 C 
ATOM     17  C   LIG    1       -2.183   1.095   1.241  0.00  0.00    +0.040 C 
ATOM     18  C   LIG    1       -0.730   1.580   1.267  0.00  0.00    -0.010 C 
ATOM     19  C   LIG    1       -0.013   1.086   0.008  0.00  0.00    +0.210 C 
ATOM     20  O   LIG    1       -0.704   1.559  -1.149  0.00  0.00    -0.370 OA
ATOM     21  C   LIG    1       -2.053   1.100  -1.252  0.00  0.00    +0.230 C 
ENDBRANCH  14  16
ENDBRANCH   1  13
TORSDOF 3
