REMARK  Name = ZINCpk00000xHZD4.0
REMARK                            x       y       z     vdW  Elec       q    Type
REMARK                         _______ _______ _______ _____ _____    ______ ____
ROOT
ATOM      1  C   LIG    1        4.774   1.033  -0.036  0.00  0.00    +0.520 C 
ATOM      2  N   LIG    1        6.013   1.565  -0.047  0.00  0.00    -0.670 N 
ATOM      3  H   LIG    1        6.127   2.525  -0.117  0.00  0.00    +0.420 HD
ATOM      4  O   LIG    1        4.632  -0.172  -0.033  0.00  0.00    -0.490 OA
ENDROOT
BRANCH   2   5
ATOM      5  C   LIG    1        7.133   0.731   0.043  0.00  0.00    +0.210 A 
ATOM      6  C   LIG    1        8.264   1.158   0.727  0.00  0.00    -0.020 A 
ATOM      7  C   LIG    1        9.367   0.331   0.818  0.00  0.00    +0.150 A 
ATOM      8  C   LIG    1        9.348  -0.917   0.222  0.00  0.00    -0.690 A 
ATOM      9  C   LIG    1        8.226  -1.342  -0.464  0.00  0.00    +0.150 A 
ATOM     10  C   LIG    1        7.118  -0.522  -0.554  0.00  0.00    +0.010 A 
BRANCH   8  11
ATOM     11  S   LIG    1       10.759  -1.966   0.335  0.00  0.00    +2.700 S 
ATOM     12  O   LIG    1       10.288  -3.294   0.151  0.00  0.00    -0.960 OA
ATOM     13  O   LIG    1       11.478  -1.549   1.488  0.00  0.00    -0.960 OA
BRANCH  11  14
ATOM     14  N   LIG    1       11.727  -1.629  -0.966  0.00  0.00    -1.250 NA
ATOM     15  H   LIG    1       12.562  -2.107  -1.085  0.00  0.00    +0.420 HD
ATOM     16  H   LIG    1       11.458  -0.953  -1.608  0.00  0.00    +0.420 HD
ENDBRANCH  11  14
ENDBRANCH   8  11
ENDBRANCH   2   5
BRANCH   1  17
ATOM     17  C   LIG    1        3.567   1.935  -0.028  0.00  0.00    +0.270 C 
BRANCH  17  18
ATOM     18  O   LIG    1        2.379   1.140  -0.018  0.00  0.00    -0.330 OA
BRANCH  18  19
ATOM     19  C   LIG    1        1.201   1.799  -0.010  0.00  0.00    +0.510 C 
ATOM     20  O   LIG    1        1.185   3.016  -0.012  0.00  0.00    -0.510 OA
BRANCH  19  22
ATOM     21  C   LIG    1       -1.197   1.739   0.004  0.00  0.00    +0.210 C 
ATOM     22  C   LIG    1       -0.013   1.077   0.001  0.00  0.00    -0.060 C 
BRANCH  21  27
ATOM     23  C   LIG    1       -4.388  -2.058   0.022  0.00  0.00    +0.180 C 
ATOM     24  C   LIG    1       -3.838  -0.655   0.016  0.00  0.00    +0.030 A 
ATOM     25  C   LIG    1       -4.578   0.477   0.016  0.00  0.00    -0.060 A 
ATOM     26  C   LIG    1       -3.683   1.557   0.017  0.00  0.00    +0.020 A 
ATOM     27  C   LIG    1       -2.413   1.015   0.009  0.00  0.00    -0.040 A 
ATOM     28  O   LIG    1       -2.539  -0.329   0.012  0.00  0.00    -0.160 OA
ENDBRANCH  21  27
ENDBRANCH  19  22
ENDBRANCH  18  19
ENDBRANCH  17  18
ENDBRANCH   1  17
TORSDOF 8
