REMARK  Name = ZINCpk00000xKcy5.2
REMARK                            x       y       z     vdW  Elec       q    Type
REMARK                         _______ _______ _______ _____ _____    ______ ____
ROOT
ATOM      1  C   LIG    1       -2.552  -2.735  -0.302  0.00  0.00    +0.280 C 
ENDROOT
BRANCH   1   3
ATOM      2  C   LIG    1       -1.363  -0.558   0.002  0.00  0.00    +0.220 C 
ATOM      3  C   LIG    1       -1.181  -2.059  -0.235  0.00  0.00    +0.000 C 
ATOM      4  C   LIG    1       -0.371  -2.659   0.918  0.00  0.00    +0.010 C 
ATOM      5  C   LIG    1        0.975  -1.935   1.016  0.00  0.00    +0.020 C 
ATOM      6  C   LIG    1        0.731  -0.438   1.216  0.00  0.00    +0.170 C 
ATOM      7  N   LIG    1       -0.047   0.088   0.088  0.00  0.00    -0.530 NA
ATOM      8  C   LIG    1       -0.183   1.548   0.177  0.00  0.00    +0.190 C 
BRANCH   2  14
ATOM      9  C   LIG    1       -4.449  -0.006  -0.100  0.00  0.00    +0.310 C 
ATOM     10  N   LIG    1       -3.491   0.276  -1.172  0.00  0.00    -0.460 N 
ATOM     11  C   LIG    1       -3.773   0.818  -2.377  0.00  0.00    +0.380 A 
ATOM     12  N   LIG    1       -2.666   0.916  -3.061  0.00  0.00    -0.490 NA
ATOM     13  C   LIG    1       -1.647   0.450  -2.323  0.00  0.00    +0.180 A 
ATOM     14  C   LIG    1       -2.143   0.040  -1.140  0.00  0.00    -0.030 A 
ENDBRANCH   2  14
ENDBRANCH   1   3
BRANCH   1  15
ATOM     15  N   LIG    1       -2.382  -4.150  -0.643  0.00  0.00    -0.610 N 
ATOM     16  C   LIG    1       -2.216  -5.145   0.420  0.00  0.00    +0.280 C 
BRANCH  15  17
ATOM     17  C   LIG    1       -2.379  -4.549  -1.976  0.00  0.00    +0.250 A 
ATOM     18  C   LIG    1       -2.542  -3.619  -3.001  0.00  0.00    -0.080 A 
ATOM     19  C   LIG    1       -2.527  -4.050  -4.314  0.00  0.00    +0.300 A 
ATOM     20  N   LIG    1       -2.374  -5.324  -4.608  0.00  0.00    -0.500 NA
ATOM     21  C   LIG    1       -2.222  -6.247  -3.664  0.00  0.00    +0.110 A 
ATOM     22  C   LIG    1       -2.219  -5.892  -2.320  0.00  0.00    -0.040 A 
BRANCH  21  23
ATOM     23  C   LIG    1       -2.053  -7.668  -4.048  0.00  0.00    +0.580 C 
ATOM     24  O   LIG    1       -1.913  -8.517  -3.189  0.00  0.00    -0.540 OA
ATOM     25  N   LIG    1       -2.054  -8.020  -5.349  0.00  0.00    -0.830 N 
ATOM     26  H   LIG    1       -1.944  -8.950  -5.600  0.00  0.00    +0.410 HD
ATOM     27  H   LIG    1       -2.166  -7.342  -6.034  0.00  0.00    +0.410 HD
ENDBRANCH  21  23
ENDBRANCH  15  17
ENDBRANCH   1  15
TORSDOF 5
