REMARK  Name = ZINCqH0000007NoN.0
REMARK                            x       y       z     vdW  Elec       q    Type
REMARK                         _______ _______ _______ _____ _____    ______ ____
ROOT
ATOM      1  C   LIG    1        3.731  -0.664   0.152  0.00  0.00    +0.240 A 
ATOM      2  N   LIG    1        3.896  -1.967   0.157  0.00  0.00    -0.250 NA
ATOM      3  N   LIG    1        5.119  -2.256  -0.112  0.00  0.00    -0.290 NA
ATOM      4  C   LIG    1        5.811  -1.156  -0.305  0.00  0.00    +0.140 A 
ATOM      5  N   LIG    1        4.952  -0.105  -0.148  0.00  0.00    -0.460 N 
ATOM      6  C   LIG    1        5.265   1.321  -0.273  0.00  0.00    +0.360 C 
ENDROOT
BRANCH   1  12
ATOM      7  C   LIG    1        1.285  -0.338  -0.211  0.00  0.00    +0.170 A 
ATOM      8  C   LIG    1        0.110   0.351   0.041  0.00  0.00    -0.070 A 
ATOM      9  C   LIG    1        0.110   1.429   0.907  0.00  0.00    +0.070 A 
ATOM     10  C   LIG    1        1.281   1.828   1.527  0.00  0.00    -0.030 A 
ATOM     11  C   LIG    1        2.460   1.152   1.286  0.00  0.00    +0.070 A 
ATOM     12  C   LIG    1        2.472   0.063   0.415  0.00  0.00    -0.060 A 
BRANCH   7  14
ATOM     13  C   LIG    1        0.037  -1.748  -1.661  0.00  0.00    +0.240 C 
ATOM     14  O   LIG    1        1.285  -1.397  -1.061  0.00  0.00    -0.300 OA
ENDBRANCH   7  14
ENDBRANCH   1  12
BRANCH   4  15
ATOM     15  S   LIG    1        7.525  -1.055  -0.699  0.00  0.00    +0.060 S 
BRANCH  15  16
ATOM     16  C   LIG    1        7.943  -2.815  -0.737  0.00  0.00    +0.110 C 
BRANCH  16  17
ATOM     17  C   LIG    1        9.405  -2.978  -1.065  0.00  0.00    +0.420 C 
ATOM     18  O   LIG    1       10.096  -1.999  -1.254  0.00  0.00    -0.430 OA
BRANCH  17  19
ATOM     19  C   LIG    1        9.993  -4.322  -1.155  0.00  0.00    -0.150 A 
ATOM     20  C   LIG    1       11.350  -4.476  -1.459  0.00  0.00    +0.120 A 
ATOM     21  C   LIG    1       11.897  -5.738  -1.542  0.00  0.00    +0.020 A 
ATOM     22  C   LIG    1       11.105  -6.856  -1.325  0.00  0.00    +0.110 A 
ATOM     23  C   LIG    1        9.757  -6.711  -1.023  0.00  0.00    +0.060 A 
ATOM     24  F   LIG    1        8.992  -7.805  -0.813  0.00  0.00    -0.120 F 
ATOM     25  F   LIG    1       11.648  -8.090  -1.408  0.00  0.00    -0.120 F 
ATOM     26  C   LIG    1        9.200  -5.453  -0.932  0.00  0.00    +0.080 A 
ENDBRANCH  17  19
ENDBRANCH  16  17
ENDBRANCH  15  16
ENDBRANCH   4  15
TORSDOF 6
