REMARK  Name = ZINCvU00000004DD.0
REMARK                            x       y       z     vdW  Elec       q    Type
REMARK                         _______ _______ _______ _____ _____    ______ ____
ROOT
ATOM      1  C   LIG    1       -1.335   1.391  -3.541  0.00  0.00    -0.110 A 
ATOM      2  C   LIG    1       -2.120   2.545  -3.463  0.00  0.00    +0.050 A 
ATOM      3  C   LIG    1       -2.781   3.003  -4.579  0.00  0.00    +0.050 A 
ATOM      4  C   LIG    1       -2.677   2.309  -5.788  0.00  0.00    +0.000 A 
ATOM      5  C   LIG    1       -1.896   1.153  -5.864  0.00  0.00    +0.080 A 
ATOM      6  C   LIG    1       -1.230   0.698  -4.750  0.00  0.00    +0.090 A 
ENDROOT
BRANCH   4   7
ATOM      7  C   LIG    1       -3.393   2.798  -6.983  0.00  0.00    +0.200 A 
ATOM      8  N   LIG    1       -3.382   2.244  -8.175  0.00  0.00    -0.260 NA
ATOM      9  N   LIG    1       -4.116   2.938  -8.974  0.00  0.00    -0.270 NA
ATOM     10  C   LIG    1       -4.623   3.961  -8.323  0.00  0.00    +0.220 A 
ATOM     11  O   LIG    1       -4.181   3.890  -7.051  0.00  0.00    -0.210 OA
BRANCH  10  12
ATOM     12  C   LIG    1       -5.519   4.995  -8.880  0.00  0.00    -0.030 A 
ATOM     13  C   LIG    1       -5.990   6.027  -8.067  0.00  0.00    +0.050 A 
ATOM     14  C   LIG    1       -6.822   6.992  -8.596  0.00  0.00    +0.010 A 
ATOM     15  C   LIG    1       -7.199   6.932  -9.925  0.00  0.00    +0.040 A 
ATOM     16  C   LIG    1       -6.740   5.909 -10.736  0.00  0.00    +0.020 A 
ATOM     17  C   LIG    1       -5.903   4.940 -10.222  0.00  0.00    +0.080 A 
ENDBRANCH  10  12
ENDBRANCH   4   7
BRANCH   1  20
ATOM     18  N   LIG    1       -0.721   1.571  -1.179  0.00  0.00    -0.720 N 
ATOM     19  H   LIG    1       -1.263   2.374  -1.126  0.00  0.00    +0.400 HD
ATOM     20  C   LIG    1       -0.620   0.902  -2.344  0.00  0.00    +0.560 C 
ATOM     21  O   LIG    1        0.059  -0.104  -2.411  0.00  0.00    -0.520 OA
BRANCH  18  22
ATOM     22  C   LIG    1       -0.013   1.086   0.008  0.00  0.00    +0.290 C 
ATOM     23  C   LIG    1        1.423   1.615  -0.003  0.00  0.00    +0.040 C 
BRANCH  22  27
ATOM     24  C   LIG    1       -2.013   2.462   3.526  0.00  0.00    +0.100 A 
ATOM     25  C   LIG    1       -1.501   1.175   3.477  0.00  0.00    -0.040 A 
ATOM     26  C   LIG    1       -0.854   0.733   2.338  0.00  0.00    +0.070 A 
ATOM     27  C   LIG    1       -0.718   1.572   1.248  0.00  0.00    -0.100 A 
ATOM     28  C   LIG    1       -1.223   2.858   1.295  0.00  0.00    +0.030 A 
ATOM     29  C   LIG    1       -1.875   3.305   2.430  0.00  0.00    +0.080 A 
ATOM     30  F   LIG    1       -2.372   4.560   2.475  0.00  0.00    -0.130 F 
BRANCH  24  32
ATOM     31  C   LIG    1       -2.753   1.979   5.734  0.00  0.00    +0.250 C 
ATOM     32  O   LIG    1       -2.648   2.899   4.646  0.00  0.00    -0.310 OA
ENDBRANCH  24  32
ENDBRANCH  22  27
ENDBRANCH  18  22
ENDBRANCH   1  20
TORSDOF 6
