REMARK  Name = ZINCbw0000000Hjd.0
REMARK                            x       y       z     vdW  Elec       q    Type
REMARK                         _______ _______ _______ _____ _____    ______ ____
ROOT
ATOM      1  C   LIG    1        3.648   0.517  -0.030  0.00  0.00    +0.130 C 
ATOM      2  C   LIG    1        2.142   0.585  -0.015  0.00  0.00    -0.160 A 
ATOM      3  C   LIG    1        1.295  -0.455  -0.013  0.00  0.00    +0.240 A 
ATOM      4  N   LIG    1        0.002  -0.004   0.002  0.00  0.00    -0.580 N 
ATOM      5  H   LIG    1       -0.785  -0.571   0.007  0.00  0.00    +0.420 HD
ATOM      6  C   LIG    1       -0.017   1.370   0.010  0.00  0.00    +0.300 A 
ATOM      7  N   LIG    1       -0.996   2.265   0.029  0.00  0.00    -0.490 NA
ATOM      8  C   LIG    1       -0.751   3.558   0.028  0.00  0.00    +0.340 A 
ATOM      9  C   LIG    1        0.545   4.052   0.019  0.00  0.00    -0.180 A 
ATOM     10  C   LIG    1        1.609   3.167   0.004  0.00  0.00    +0.150 A 
ATOM     11 BR   LIG    1        0.856   5.917   0.026  0.00  0.00    -0.030 Br
ATOM     12  C   LIG    1        1.325   1.800  -0.001  0.00  0.00    -0.150 A 
ENDROOT
TORSDOF 0
