REMARK  Name = ZINCrg000000rZ8o.0
REMARK                            x       y       z     vdW  Elec       q    Type
REMARK                         _______ _______ _______ _____ _____    ______ ____
ROOT
ATOM      1  C   LIG    1       -0.013   1.086   0.008  0.00  0.00    +0.130 C 
ATOM      2  C   LIG    1       -0.718   1.572   1.248  0.00  0.00    +0.030 A 
ATOM      3  C   LIG    1       -2.036   1.820   1.352  0.00  0.00    -0.010 A 
ATOM      4  C   LIG    1       -2.265   2.265   2.731  0.00  0.00    -0.240 A 
ATOM      5  C   LIG    1       -1.042   2.254   3.343  0.00  0.00    +0.130 A 
ATOM      6  C   LIG    1       -0.768   2.642   4.774  0.00  0.00    +0.150 C 
ATOM      7  N   LIG    1       -0.122   1.838   2.449  0.00  0.00    -0.390 N 
ENDROOT
BRANCH   7   8
ATOM      8  C   LIG    1        1.248   1.699   2.713  0.00  0.00    +0.110 A 
ATOM      9  C   LIG    1        1.685   0.758   3.635  0.00  0.00    +0.040 A 
ATOM     10  C   LIG    1        3.035   0.618   3.893  0.00  0.00    +0.050 A 
ATOM     11  C   LIG    1        3.957   1.422   3.240  0.00  0.00    +0.060 A 
ATOM     12  O   LIG    1        5.282   1.275   3.513  0.00  0.00    -0.300 OA
ATOM     13  C   LIG    1        6.200   1.836   2.568  0.00  0.00    +0.230 C 
ATOM     14  C   LIG    1        5.726   3.254   2.221  0.00  0.00    +0.230 C 
ATOM     15  O   LIG    1        4.411   3.163   1.662  0.00  0.00    -0.300 OA
ATOM     16  C   LIG    1        3.522   2.368   2.317  0.00  0.00    +0.070 A 
ATOM     17  C   LIG    1        2.167   2.505   2.056  0.00  0.00    +0.040 A 
ENDBRANCH   7   8
BRANCH   4  18
ATOM     18  C   LIG    1       -3.552   2.652   3.333  0.00  0.00    +0.600 C 
ATOM     19  N   LIG    1       -4.680   2.611   2.596  0.00  0.00    -0.720 N 
ATOM     20  H   LIG    1       -4.644   2.326   1.670  0.00  0.00    +0.410 HD
ATOM     21  O   LIG    1       -3.597   3.010   4.495  0.00  0.00    -0.530 OA
BRANCH  19  22
ATOM     22  C   LIG    1       -5.960   2.996   3.195  0.00  0.00    +0.260 C 
ATOM     23  C   LIG    1       -7.136   2.405   2.391  0.00  0.00    +0.110 C 
ATOM     24  C   LIG    1       -7.888   3.627   1.911  0.00  0.00    +0.530 C 
ATOM     25  N   LIG    1       -7.267   4.728   2.353  0.00  0.00    -0.680 N 
ATOM     26  H   LIG    1       -7.584   5.623   2.159  0.00  0.00    +0.420 HD
ATOM     27  O   LIG    1       -8.892   3.612   1.233  0.00  0.00    -0.480 OA
ATOM     28  C   LIG    1       -6.171   4.490   3.086  0.00  0.00    +0.510 C 
ATOM     29  O   LIG    1       -5.461   5.338   3.582  0.00  0.00    -0.450 OA
ENDBRANCH  19  22
ENDBRANCH   4  18
TORSDOF 3
