REMARK  Name = ZINCnE000001OyFe.0
REMARK                            x       y       z     vdW  Elec       q    Type
REMARK                         _______ _______ _______ _____ _____    ______ ____
ROOT
ATOM      1  S   LIG    1        3.609  -1.101   0.143  0.00  0.00    +2.700 S 
ATOM      2  O   LIG    1        2.955  -2.360   0.061  0.00  0.00    -0.940 OA
ATOM      3  O   LIG    1        4.378  -0.697   1.268  0.00  0.00    -0.940 OA
ENDROOT
BRANCH   1  11
ATOM      4  C   LIG    1        1.531  -1.168  -2.047  0.00  0.00    +0.100 C 
ATOM      5  C   LIG    1        1.450   0.007  -1.107  0.00  0.00    -0.020 A 
ATOM      6  C   LIG    1        0.465   0.965  -1.283  0.00  0.00    +0.060 A 
ATOM      7  C   LIG    1        0.386   2.044  -0.424  0.00  0.00    +0.100 A 
ATOM      8  C   LIG    1        1.303   2.167   0.623  0.00  0.00    -0.130 A 
ATOM      9  C   LIG    1        2.293   1.196   0.793  0.00  0.00    +0.170 A 
ATOM     10  F   LIG    1       -0.420   0.844  -2.297  0.00  0.00    -0.140 F 
ATOM     11  C   LIG    1        2.360   0.124  -0.071  0.00  0.00    -0.670 A 
BRANCH   8  12
ATOM     12  C   LIG    1        1.226   3.317   1.544  0.00  0.00    +0.520 C 
ATOM     13  O   LIG    1        2.029   3.421   2.460  0.00  0.00    -0.670 OA
ATOM     14  O   LIG    1        0.358   4.165   1.392  0.00  0.00    -0.680 OA
ENDBRANCH   8  12
ENDBRANCH   1  11
BRANCH   1  15
ATOM     15  N   LIG    1        4.615  -1.010  -1.169  0.00  0.00    -1.050 N 
ATOM     16  H   LIG    1        4.724  -1.778  -1.751  0.00  0.00    +0.430 HD
BRANCH  15  17
ATOM     17  C   LIG    1        5.308   0.176  -1.438  0.00  0.00    +0.160 A 
ATOM     18  C   LIG    1        5.786   0.955  -0.393  0.00  0.00    +0.060 A 
ATOM     19  C   LIG    1        6.474   2.122  -0.662  0.00  0.00    +0.040 A 
ATOM     20  C   LIG    1        6.678   2.522  -1.971  0.00  0.00    +0.100 A 
ATOM     21  C   LIG    1        6.198   1.749  -3.016  0.00  0.00    +0.020 A 
ATOM     22  F   LIG    1        7.347   3.666  -2.231  0.00  0.00    -0.130 F 
ATOM     23  C   LIG    1        5.514   0.578  -2.753  0.00  0.00    -0.030 A 
ATOM     24 CL   LIG    1        4.912  -0.390  -4.062  0.00  0.00    -0.050 Cl
ENDBRANCH  15  17
ENDBRANCH   1  15
TORSDOF 4
