REMARK  Name = ZINCpk00000ebE57.0
REMARK                            x       y       z     vdW  Elec       q    Type
REMARK                         _______ _______ _______ _____ _____    ______ ____
ROOT
ATOM      1  O   LIG    1        3.015   3.216   5.314  0.00  0.00    -0.570 OA
ATOM      2  C   LIG    1        3.616   2.255   4.872  0.00  0.00    +0.710 C 
ATOM      3  N   LIG    1        4.958   2.193   4.980  0.00  0.00    -0.630 N 
ATOM      4  C   LIG    1        5.708   1.093   4.357  0.00  0.00    +0.270 C 
ATOM      5  C   LIG    1        6.804   1.694   3.464  0.00  0.00    +0.030 C 
ATOM      6  C   LIG    1        7.664   2.651   4.294  0.00  0.00    +0.090 C 
ATOM      7  C   LIG    1        6.793   3.793   4.822  0.00  0.00    +0.030 C 
ATOM      8  C   LIG    1        5.698   3.219   5.726  0.00  0.00    +0.300 C 
ATOM      9  N   LIG    1        2.940   1.253   4.276  0.00  0.00    -0.730 N 
ATOM     10  H   LIG    1        3.424   0.522   3.860  0.00  0.00    +0.400 HD
ENDROOT
BRANCH   6  11
ATOM     11  C   LIG    1        8.763   3.215   3.431  0.00  0.00    +0.080 A 
ATOM     12  N   LIG    1        9.978   3.498   3.825  0.00  0.00    -0.290 NA
ATOM     13  N   LIG    1       10.688   3.999   2.726  0.00  0.00    -0.480 N 
ATOM     14  H   LIG    1       11.614   4.290   2.729  0.00  0.00    +0.440 HD
ATOM     15  C   LIG    1        9.858   4.004   1.662  0.00  0.00    +0.240 A 
ATOM     16  C   LIG    1        8.662   3.519   2.070  0.00  0.00    -0.120 A 
ENDBRANCH   6  11
BRANCH   9  17
ATOM     17  C   LIG    1        1.475   1.268   4.255  0.00  0.00    +0.270 C 
ATOM     18  C   LIG    1        0.923  -0.157   4.021  0.00  0.00    +0.060 C 
ATOM     19  C   LIG    1       -0.315   0.128   3.139  0.00  0.00    +0.280 C 
ATOM     20  N   LIG    1       -0.024   1.395   2.458  0.00  0.00    -0.630 N 
ATOM     21  C   LIG    1        0.971   2.061   3.069  0.00  0.00    +0.500 C 
ATOM     22  O   LIG    1        1.401   3.140   2.721  0.00  0.00    -0.480 OA
BRANCH  20  23
ATOM     23  C   LIG    1       -0.732   1.876   1.269  0.00  0.00    +0.350 C 
BRANCH  23  24
ATOM     24  C   LIG    1       -0.016   1.377   0.012  0.00  0.00    +0.430 C 
ATOM     25  F   LIG    1       -0.692   1.836  -1.123  0.00  0.00    -0.180 F 
ATOM     26  F   LIG    1        1.297   1.860   0.001  0.00  0.00    -0.180 F 
ATOM     27  F   LIG    1        0.002  -0.022   0.011  0.00  0.00    -0.180 F 
ENDBRANCH  23  24
ENDBRANCH  20  23
ENDBRANCH   9  17
TORSDOF 4
