REMARK  Name = ZINCb70000002qDM.0
REMARK                            x       y       z     vdW  Elec       q    Type
REMARK                         _______ _______ _______ _____ _____    ______ ____
ROOT
ATOM      1  C   LIG    1       -0.753  -2.524   1.183  0.00  0.00    +0.030 C 
ATOM      2  C   LIG    1       -1.368  -1.955  -0.097  0.00  0.00    +0.220 C 
ATOM      3  C   LIG    1       -0.577  -2.454  -1.308  0.00  0.00    +0.250 C 
ATOM      4  N   LIG    1        0.802  -1.946  -1.245  0.00  0.00    -0.500 N 
ATOM      5  C   LIG    1        0.772  -0.480  -1.235  0.00  0.00    +0.110 C 
ATOM      6  C   LIG    1        2.190   0.091  -1.186  0.00  0.00    +0.250 C 
ATOM      7  O   LIG    1        2.115   1.519  -1.138  0.00  0.00    -0.350 OA
ATOM      8  C   LIG    1        1.425   2.039  -0.001  0.00  0.00    +0.240 C 
ATOM      9  C   LIG    1       -0.019   1.525   0.010  0.00  0.00    +0.060 C 
ATOM     10  C   LIG    1        0.002  -0.004   0.002  0.00  0.00    +0.160 C 
ATOM     11  H   LIG    1        1.318  -2.270  -2.049  0.00  0.00    +0.440 HD
ATOM     12  H   LIG    1        1.246  -2.279  -0.402  0.00  0.00    +0.430 HD
ATOM     13  O   LIG    1       -1.327  -0.524  -0.051  0.00  0.00    -0.340 OA
ENDROOT
TORSDOF 0
