REMARK  Name = ZINCrH000004rnGc.0
REMARK                            x       y       z     vdW  Elec       q    Type
REMARK                         _______ _______ _______ _____ _____    ______ ____
ROOT
ATOM      1  N   LIG    1        3.739   1.600  -0.075  0.00  0.00    -0.520 NA
ATOM      2  C   LIG    1        3.570   2.324  -1.341  0.00  0.00    +0.180 C 
ATOM      3  C   LIG    1        4.622   3.432  -1.442  0.00  0.00    +0.050 C 
ATOM      4  C   LIG    1        6.019   2.810  -1.370  0.00  0.00    -0.020 C 
ATOM      5  C   LIG    1        6.152   2.021  -0.064  0.00  0.00    +0.060 C 
ATOM      6  C   LIG    1        5.056   0.955  -0.004  0.00  0.00    +0.180 C 
ENDROOT
BRANCH   4   7
ATOM      7  C   LIG    1        7.059   3.900  -1.408  0.00  0.00    +0.520 C 
ATOM      8  N   LIG    1        7.208   4.650  -2.518  0.00  0.00    -0.600 N 
ATOM      9  C   LIG    1        8.150   5.747  -2.491  0.00  0.00    +0.270 C 
ATOM     10  C   LIG    1        7.448   7.031  -2.001  0.00  0.00    +0.000 C 
ATOM     11  C   LIG    1        6.522   7.530  -3.029  0.00  0.00    +0.000 C 
ATOM     12  C   LIG    1        5.378   6.576  -3.362  0.00  0.00    +0.010 C 
ATOM     13  C   LIG    1        5.843   5.581  -4.397  0.00  0.00    +0.020 C 
ATOM     14  C   LIG    1        6.399   4.322  -3.708  0.00  0.00    +0.240 C 
ATOM     15  O   LIG    1        7.760   4.103  -0.440  0.00  0.00    -0.530 OA
ENDBRANCH   4   7
BRANCH   1  16
ATOM     16  C   LIG    1        2.662   0.621   0.119  0.00  0.00    +0.220 C 
BRANCH  16  19
ATOM     17  N   LIG    1        0.214   0.643   0.477  0.00  0.00    -0.670 N 
ATOM     18  H   LIG    1        0.233  -0.327   0.457  0.00  0.00    +0.410 HD
ATOM     19  C   LIG    1        1.350   1.343   0.285  0.00  0.00    +0.520 C 
ATOM     20  O   LIG    1        1.315   2.555   0.245  0.00  0.00    -0.500 OA
BRANCH  17  25
ATOM     21  C   LIG    1       -4.679   3.369   1.383  0.00  0.00    +0.100 C 
ATOM     22  C   LIG    1       -3.380   2.644   1.143  0.00  0.00    -0.090 A 
ATOM     23  C   LIG    1       -2.391   3.237   0.379  0.00  0.00    +0.030 A 
ATOM     24  C   LIG    1       -1.196   2.578   0.162  0.00  0.00    +0.050 A 
ATOM     25  C   LIG    1       -0.993   1.315   0.701  0.00  0.00    +0.150 A 
ATOM     26  C   LIG    1       -1.989   0.722   1.467  0.00  0.00    -0.060 A 
ATOM     27 CL   LIG    1       -1.738  -0.855   2.150  0.00  0.00    -0.070 Cl
ATOM     28  C   LIG    1       -3.180   1.388   1.686  0.00  0.00    +0.050 A 
ENDBRANCH  17  25
ENDBRANCH  16  19
ENDBRANCH   1  16
TORSDOF 4
