REMARK  Name = ZINCqH0000004Hs1.0
REMARK                            x       y       z     vdW  Elec       q    Type
REMARK                         _______ _______ _______ _____ _____    ______ ____
ROOT
ATOM      1  C   LIG    1        4.250   2.521  -0.474  0.00  0.00    +0.220 C 
ENDROOT
BRANCH   1   4
ATOM      2  N   LIG    1        6.341   1.205  -0.368  0.00  0.00    -0.680 N 
ATOM      3  H   LIG    1        6.539   1.644   0.474  0.00  0.00    +0.410 HD
ATOM      4  C   LIG    1        5.192   1.478  -1.017  0.00  0.00    +0.510 C 
ATOM      5  O   LIG    1        4.916   0.883  -2.037  0.00  0.00    -0.490 OA
BRANCH   2  12
ATOM      6  C   LIG    1        8.494   0.719  -1.349  0.00  0.00    -0.080 A 
ATOM      7  C   LIG    1        9.390  -0.189  -1.878  0.00  0.00    +0.010 A 
ATOM      8  C   LIG    1        9.045  -1.525  -1.979  0.00  0.00    +0.010 A 
ATOM      9  C   LIG    1        7.804  -1.956  -1.547  0.00  0.00    +0.010 A 
ATOM     10  C   LIG    1        6.906  -1.053  -1.012  0.00  0.00    -0.070 A 
ATOM     11  C   LIG    1        5.554  -1.524  -0.541  0.00  0.00    +0.100 C 
ATOM     12  C   LIG    1        7.250   0.288  -0.909  0.00  0.00    +0.140 A 
BRANCH   6  14
ATOM     13  C   LIG    1        9.428   2.459   0.151  0.00  0.00    +0.020 C 
ATOM     14  C   LIG    1        8.869   2.175  -1.245  0.00  0.00    +0.060 C 
ENDBRANCH   6  14
ENDBRANCH   2  12
ENDBRANCH   1   4
BRANCH   1  15
ATOM     15  N   LIG    1        3.079   2.630  -1.355  0.00  0.00    -0.510 NA
ATOM     16  C   LIG    1        2.285   1.395  -1.330  0.00  0.00    +0.210 C 
BRANCH  15  17
ATOM     17  C   LIG    1        2.256   3.793  -0.996  0.00  0.00    +0.220 C 
BRANCH  17  18
ATOM     18  C   LIG    1        1.212   4.017  -2.059  0.00  0.00    +0.520 C 
ATOM     19  N   LIG    1        0.341   5.039  -1.944  0.00  0.00    -0.670 N 
ATOM     20  H   LIG    1        0.331   5.579  -1.138  0.00  0.00    +0.410 HD
ATOM     21  O   LIG    1        1.159   3.280  -3.021  0.00  0.00    -0.490 OA
BRANCH  19  22
ATOM     22  C   LIG    1       -0.548   5.321  -2.986  0.00  0.00    +0.160 A 
ATOM     23  C   LIG    1       -0.251   4.923  -4.282  0.00  0.00    +0.040 A 
ATOM     24  C   LIG    1       -1.131   5.203  -5.310  0.00  0.00    +0.040 A 
ATOM     25  C   LIG    1       -2.308   5.880  -5.049  0.00  0.00    +0.000 A 
ATOM     26  C   LIG    1       -2.608   6.279  -3.759  0.00  0.00    +0.050 A 
ATOM     27  C   LIG    1       -1.735   5.996  -2.726  0.00  0.00    -0.070 A 
ATOM     28 CL   LIG    1       -2.117   6.490  -1.106  0.00  0.00    -0.070 Cl
ENDBRANCH  19  22
ENDBRANCH  17  18
ENDBRANCH  15  17
ENDBRANCH   1  15
TORSDOF 7
