REMARK  Name = ZINCpe000000XF6P.0
REMARK                            x       y       z     vdW  Elec       q    Type
REMARK                         _______ _______ _______ _____ _____    ______ ____
ROOT
ATOM      1  N   LIG    1       -3.643   1.684   0.029  0.00  0.00    -0.330 N 
ATOM      2  N   LIG    1       -4.556   0.622   0.026  0.00  0.00    -0.250 NA
ATOM      3  C   LIG    1       -3.885  -0.500   0.017  0.00  0.00    +0.110 A 
ATOM      4  C   LIG    1       -2.519  -0.201   0.007  0.00  0.00    -0.070 A 
ATOM      5  C   LIG    1       -4.482  -1.884   0.012  0.00  0.00    +0.180 C 
ATOM      6  C   LIG    1       -2.388   1.153   0.020  0.00  0.00    +0.330 A 
ENDROOT
BRANCH   1  12
ATOM      7  C   LIG    1       -2.131   6.238   0.050  0.00  0.00    +0.160 C 
ATOM      8  C   LIG    1       -3.250   5.229   0.048  0.00  0.00    +0.220 A 
ATOM      9  C   LIG    1       -4.572   5.647   0.057  0.00  0.00    -0.090 A 
ATOM     10  C   LIG    1       -5.570   4.685   0.055  0.00  0.00    +0.210 A 
ATOM     11  N   LIG    1       -5.233   3.406   0.046  0.00  0.00    -0.510 NA
ATOM     12  C   LIG    1       -3.961   3.042   0.038  0.00  0.00    +0.580 A 
ATOM     13  C   LIG    1       -7.021   5.092   0.064  0.00  0.00    +0.160 C 
ATOM     14  N   LIG    1       -2.983   3.934   0.044  0.00  0.00    -0.570 NA
ENDBRANCH   1  12
BRANCH   6  15
ATOM     15  N   LIG    1       -1.191   1.867   0.018  0.00  0.00    -0.630 N 
ATOM     16  H   LIG    1       -1.204   2.837   0.023  0.00  0.00    +0.430 HD
ATOM     17  C   LIG    1       -0.014   1.209   0.009  0.00  0.00    +0.540 C 
ATOM     18  O   LIG    1        0.002  -0.004   0.002  0.00  0.00    -0.490 OA
BRANCH  17  19
ATOM     19  C   LIG    1        1.280   1.980   0.001  0.00  0.00    +0.130 C 
BRANCH  19  20
ATOM     20  S   LIG    1        2.672   0.823  -0.019  0.00  0.00    +0.130 S 
BRANCH  20  21
ATOM     21  C   LIG    1        4.017   1.961  -0.026  0.00  0.00    +0.190 A 
ATOM     22  N   LIG    1        3.930   3.274  -0.017  0.00  0.00    -0.340 NA
ATOM     23  N   LIG    1        5.100   3.802  -0.026  0.00  0.00    -0.030 NA
ATOM     24  N   LIG    1        6.006   2.885  -0.040  0.00  0.00    -0.080 NA
ATOM     25  N   LIG    1        5.334   1.650  -0.035  0.00  0.00    -0.360 N 
ATOM     26  C   LIG    1        5.932   0.312  -0.040  0.00  0.00    +0.390 C 
ENDBRANCH  20  21
ENDBRANCH  19  20
ENDBRANCH  17  19
ENDBRANCH   6  15
TORSDOF 5
