REMARK  Name = ZINCpe000000Uxvw.2
REMARK                            x       y       z     vdW  Elec       q    Type
REMARK                         _______ _______ _______ _____ _____    ______ ____
ROOT
ATOM      1  N   LIG    1       -1.753   2.282   1.408  0.00  0.00    -0.530 NA
ATOM      2  C   LIG    1       -2.059   1.013   2.083  0.00  0.00    +0.190 C 
ATOM      3  C   LIG    1       -2.416   1.290   3.546  0.00  0.00    +0.180 C 
ATOM      4  N   LIG    1       -3.565   2.203   3.602  0.00  0.00    -0.540 NA
ATOM      5  C   LIG    1       -3.260   3.472   2.927  0.00  0.00    +0.180 C 
ATOM      6  C   LIG    1       -2.903   3.195   1.464  0.00  0.00    +0.190 C 
ENDROOT
BRANCH   1   7
ATOM      7  C   LIG    1       -1.332   2.051   0.019  0.00  0.00    +0.300 C 
BRANCH   7  10
ATOM      8  C   LIG    1        2.282   1.353  -0.012  0.00  0.00    +0.630 A 
ATOM      9  N   LIG    1        1.117   1.997   0.002  0.00  0.00    -0.620 NA
ATOM     10  C   LIG    1       -0.016   1.317   0.009  0.00  0.00    +0.440 A 
ATOM     11  N   LIG    1        0.002  -0.004   0.002  0.00  0.00    -0.640 NA
ATOM     12  C   LIG    1        1.163  -0.656  -0.013  0.00  0.00    +0.630 A 
ATOM     13  N   LIG    1        2.304   0.024  -0.020  0.00  0.00    -0.650 NA
BRANCH   8  15
ATOM     14  C   LIG    1        4.746   1.353  -0.036  0.00  0.00    +0.300 C 
ATOM     15  N   LIG    1        3.465   2.063  -0.020  0.00  0.00    -0.580 N 
ATOM     16  C   LIG    1        3.439   3.528  -0.012  0.00  0.00    +0.310 C 
ENDBRANCH   8  15
BRANCH  12  17
ATOM     17  N   LIG    1        1.181  -2.035  -0.021  0.00  0.00    -0.810 N 
ATOM     18  H   LIG    1        2.027  -2.510  -0.031  0.00  0.00    +0.420 HD
ATOM     19  H   LIG    1        0.347  -2.531  -0.016  0.00  0.00    +0.420 HD
ENDBRANCH  12  17
ENDBRANCH   7  10
ENDBRANCH   1   7
BRANCH   4  20
ATOM     20  C   LIG    1       -3.986   2.434   4.991  0.00  0.00    +0.180 C 
BRANCH  20  21
ATOM     21  C   LIG    1       -4.531   1.132   5.582  0.00  0.00    +0.070 C 
BRANCH  21  22
ATOM     22  C   LIG    1       -4.963   1.369   7.006  0.00  0.00    -0.080 A 
ATOM     23  C   LIG    1       -4.064   1.186   8.040  0.00  0.00    +0.000 A 
ATOM     24  C   LIG    1       -4.459   1.407   9.346  0.00  0.00    +0.000 A 
ATOM     25  C   LIG    1       -5.756   1.802   9.619  0.00  0.00    +0.000 A 
ATOM     26  C   LIG    1       -6.656   1.980   8.585  0.00  0.00    +0.000 A 
ATOM     27  C   LIG    1       -6.259   1.764   7.278  0.00  0.00    +0.000 A 
ENDBRANCH  21  22
ENDBRANCH  20  21
ENDBRANCH   4  20
TORSDOF 7
