REMARK  Name = ZINCpe000000UxvW.0
REMARK                            x       y       z     vdW  Elec       q    Type
REMARK                         _______ _______ _______ _____ _____    ______ ____
ROOT
ATOM      1  N   LIG    1        2.353   1.079  -0.053  0.00  0.00    -0.470 N 
ATOM      2  C   LIG    1        1.075   1.636   0.058  0.00  0.00    +0.050 A 
ATOM      3  C   LIG    1       -0.019   0.781   0.141  0.00  0.00    +0.040 A 
ATOM      4  C   LIG    1       -1.299   1.296   0.240  0.00  0.00    +0.080 A 
ATOM      5  C   LIG    1       -1.495   2.665   0.267  0.00  0.00    +0.020 A 
ATOM      6  C   LIG    1       -0.412   3.521   0.185  0.00  0.00    +0.030 A 
ATOM      7  F   LIG    1       -2.358   0.460   0.317  0.00  0.00    -0.140 F 
ATOM      8  C   LIG    1        0.874   3.011   0.082  0.00  0.00    +0.090 A 
ATOM      9  O   LIG    1        1.919   3.882   0.009  0.00  0.00    -0.300 OA
ATOM     10  C   LIG    1        3.174   3.345  -0.421  0.00  0.00    +0.220 C 
ATOM     11  C   LIG    1        3.405   2.027   0.331  0.00  0.00    +0.160 C 
ENDROOT
BRANCH   1  12
ATOM     12  C   LIG    1        2.583   0.555  -1.406  0.00  0.00    +0.300 C 
BRANCH  12  15
ATOM     13  C   LIG    1       -0.351  -1.432  -2.403  0.00  0.00    +0.630 A 
ATOM     14  N   LIG    1        0.465  -0.405  -2.179  0.00  0.00    -0.620 NA
ATOM     15  C   LIG    1        1.662  -0.611  -1.657  0.00  0.00    +0.430 A 
ATOM     16  N   LIG    1        2.054  -1.837  -1.360  0.00  0.00    -0.620 NA
ATOM     17  C   LIG    1        1.241  -2.869  -1.575  0.00  0.00    +0.630 A 
ATOM     18  N   LIG    1        0.038  -2.665  -2.100  0.00  0.00    -0.650 NA
BRANCH  13  20
ATOM     19  C   LIG    1       -2.028   0.145  -3.282  0.00  0.00    +0.300 C 
ATOM     20  N   LIG    1       -1.600  -1.215  -2.948  0.00  0.00    -0.570 N 
ATOM     21  C   LIG    1       -2.498  -2.346  -3.194  0.00  0.00    +0.310 C 
ENDBRANCH  13  20
BRANCH  17  22
ATOM     22  N   LIG    1        1.650  -4.148  -1.259  0.00  0.00    -0.810 N 
ATOM     23  H   LIG    1        2.529  -4.296  -0.876  0.00  0.00    +0.420 HD
ATOM     24  H   LIG    1        1.058  -4.900  -1.419  0.00  0.00    +0.420 HD
ENDBRANCH  17  22
ENDBRANCH  12  15
ENDBRANCH   1  12
BRANCH  11  25
ATOM     25  C   LIG    1        4.774   1.455  -0.045  0.00  0.00    +0.050 C 
BRANCH  25  26
ATOM     26  C   LIG    1        5.006   0.149   0.717  0.00  0.00    +0.200 C 
BRANCH  26  27
ATOM     27  O   LIG    1        6.285  -0.386   0.366  0.00  0.00    -0.580 OA
ATOM     28  H   LIG    1        6.500  -1.216   0.813  0.00  0.00    +0.380 HD
ENDBRANCH  26  27
ENDBRANCH  25  26
ENDBRANCH  11  25
TORSDOF 7
