REMARK  Name = ZINCrH000004om9L.1
REMARK                            x       y       z     vdW  Elec       q    Type
REMARK                         _______ _______ _______ _____ _____    ______ ____
ROOT
ATOM      1  N   LIG    1       -1.191   1.869   0.018  0.00  0.00    -0.720 N 
ATOM      2  H   LIG    1       -1.204   2.839   0.023  0.00  0.00    +0.400 HD
ATOM      3  C   LIG    1       -0.014   1.211   0.009  0.00  0.00    +0.560 C 
ATOM      4  O   LIG    1        0.002  -0.004   0.002  0.00  0.00    -0.520 OA
ENDROOT
BRANCH   3   5
ATOM      5  C   LIG    1        1.258   1.969   0.001  0.00  0.00    -0.060 A 
ATOM      6  C   LIG    1        1.235   3.366   0.003  0.00  0.00    +0.030 A 
ATOM      7  C   LIG    1        2.413   4.080   0.000  0.00  0.00    +0.140 A 
ATOM      8  C   LIG    1        3.630   3.404  -0.015  0.00  0.00    -0.160 A 
ATOM      9  C   LIG    1        4.917   4.128  -0.024  0.00  0.00    +0.550 A 
ATOM     10  N   LIG    1        6.058   3.405  -0.038  0.00  0.00    -0.610 N 
ATOM     11  H   LIG    1        6.912   3.864  -0.044  0.00  0.00    +0.450 HD
ATOM     12  C   LIG    1        6.032   2.063  -0.044  0.00  0.00    +0.540 A 
ATOM     13  N   LIG    1        4.890   1.356  -0.037  0.00  0.00    -0.580 N 
ATOM     14  H   LIG    1        4.925   0.387  -0.042  0.00  0.00    +0.450 HD
ATOM     15  S   LIG    1        7.520   1.216  -0.063  0.00  0.00    -0.530 S 
ATOM     16  O   LIG    1        4.949   5.343  -0.019  0.00  0.00    -0.470 OA
ATOM     17  C   LIG    1        3.659   1.998  -0.023  0.00  0.00    +0.170 A 
ATOM     18  C   LIG    1        2.472   1.285  -0.015  0.00  0.00    +0.070 A 
ENDBRANCH   3   5
BRANCH   1  20
ATOM     19  C   LIG    1       -2.830   0.758  -1.417  0.00  0.00    +0.040 C 
ATOM     20  C   LIG    1       -2.449   1.119   0.020  0.00  0.00    +0.290 C 
BRANCH  20  21
ATOM     21  C   LIG    1       -3.537   1.965   0.630  0.00  0.00    -0.100 A 
ATOM     22  C   LIG    1       -3.600   3.317   0.349  0.00  0.00    +0.050 A 
ATOM     23  C   LIG    1       -4.601   4.092   0.905  0.00  0.00    +0.030 A 
ATOM     24  C   LIG    1       -5.532   3.518   1.750  0.00  0.00    +0.070 A 
ATOM     25  C   LIG    1       -5.465   2.166   2.035  0.00  0.00    -0.180 A 
ATOM     26  C   LIG    1       -4.468   1.390   1.475  0.00  0.00    +0.080 A 
BRANCH  25  27
ATOM     27  C   LIG    1       -6.480   1.540   2.957  0.00  0.00    +0.510 C 
ATOM     28  F   LIG    1       -6.676   0.203   2.594  0.00  0.00    -0.170 F 
ATOM     29  F   LIG    1       -7.691   2.232   2.857  0.00  0.00    -0.170 F 
ATOM     30  F   LIG    1       -6.014   1.602   4.274  0.00  0.00    -0.170 F 
ENDBRANCH  25  27
ENDBRANCH  20  21
ENDBRANCH   1  20
TORSDOF 4
