REMARK  Name = ZINCvU00000009XI.0
REMARK                            x       y       z     vdW  Elec       q    Type
REMARK                         _______ _______ _______ _____ _____    ______ ____
ROOT
ATOM      1  N   LIG    1       -3.470  -5.094   0.008  0.00  0.00    -0.480 N 
ATOM      2  C   LIG    1       -4.205  -5.469  -1.099  0.00  0.00    +0.060 A 
ATOM      3  C   LIG    1       -4.015  -5.355  -2.469  0.00  0.00    +0.010 A 
ATOM      4  C   LIG    1       -4.968  -5.849  -3.334  0.00  0.00    +0.040 A 
ATOM      5  C   LIG    1       -6.115  -6.458  -2.844  0.00  0.00    +0.000 A 
ATOM      6  C   LIG    1       -6.318  -6.578  -1.498  0.00  0.00    +0.070 A 
ATOM      7  C   LIG    1       -5.366  -6.086  -0.603  0.00  0.00    +0.040 A 
ATOM      8  N   LIG    1       -5.282  -6.056   0.752  0.00  0.00    -0.470 NA
ATOM      9  C   LIG    1       -4.170  -5.481   1.108  0.00  0.00    +0.260 A 
ENDROOT
BRANCH   1  10
ATOM     10  C   LIG    1       -2.174  -4.411  -0.001  0.00  0.00    +0.310 C 
BRANCH  10  11
ATOM     11  C   LIG    1       -2.395  -2.897   0.009  0.00  0.00    +0.020 C 
BRANCH  11  12
ATOM     12  C   LIG    1       -1.041  -2.184   0.000  0.00  0.00    +0.040 C 
BRANCH  12  13
ATOM     13  C   LIG    1       -1.262  -0.670   0.011  0.00  0.00    +0.180 C 
BRANCH  13  14
ATOM     14  O   LIG    1        0.002  -0.004   0.002  0.00  0.00    -0.310 OA
BRANCH  14  20
ATOM     15  C   LIG    1       -2.557   4.152   0.047  0.00  0.00    +0.090 C 
ATOM     16  C   LIG    1       -1.242   3.414   0.031  0.00  0.00    -0.040 A 
ATOM     17  C   LIG    1       -0.054   4.121   0.024  0.00  0.00    -0.040 A 
ATOM     18  C   LIG    1        1.153   3.447   0.009  0.00  0.00    -0.040 A 
ATOM     19  C   LIG    1        1.175   2.066   0.002  0.00  0.00    -0.030 A 
ATOM     20  C   LIG    1       -0.016   1.355   0.009  0.00  0.00    +0.140 A 
ATOM     21  C   LIG    1        2.447   4.220   0.001  0.00  0.00    +0.090 C 
ATOM     22  C   LIG    1       -1.226   2.033   0.019  0.00  0.00    -0.100 A 
ENDBRANCH  14  20
ENDBRANCH  13  14
ENDBRANCH  12  13
ENDBRANCH  11  12
ENDBRANCH  10  11
ENDBRANCH   1  10
BRANCH   9  23
ATOM     23  C   LIG    1       -3.725  -5.270   2.533  0.00  0.00    +0.400 C 
BRANCH  23  24
ATOM     24  N   LIG    1       -4.225  -3.980   3.014  0.00  0.00    -0.720 N 
ATOM     25  H   LIG    1       -4.754  -3.416   2.429  0.00  0.00    +0.410 HD
ATOM     26  C   LIG    1       -3.948  -3.576   4.270  0.00  0.00    +0.610 C 
ATOM     27  O   LIG    1       -3.284  -4.284   5.004  0.00  0.00    -0.510 OA
BRANCH  26  28
ATOM     28  C   LIG    1       -4.448  -2.285   4.753  0.00  0.00    -0.090 A 
ATOM     29  C   LIG    1       -4.247  -1.761   5.997  0.00  0.00    +0.050 A 
ATOM     30  C   LIG    1       -4.895  -0.516   6.020  0.00  0.00    -0.060 A 
ATOM     31  C   LIG    1       -5.464  -0.341   4.807  0.00  0.00    +0.210 A 
ATOM     32  O   LIG    1       -5.192  -1.409   4.046  0.00  0.00    -0.170 OA
ENDBRANCH  26  28
ENDBRANCH  23  24
ENDBRANCH   9  23
TORSDOF 9
