REMARK  Name = ZINCrg00000fLlnv.0
REMARK                            x       y       z     vdW  Elec       q    Type
REMARK                         _______ _______ _______ _____ _____    ______ ____
ROOT
ATOM      1  N   LIG    1        1.792   0.466  -0.825  0.00  0.00    -0.390 N 
ATOM      2  C   LIG    1        1.109   1.659  -0.651  0.00  0.00    -0.050 A 
ATOM      3  C   LIG    1       -0.154   1.376  -0.216  0.00  0.00    +0.150 A 
ATOM      4  C   LIG    1       -0.254  -0.024  -0.119  0.00  0.00    -0.270 A 
ATOM      5  C   LIG    1       -1.322  -0.946   0.279  0.00  0.00    +0.590 A 
ATOM      6  O   LIG    1       -2.411  -0.526   0.624  0.00  0.00    -0.490 OA
ATOM      7  N   LIG    1       -1.068  -2.272   0.254  0.00  0.00    -0.560 N 
ATOM      8  C   LIG    1       -2.116  -3.217   0.647  0.00  0.00    +0.340 C 
ATOM      9  C   LIG    1        0.134  -2.736  -0.127  0.00  0.00    +0.720 A 
ATOM     10  O   LIG    1        0.321  -3.937  -0.135  0.00  0.00    -0.530 OA
ATOM     11  N   LIG    1        1.138  -1.925  -0.499  0.00  0.00    -0.520 N 
ATOM     12  C   LIG    1        2.422  -2.504  -0.902  0.00  0.00    +0.340 C 
ATOM     13  C   LIG    1        0.979  -0.559  -0.507  0.00  0.00    +0.340 A 
ENDROOT
BRANCH   2  14
ATOM     14  C   LIG    1        1.650   2.998  -0.893  0.00  0.00    +0.600 C 
ATOM     15  N   LIG    1        0.920   4.087  -0.579  0.00  0.00    -0.650 N 
ATOM     16  H   LIG    1        0.080   3.987  -0.104  0.00  0.00    +0.420 HD
ATOM     17  O   LIG    1        2.759   3.128  -1.379  0.00  0.00    -0.520 OA
BRANCH  15  18
ATOM     18  C   LIG    1        1.374   5.361  -0.938  0.00  0.00    +0.120 A 
ATOM     19  C   LIG    1        2.733   5.597  -1.096  0.00  0.00    +0.050 A 
ATOM     20  C   LIG    1        3.178   6.856  -1.451  0.00  0.00    +0.020 A 
ATOM     21  C   LIG    1        2.272   7.881  -1.648  0.00  0.00    +0.030 A 
ATOM     22  C   LIG    1        0.918   7.652  -1.491  0.00  0.00    +0.010 A 
ATOM     23  C   LIG    1        0.464   6.394  -1.142  0.00  0.00    +0.070 A 
ATOM     24  F   LIG    1       -0.859   6.168  -0.994  0.00  0.00    -0.140 F 
ENDBRANCH  15  18
ENDBRANCH   2  14
BRANCH   1  25
ATOM     25  C   LIG    1        3.178   0.341  -1.283  0.00  0.00    +0.320 C 
BRANCH  25  26
ATOM     26  C   LIG    1        3.215   0.372  -2.812  0.00  0.00    +0.170 C 
BRANCH  26  28
ATOM     27  C   LIG    1        4.714   0.267  -4.680  0.00  0.00    +0.210 C 
ATOM     28  O   LIG    1        4.567   0.249  -3.259  0.00  0.00    -0.380 OA
ENDBRANCH  26  28
ENDBRANCH  25  26
ENDBRANCH   1  25
TORSDOF 5
