REMARK  Name = ZINCpk00000KfLve.0
REMARK                            x       y       z     vdW  Elec       q    Type
REMARK                         _______ _______ _______ _____ _____    ______ ____
ROOT
ATOM      1  N   LIG    1        0.002  -0.004   0.002  0.00  0.00    -0.530 NA
ATOM      2  C   LIG    1       -0.018   1.465   0.010  0.00  0.00    +0.170 C 
ATOM      3  C   LIG    1        1.421   1.992  -0.001  0.00  0.00    +0.280 C 
ATOM      4  N   LIG    1        2.154   1.374   1.115  0.00  0.00    -0.610 N 
ATOM      5  C   LIG    1        2.106  -0.090   1.252  0.00  0.00    +0.290 C 
ATOM      6  C   LIG    1        2.850   2.128   1.988  0.00  0.00    +0.540 C 
ATOM      7  O   LIG    1        3.449   1.602   2.901  0.00  0.00    -0.520 OA
ATOM      8  C   LIG    1        0.640  -0.535   1.214  0.00  0.00    +0.170 C 
ENDROOT
BRANCH   6   9
ATOM      9  C   LIG    1        2.885   3.626   1.828  0.00  0.00    -0.070 C 
ATOM     10  C   LIG    1        2.162   4.467   2.882  0.00  0.00    +0.060 C 
ATOM     11  C   LIG    1        3.692   4.427   2.852  0.00  0.00    +0.090 C 
BRANCH  11  12
ATOM     12  C   LIG    1        4.391   3.658   3.943  0.00  0.00    -0.200 A 
ATOM     13  C   LIG    1        5.723   3.639   4.176  0.00  0.00    +0.230 A 
ATOM     14  N   LIG    1        5.944   2.837   5.239  0.00  0.00    -0.380 N 
ATOM     15  N   LIG    1        4.706   2.339   5.668  0.00  0.00    -0.310 NA
ATOM     16  C   LIG    1        7.247   2.535   5.835  0.00  0.00    +0.340 C 
ATOM     17  C   LIG    1        3.776   2.832   4.890  0.00  0.00    +0.280 A 
ENDBRANCH  11  12
ENDBRANCH   6   9
BRANCH   1  18
ATOM     18  C   LIG    1       -1.353  -0.548  -0.161  0.00  0.00    +0.280 C 
BRANCH  18  25
ATOM     19  C   LIG    1       -1.129  -2.069  -3.018  0.00  0.00    +0.160 C 
ATOM     20  C   LIG    1       -1.174  -2.702  -1.652  0.00  0.00    +0.040 A 
ATOM     21  N   LIG    1       -1.128  -3.974  -1.380  0.00  0.00    -0.370 NA
ATOM     22  O   LIG    1       -1.190  -4.178  -0.189  0.00  0.00    +0.100 OA
ATOM     23  C   LIG    1       -1.281  -3.033   0.502  0.00  0.00    -0.030 A 
ATOM     24  C   LIG    1       -1.376  -2.888   1.999  0.00  0.00    +0.180 C 
ATOM     25  C   LIG    1       -1.272  -2.032  -0.410  0.00  0.00    -0.200 A 
ENDBRANCH  18  25
ENDBRANCH   1  18
TORSDOF 4
