REMARK  Name = ZINCrD000000fDbM.0
REMARK                            x       y       z     vdW  Elec       q    Type
REMARK                         _______ _______ _______ _____ _____    ______ ____
ROOT
ATOM      1  C   LIG    1        4.285   2.674  -1.275  0.00  0.00    +0.450 C 
ATOM      2  O   LIG    1        3.925   3.357  -2.204  0.00  0.00    -0.480 OA
ENDROOT
BRANCH   1  13
ATOM      3  C   LIG    1        4.212   5.438   0.103  0.00  0.00    +0.120 C 
ATOM      4  C   LIG    1        2.774   5.000   0.002  0.00  0.00    +0.530 C 
ATOM      5  N   LIG    1        2.467   3.688  -0.003  0.00  0.00    -0.540 N 
ATOM      6  C   LIG    1        1.170   3.167   0.013  0.00  0.00    +0.150 A 
ATOM      7  C   LIG    1       -0.053   3.840   0.036  0.00  0.00    +0.010 A 
ATOM      8  C   LIG    1       -1.236   3.131   0.048  0.00  0.00    +0.040 A 
ATOM      9  C   LIG    1       -1.220   1.749   0.032  0.00  0.00    -0.010 A 
ATOM     10  C   LIG    1       -0.012   1.076   0.014  0.00  0.00    +0.050 A 
ATOM     11  C   LIG    1        1.175   1.781   0.002  0.00  0.00    -0.140 A 
ATOM     12  C   LIG    1        2.611   1.306  -0.023  0.00  0.00    +0.140 C 
ATOM     13  C   LIG    1        3.446   2.597  -0.025  0.00  0.00    +0.270 C 
ATOM     14  O   LIG    1        1.891   5.829  -0.076  0.00  0.00    -0.510 OA
ENDBRANCH   1  13
BRANCH   1  15
ATOM     15  O   LIG    1        5.433   1.982  -1.355  0.00  0.00    -0.340 OA
BRANCH  15  16
ATOM     16  C   LIG    1        6.191   2.104  -2.588  0.00  0.00    +0.300 C 
ATOM     17  C   LIG    1        5.741   1.021  -3.571  0.00  0.00    +0.070 C 
BRANCH  16  18
ATOM     18  C   LIG    1        7.659   1.937  -2.294  0.00  0.00    +0.260 A 
ATOM     19  N   LIG    1        8.363   0.858  -2.568  0.00  0.00    -0.490 NA
ATOM     20  C   LIG    1        9.630   1.071  -2.170  0.00  0.00    -0.010 A 
ATOM     21  C   LIG    1       10.804   0.317  -2.195  0.00  0.00    +0.250 A 
ATOM     22  C   LIG    1       11.967   0.871  -1.672  0.00  0.00    -0.190 A 
ATOM     23  C   LIG    1       11.955   2.128  -1.146  0.00  0.00    +0.390 A 
ATOM     24  N   LIG    1       10.834   2.866  -1.114  0.00  0.00    -0.470 N 
ATOM     25  H   LIG    1       10.856   3.758  -0.732  0.00  0.00    +0.440 HD
ATOM     26 BR   LIG    1       13.573  -0.126  -1.691  0.00  0.00    +0.010 Br
ATOM     27  C   LIG    1        9.661   2.374  -1.613  0.00  0.00    +0.230 A 
ATOM     28  N   LIG    1        8.426   2.853  -1.717  0.00  0.00    -0.540 NA
ENDBRANCH  16  18
ENDBRANCH  15  16
ENDBRANCH   1  15
TORSDOF 4
