REMARK  Name = ZINCvU0000000Geg.0
REMARK                            x       y       z     vdW  Elec       q    Type
REMARK                         _______ _______ _______ _____ _____    ______ ____
ROOT
ATOM      1  C   LIG    1        8.933   2.700  -0.057  0.00  0.00    -0.040 A 
ATOM      2  C   LIG    1        9.950   3.562  -0.057  0.00  0.00    +0.010 A 
ATOM      3  S   LIG    1        9.380   5.220  -0.058  0.00  0.00    +0.200 S 
ATOM      4  C   LIG    1        7.696   4.718  -0.045  0.00  0.00    +0.100 A 
ATOM      5  N   LIG    1        6.567   5.434  -0.030  0.00  0.00    -0.450 NA
ATOM      6  C   LIG    1        5.386   4.844  -0.022  0.00  0.00    +0.390 A 
ATOM      7  N   LIG    1        5.261   3.521  -0.029  0.00  0.00    -0.440 NA
ATOM      8  C   LIG    1        6.325   2.735  -0.044  0.00  0.00    +0.170 A 
ATOM      9  C   LIG    1        7.617   3.323  -0.047  0.00  0.00    -0.150 A 
ENDROOT
BRANCH   1  13
ATOM     10  C   LIG    1        9.488  -1.514  -0.082  0.00  0.00    +0.020 A 
ATOM     11  C   LIG    1       10.158  -0.726  -1.000  0.00  0.00    +0.020 A 
ATOM     12  C   LIG    1        9.982   0.643  -0.997  0.00  0.00    +0.030 A 
ATOM     13  C   LIG    1        9.127   1.231  -0.066  0.00  0.00    -0.040 A 
ATOM     14  C   LIG    1        8.458   0.431   0.861  0.00  0.00    +0.030 A 
ATOM     15  C   LIG    1        8.638  -0.937   0.844  0.00  0.00    +0.030 A 
ENDBRANCH   1  13
BRANCH   6  16
ATOM     16  C   LIG    1        4.162   5.682  -0.006  0.00  0.00    +0.160 A 
ATOM     17  C   LIG    1        2.909   5.075   0.002  0.00  0.00    +0.060 A 
ATOM     18  C   LIG    1        1.776   5.871   0.018  0.00  0.00    +0.060 A 
ATOM     19  C   LIG    1        1.934   7.249   0.025  0.00  0.00    -0.010 A 
ATOM     20  C   LIG    1        3.210   7.785   0.016  0.00  0.00    +0.250 A 
ATOM     21  N   LIG    1        4.271   7.005   0.006  0.00  0.00    -0.440 NA
ENDBRANCH   6  16
BRANCH   8  22
ATOM     22  S   LIG    1        6.142   0.983  -0.052  0.00  0.00    +0.260 S 
BRANCH  22  23
ATOM     23  C   LIG    1        4.384   0.859  -0.035  0.00  0.00    +0.200 A 
ATOM     24  N   LIG    1        3.700  -0.267  -0.035  0.00  0.00    -0.310 NA
ATOM     25  N   LIG    1        2.342   0.079  -0.020  0.00  0.00    -0.320 N 
ATOM     26  C   LIG    1        1.196  -0.651  -0.013  0.00  0.00    +0.350 A 
ATOM     27  C   LIG    1        0.002  -0.004   0.002  0.00  0.00    -0.040 A 
ATOM     28  C   LIG    1       -0.017   1.395   0.010  0.00  0.00    +0.400 A 
ATOM     29  N   LIG    1        1.109   2.074   0.003  0.00  0.00    -0.450 NA
ATOM     30  C   LIG    1        2.289   1.444  -0.012  0.00  0.00    +0.430 A 
ATOM     31  N   LIG    1        3.541   1.889  -0.021  0.00  0.00    -0.460 NA
ENDBRANCH  22  23
ENDBRANCH   8  22
TORSDOF 4
