REMARK  Name = ZINCb80000001Oeo.0
REMARK                            x       y       z     vdW  Elec       q    Type
REMARK                         _______ _______ _______ _____ _____    ______ ____
ROOT
ATOM      1  C   LIG    1        1.280   1.980   0.001  0.00  0.00    +0.070 C 
ATOM      2  C   LIG    1        2.445   1.022  -0.267  0.00  0.00    +0.050 C 
ATOM      3  C   LIG    1        3.761   1.803  -0.195  0.00  0.00    +0.010 C 
ATOM      4  C   LIG    1        3.869   2.482   1.173  0.00  0.00    +0.210 C 
ATOM      5  O   LIG    1        2.740   3.334   1.370  0.00  0.00    -0.360 OA
ATOM      6  F   LIG    1        1.238   2.954  -1.002  0.00  0.00    -0.180 F 
ATOM      7  C   LIG    1        1.484   2.652   1.361  0.00  0.00    +0.240 C 
ENDROOT
BRANCH   1  11
ATOM      8  C   LIG    1       -2.449   1.117   0.020  0.00  0.00    +0.280 C 
ATOM      9  N   LIG    1       -1.191   1.867   0.018  0.00  0.00    -0.720 N 
ATOM     10  H   LIG    1       -1.204   2.837   0.023  0.00  0.00    +0.410 HD
ATOM     11  C   LIG    1       -0.014   1.209   0.009  0.00  0.00    +0.500 C 
ATOM     12  O   LIG    1        0.002  -0.004   0.002  0.00  0.00    -0.520 OA
ENDBRANCH   1  11
TORSDOF 1
