REMARK  Name = ZINCqH0000000kh8.0
REMARK                            x       y       z     vdW  Elec       q    Type
REMARK                         _______ _______ _______ _____ _____    ______ ____
ROOT
ATOM      1  N   LIG    1        3.709   3.855   0.858  0.00  0.00    -0.450 N 
ATOM      2  C   LIG    1        4.010   5.183   0.740  0.00  0.00    +0.170 A 
ATOM      3  N   LIG    1        2.877   5.827   0.580  0.00  0.00    -0.280 NA
ATOM      4  N   LIG    1        1.893   5.000   0.584  0.00  0.00    -0.250 NA
ATOM      5  C   LIG    1        2.338   3.775   0.756  0.00  0.00    +0.260 A 
ENDROOT
BRANCH   5   6
ATOM      6  C   LIG    1        1.526   2.550   0.821  0.00  0.00    +0.040 A 
ATOM      7  C   LIG    1        0.177   2.493   1.006  0.00  0.00    +0.030 A 
ATOM      8  C   LIG    1       -0.177   1.130   0.995  0.00  0.00    -0.050 A 
ATOM      9  C   LIG    1        0.960   0.428   0.816  0.00  0.00    +0.200 A 
ATOM     10  O   LIG    1        1.986   1.288   0.708  0.00  0.00    -0.170 OA
ENDBRANCH   5   6
BRANCH   1  11
ATOM     11  C   LIG    1        4.649   2.748   1.053  0.00  0.00    +0.350 C 
BRANCH  11  13
ATOM     12  C   LIG    1        6.359   2.146  -0.582  0.00  0.00    +0.070 C 
ATOM     13  C   LIG    1        5.085   2.217  -0.288  0.00  0.00    -0.070 C 
ENDBRANCH  11  13
ENDBRANCH   1  11
BRANCH   2  14
ATOM     14  S   LIG    1        5.620   5.898   0.793  0.00  0.00    +0.020 S 
BRANCH  14  15
ATOM     15  C   LIG    1        5.196   7.644   0.573  0.00  0.00    +0.160 C 
BRANCH  15  16
ATOM     16  C   LIG    1        6.455   8.472   0.585  0.00  0.00    -0.090 A 
ATOM     17  C   LIG    1        6.933   8.983   1.779  0.00  0.00    +0.060 A 
ATOM     18  C   LIG    1        8.091   9.740   1.800  0.00  0.00    +0.020 A 
ATOM     19  C   LIG    1        8.771   9.999   0.627  0.00  0.00    +0.050 A 
ATOM     20  C   LIG    1        8.290   9.491  -0.581  0.00  0.00    -0.130 A 
ATOM     21  C   LIG    1        7.125   8.724  -0.594  0.00  0.00    +0.100 A 
BRANCH  20  22
ATOM     22  C   LIG    1        9.014   9.764  -1.841  0.00  0.00    +0.560 C 
ATOM     23  N   LIG    1        9.559  10.978  -2.055  0.00  0.00    -0.620 N 
ATOM     24  C   LIG    1        9.528  11.992  -0.998  0.00  0.00    +0.290 C 
ATOM     25  C   LIG    1       10.184  11.283  -3.345  0.00  0.00    +0.290 C 
ATOM     26  O   LIG    1        9.117   8.895  -2.684  0.00  0.00    -0.530 OA
ENDBRANCH  20  22
ENDBRANCH  15  16
ENDBRANCH  14  15
ENDBRANCH   2  14
TORSDOF 7
