REMARK  Name = ZINCpk00000e9ktE.0
REMARK                            x       y       z     vdW  Elec       q    Type
REMARK                         _______ _______ _______ _____ _____    ______ ____
ROOT
ATOM      1  S   LIG    1        0.025  -0.359  -1.001  0.00  0.00    +2.720 S 
ATOM      2  O   LIG    1       -0.492   0.925  -1.322  0.00  0.00    -0.940 OA
ATOM      3  O   LIG    1       -0.662  -1.568  -1.290  0.00  0.00    -0.950 OA
ENDROOT
BRANCH   1   4
ATOM      4  C   LIG    1        1.594  -0.476  -1.794  0.00  0.00    -0.810 A 
ATOM      5  C   LIG    1        2.503  -1.463  -1.618  0.00  0.00    +0.220 A 
ATOM      6  N   LIG    1        3.568  -1.187  -2.404  0.00  0.00    -0.310 N 
ATOM      7  N   LIG    1        3.302   0.009  -3.084  0.00  0.00    -0.280 NA
ATOM      8  C   LIG    1        2.355  -2.656  -0.710  0.00  0.00    +0.160 C 
ATOM      9  C   LIG    1        2.117   0.431  -2.721  0.00  0.00    +0.350 A 
BRANCH   6  10
ATOM     10  C   LIG    1        4.732  -1.960  -2.519  0.00  0.00    +0.120 A 
ATOM     11  C   LIG    1        5.342  -2.470  -1.381  0.00  0.00    +0.050 A 
ATOM     12  C   LIG    1        6.486  -3.236  -1.496  0.00  0.00    +0.020 A 
ATOM     13  C   LIG    1        7.030  -3.485  -2.744  0.00  0.00    +0.110 A 
ATOM     14  C   LIG    1        6.426  -2.973  -3.880  0.00  0.00    +0.020 A 
ATOM     15  F   LIG    1        8.152  -4.230  -2.855  0.00  0.00    -0.130 F 
ATOM     16  C   LIG    1        5.280  -2.211  -3.770  0.00  0.00    +0.080 A 
ENDBRANCH   6  10
ENDBRANCH   1   4
BRANCH   1  17
ATOM     17  N   LIG    1        0.300  -0.357   0.632  0.00  0.00    -0.980 NA
BRANCH  17  18
ATOM     18  C   LIG    1        0.735   0.872   1.300  0.00  0.00    +0.310 C 
ATOM     19  C   LIG    1        2.263   0.896   1.381  0.00  0.00    +0.010 C 
ENDBRANCH  17  18
BRANCH  17  20
ATOM     20  C   LIG    1        0.109  -1.584   1.409  0.00  0.00    +0.320 C 
BRANCH  20  23
ATOM     21  N   LIG    1       -1.628  -2.571   2.868  0.00  0.00    -0.730 N 
ATOM     22  H   LIG    1       -1.048  -3.340   2.985  0.00  0.00    +0.400 HD
ATOM     23  C   LIG    1       -1.233  -1.542   2.093  0.00  0.00    +0.490 C 
ATOM     24  O   LIG    1       -1.958  -0.580   1.946  0.00  0.00    -0.520 OA
BRANCH  21  26
ATOM     25  C   LIG    1       -3.132  -3.812   4.344  0.00  0.00    +0.030 C 
ATOM     26  C   LIG    1       -2.932  -2.530   3.533  0.00  0.00    +0.250 C 
ENDBRANCH  21  26
ENDBRANCH  20  23
ENDBRANCH  17  20
ENDBRANCH   1  17
TORSDOF 7
