REMARK  Name = ZINCpe000000ZxI0.0
REMARK                            x       y       z     vdW  Elec       q    Type
REMARK                         _______ _______ _______ _____ _____    ______ ____
ROOT
ATOM      1  S   LIG    1        0.590  -0.027   0.416  0.00  0.00    +2.630 S 
ATOM      2  O   LIG    1       -0.718  -0.578   0.486  0.00  0.00    -0.940 OA
ATOM      3  O   LIG    1        1.625  -0.484   1.275  0.00  0.00    -0.930 OA
ENDROOT
BRANCH   1   7
ATOM      4  C   LIG    1        2.529  -0.920  -3.014  0.00  0.00    +0.260 C 
ATOM      5  C   LIG    1        1.158  -0.379  -3.499  0.00  0.00    +0.040 C 
ATOM      6  C   LIG    1        0.256  -0.677  -2.273  0.00  0.00    +0.270 C 
ATOM      7  N   LIG    1        1.117  -0.421  -1.104  0.00  0.00    -1.010 NA
ATOM      8  C   LIG    1        2.522  -0.579  -1.509  0.00  0.00    +0.270 C 
BRANCH   4  14
ATOM      9  O   LIG    1        4.668  -2.445  -4.180  0.00  0.00    -0.530 OA
ATOM     10  C   LIG    1        3.663  -2.994  -3.779  0.00  0.00    +0.520 C 
ATOM     11  C   LIG    1        3.409  -4.485  -3.838  0.00  0.00    +0.050 C 
ATOM     12  C   LIG    1        1.886  -4.619  -3.611  0.00  0.00    +0.040 C 
ATOM     13  C   LIG    1        1.571  -3.323  -2.827  0.00  0.00    +0.250 C 
ATOM     14  N   LIG    1        2.615  -2.369  -3.217  0.00  0.00    -0.610 N 
ENDBRANCH   4  14
ENDBRANCH   1   7
BRANCH   1  15
ATOM     15  C   LIG    1        0.518   1.786   0.414  0.00  0.00    -0.320 C 
BRANCH  15  16
ATOM     16  C   LIG    1        0.038   2.278   1.781  0.00  0.00    +0.160 C 
ATOM     17  C   LIG    1       -0.131   3.803   1.752  0.00  0.00    +0.250 C 
ATOM     18  O   LIG    1       -0.566   4.231   3.047  0.00  0.00    -0.300 OA
ATOM     19  C   LIG    1        0.096   3.713   4.117  0.00  0.00    +0.050 A 
ATOM     20  C   LIG    1       -0.019   4.330   5.353  0.00  0.00    +0.030 A 
ATOM     21  C   LIG    1        0.641   3.812   6.451  0.00  0.00    +0.030 A 
ATOM     22  C   LIG    1        1.419   2.677   6.320  0.00  0.00    +0.030 A 
ATOM     23  C   LIG    1        1.539   2.057   5.091  0.00  0.00    +0.030 A 
ATOM     24  C   LIG    1        0.880   2.572   3.985  0.00  0.00    +0.050 A 
ATOM     25  O   LIG    1        1.010   1.953   2.780  0.00  0.00    -0.300 OA
ENDBRANCH  15  16
ENDBRANCH   1  15
TORSDOF 4
