REMARK  Name = ZINCkj000005jnoL.1
REMARK                            x       y       z     vdW  Elec       q    Type
REMARK                         _______ _______ _______ _____ _____    ______ ____
ROOT
ATOM      1  C   LIG    1        1.638   7.103  -1.254  0.00  0.00    +0.100 C 
ATOM      2  C   LIG    1        1.779   5.580  -1.201  0.00  0.00    +0.140 C 
ATOM      3  C   LIG    1        0.395   4.935  -1.314  0.00  0.00    +0.260 C 
ATOM      4  O   LIG    1        0.526   3.515  -1.208  0.00  0.00    -0.340 OA
ATOM      5  C   LIG    1        1.145   3.085   0.008  0.00  0.00    +0.160 C 
ATOM      6  C   LIG    1        2.530   3.727   0.124  0.00  0.00    +0.240 C 
ATOM      7  N   LIG    1        2.396   5.189   0.074  0.00  0.00    -0.380 N 
ATOM      8  H   LIG    1        3.308   5.613   0.151  0.00  0.00    +0.420 HD
ENDROOT
BRANCH   5   9
ATOM      9  C   LIG    1        1.286   1.562  -0.002  0.00  0.00    +0.230 C 
BRANCH   9  10
ATOM     10  O   LIG    1       -0.011   0.963   0.007  0.00  0.00    -0.560 OA
ATOM     11  H   LIG    1        0.002  -0.004   0.002  0.00  0.00    +0.400 HD
ENDBRANCH   9  10
ENDBRANCH   5   9
BRANCH   7  12
ATOM     12  C   LIG    1        1.550   5.641   1.187  0.00  0.00    +0.300 C 
BRANCH  12  13
ATOM     13  C   LIG    1        2.241   5.348   2.494  0.00  0.00    -0.150 A 
ATOM     14  C   LIG    1        1.873   4.242   3.233  0.00  0.00    +0.040 A 
ATOM     15  C   LIG    1        2.511   3.969   4.429  0.00  0.00    +0.030 A 
ATOM     16  C   LIG    1        3.505   4.812   4.886  0.00  0.00    +0.060 A 
ATOM     17  C   LIG    1        3.869   5.928   4.149  0.00  0.00    -0.110 A 
ATOM     18  C   LIG    1        4.954   6.827   4.684  0.00  0.00    +0.290 C 
ATOM     19  O   LIG    1        5.440   7.684   3.652  0.00  0.00    -0.370 OA
ATOM     20  C   LIG    1        4.398   8.391   2.970  0.00  0.00    +0.240 C 
ATOM     21  C   LIG    1        3.612   7.393   2.118  0.00  0.00    +0.040 C 
ATOM     22  C   LIG    1        3.238   6.194   2.952  0.00  0.00    -0.050 A 
ENDBRANCH  12  13
ENDBRANCH   7  12
TORSDOF 4
