REMARK  Name = ZINCkj000005jnoL.2
REMARK                            x       y       z     vdW  Elec       q    Type
REMARK                         _______ _______ _______ _____ _____    ______ ____
ROOT
ATOM      1  C   LIG    1       -0.001   1.262   0.358  0.00  0.00    +0.100 C 
ATOM      2  C   LIG    1       -0.877   1.851   1.466  0.00  0.00    +0.140 C 
ATOM      3  C   LIG    1       -0.254   1.541   2.829  0.00  0.00    +0.260 C 
ATOM      4  O   LIG    1       -1.105   2.045   3.862  0.00  0.00    -0.340 OA
ATOM      5  C   LIG    1       -2.432   1.514   3.822  0.00  0.00    +0.160 C 
ATOM      6  C   LIG    1       -3.059   1.825   2.461  0.00  0.00    +0.240 C 
ATOM      7  N   LIG    1       -2.219   1.258   1.397  0.00  0.00    -0.380 N 
ATOM      8  H   LIG    1       -2.152   0.258   1.518  0.00  0.00    +0.420 HD
ENDROOT
BRANCH   5   9
ATOM      9  C   LIG    1       -3.272   2.155   4.929  0.00  0.00    +0.230 C 
BRANCH   9  10
ATOM     10  O   LIG    1       -2.751   1.773   6.204  0.00  0.00    -0.560 OA
ATOM     11  H   LIG    1       -3.235   2.144   6.954  0.00  0.00    +0.400 HD
ENDBRANCH   9  10
ENDBRANCH   5   9
BRANCH   7  12
ATOM     12  C   LIG    1       -2.819   1.554   0.089  0.00  0.00    +0.320 C 
BRANCH  12  13
ATOM     13  C   LIG    1       -4.141   0.841  -0.030  0.00  0.00    -0.160 A 
ATOM     14  C   LIG    1       -5.316   1.530   0.195  0.00  0.00    +0.040 A 
ATOM     15  C   LIG    1       -6.530   0.876   0.086  0.00  0.00    +0.030 A 
ATOM     16  C   LIG    1       -6.562  -0.464  -0.244  0.00  0.00    +0.060 A 
ATOM     17  C   LIG    1       -5.383  -1.157  -0.470  0.00  0.00    -0.110 A 
ATOM     18  C   LIG    1       -5.459  -2.620  -0.823  0.00  0.00    +0.290 C 
ATOM     19  O   LIG    1       -4.218  -3.061  -1.372  0.00  0.00    -0.360 OA
ATOM     20  C   LIG    1       -3.091  -2.732  -0.551  0.00  0.00    +0.220 C 
ATOM     21  C   LIG    1       -2.870  -1.220  -0.615  0.00  0.00    +0.040 C 
ATOM     22  C   LIG    1       -4.173  -0.502  -0.370  0.00  0.00    -0.050 A 
ENDBRANCH  12  13
ENDBRANCH   7  12
TORSDOF 4
