REMARK  Name = ZINCrH000004rkZx.0
REMARK                            x       y       z     vdW  Elec       q    Type
REMARK                         _______ _______ _______ _____ _____    ______ ____
ROOT
ATOM      1  C   LIG    1        5.270   6.446  -0.323  0.00  0.00    +0.560 C 
ATOM      2  N   LIG    1        4.882   5.159  -0.226  0.00  0.00    -0.670 N 
ATOM      3  H   LIG    1        5.544   4.451  -0.232  0.00  0.00    +0.410 HD
ATOM      4  O   LIG    1        4.450   7.338  -0.219  0.00  0.00    -0.500 OA
ENDROOT
BRANCH   1  10
ATOM      5  C   LIG    1        9.978   4.960  -1.024  0.00  0.00    +0.100 C 
ATOM      6  C   LIG    1        8.959   6.063  -0.894  0.00  0.00    -0.090 A 
ATOM      7  C   LIG    1        9.360   7.385  -0.994  0.00  0.00    +0.060 A 
ATOM      8  C   LIG    1        8.437   8.406  -0.877  0.00  0.00    +0.020 A 
ATOM      9  C   LIG    1        7.098   8.111  -0.664  0.00  0.00    +0.200 A 
ATOM     10  C   LIG    1        6.689   6.773  -0.556  0.00  0.00    -0.130 A 
ATOM     11  C   LIG    1        7.635   5.752  -0.677  0.00  0.00    +0.050 A 
BRANCH   9  12
ATOM     12  N   LIG    1        6.164   9.139  -0.551  0.00  0.00    -0.570 N 
ATOM     13  C   LIG    1        5.792   9.785   0.713  0.00  0.00    +0.270 C 
ATOM     14  C   LIG    1        5.098  11.106   0.309  0.00  0.00    +0.040 C 
ATOM     15  C   LIG    1        4.566  10.763  -1.101  0.00  0.00    +0.060 C 
ATOM     16  C   LIG    1        5.484   9.662  -1.586  0.00  0.00    +0.540 C 
ATOM     17  O   LIG    1        5.590   9.304  -2.740  0.00  0.00    -0.530 OA
ENDBRANCH   9  12
ENDBRANCH   1  10
BRANCH   2  18
ATOM     18  C   LIG    1        3.523   4.845  -0.116  0.00  0.00    +0.150 A 
ATOM     19  C   LIG    1        3.123   3.747   0.635  0.00  0.00    -0.010 A 
ATOM     20  C   LIG    1        1.781   3.433   0.745  0.00  0.00    +0.030 A 
ATOM     21  C   LIG    1        0.832   4.210   0.112  0.00  0.00    +0.020 A 
ATOM     22  C   LIG    1        1.225   5.314  -0.643  0.00  0.00    +0.000 A 
ATOM     23  C   LIG    1        2.576   5.627  -0.760  0.00  0.00    +0.050 A 
BRANCH  22  24
ATOM     24  C   LIG    1        0.205   6.150  -1.325  0.00  0.00    +0.110 A 
ATOM     25  N   LIG    1        0.447   7.157  -2.138  0.00  0.00    -0.280 NA
ATOM     26  N   LIG    1       -0.781   7.676  -2.565  0.00  0.00    -0.470 N 
ATOM     27  H   LIG    1       -0.904   8.424  -3.171  0.00  0.00    +0.440 HD
ATOM     28  C   LIG    1       -1.766   6.954  -1.988  0.00  0.00    +0.240 A 
ATOM     29  C   LIG    1       -1.192   6.005  -1.218  0.00  0.00    -0.110 A 
ENDBRANCH  22  24
ENDBRANCH   2  18
TORSDOF 4
