REMARK  Name = ZINCrg000012mWrt.0
REMARK                            x       y       z     vdW  Elec       q    Type
REMARK                         _______ _______ _______ _____ _____    ______ ____
ROOT
ATOM      1  C   LIG    1       -4.104  -5.097   0.040  0.00  0.00    +0.510 C 
ATOM      2  N   LIG    1       -3.023  -5.873  -0.177  0.00  0.00    -0.600 N 
ATOM      3  C   LIG    1       -2.924  -7.131   0.507  0.00  0.00    +0.290 C 
ATOM      4  C   LIG    1       -2.279  -6.874   1.879  0.00  0.00    -0.010 C 
ATOM      5  C   LIG    1       -0.821  -6.707   1.776  0.00  0.00    +0.290 C 
ATOM      6  N   LIG    1       -0.494  -5.582   0.868  0.00  0.00    -0.600 N 
ATOM      7  C   LIG    1       -0.581  -5.758  -0.554  0.00  0.00    +0.280 C 
ATOM      8  C   LIG    1       -0.120  -4.392   1.378  0.00  0.00    +0.600 C 
ATOM      9  O   LIG    1        0.040  -4.267   2.577  0.00  0.00    -0.540 OA
ATOM     10  C   LIG    1       -1.972  -5.398  -1.117  0.00  0.00    +0.260 C 
ATOM     11  O   LIG    1       -4.972  -5.466   0.802  0.00  0.00    -0.530 OA
ENDROOT
BRANCH   8  12
ATOM     12  C   LIG    1        0.094  -3.241   0.482  0.00  0.00    -0.300 A 
ATOM     13  C   LIG    1        0.601  -2.007   0.839  0.00  0.00    +0.320 A 
ATOM     14  N   LIG    1        0.632  -1.249  -0.268  0.00  0.00    -0.360 N 
ATOM     15  N   LIG    1        0.136  -2.005  -1.337  0.00  0.00    -0.290 NA
ATOM     16  C   LIG    1        1.100   0.137  -0.344  0.00  0.00    +0.360 C 
ATOM     17  C   LIG    1       -0.181  -3.193  -0.903  0.00  0.00    +0.250 A 
ENDBRANCH   8  12
BRANCH   1  18
ATOM     18  C   LIG    1       -4.234  -3.772  -0.666  0.00  0.00    +0.050 C 
BRANCH  18  19
ATOM     19  C   LIG    1       -5.541  -3.097  -0.247  0.00  0.00    +0.030 C 
BRANCH  19  20
ATOM     20  C   LIG    1       -5.733  -1.812  -1.055  0.00  0.00    +0.030 C 
BRANCH  20  22
ATOM     21  C   LIG    1       -7.246  -2.928  -2.701  0.00  0.00    +0.020 C 
ATOM     22  C   LIG    1       -5.932  -2.163  -2.531  0.00  0.00    -0.020 C 
ATOM     23  C   LIG    1       -5.980  -0.877  -3.359  0.00  0.00    +0.000 C 
ENDBRANCH  20  22
ENDBRANCH  19  20
BRANCH  19  24
ATOM     24  C   LIG    1       -5.485  -2.758   1.244  0.00  0.00    +0.050 C 
BRANCH  24  25
ATOM     25  C   LIG    1       -6.826  -2.234   1.690  0.00  0.00    +0.520 C 
ATOM     26  O   LIG    1       -7.768  -2.248   0.926  0.00  0.00    -0.540 OA
ATOM     27  N   LIG    1       -6.978  -1.750   2.939  0.00  0.00    -0.860 N 
ATOM     28  H   LIG    1       -7.841  -1.413   3.226  0.00  0.00    +0.400 HD
ATOM     29  H   LIG    1       -6.225  -1.739   3.550  0.00  0.00    +0.400 HD
ENDBRANCH  24  25
ENDBRANCH  19  24
ENDBRANCH  18  19
ENDBRANCH   1  18
TORSDOF 7
