REMARK  Name = ZINCpe000015AQ7H.0
REMARK                            x       y       z     vdW  Elec       q    Type
REMARK                         _______ _______ _______ _____ _____    ______ ____
ROOT
ATOM      1  C   LIG    1       -5.709  -4.816  -2.359  0.00  0.00    +0.040 C 
ATOM      2  C   LIG    1       -4.388  -4.465  -1.671  0.00  0.00    +0.210 C 
ATOM      3  C   LIG    1       -4.566  -3.216  -0.777  0.00  0.00    +0.070 C 
ATOM      4  C   LIG    1       -3.209  -2.509  -0.957  0.00  0.00    -0.100 C 
ATOM      5  C   LIG    1       -2.693  -2.999  -2.287  0.00  0.00    +0.530 C 
ATOM      6  O   LIG    1       -1.795  -2.484  -2.918  0.00  0.00    -0.520 OA
ATOM      7  C   LIG    1       -2.258  -2.906   0.168  0.00  0.00    +0.070 C 
ATOM      8  C   LIG    1       -0.933  -2.158  -0.000  0.00  0.00    +0.230 C 
ATOM      9  N   LIG    1       -1.183  -0.711   0.010  0.00  0.00    -0.440 N 
ATOM     10  C   LIG    1       -2.042  -0.310  -1.112  0.00  0.00    +0.230 C 
ATOM     11  C   LIG    1       -3.405  -0.996  -0.981  0.00  0.00    +0.080 C 
ATOM     12  N   LIG    1       -3.378  -4.092  -2.669  0.00  0.00    -0.730 N 
ATOM     13  H   LIG    1       -3.225  -4.572  -3.498  0.00  0.00    +0.410 HD
ENDROOT
BRANCH   9  14
ATOM     14  C   LIG    1        0.002  -0.004   0.002  0.00  0.00    +0.580 A 
ATOM     15  N   LIG    1        1.164  -0.652  -0.013  0.00  0.00    -0.590 NA
ATOM     16  C   LIG    1        2.301   0.025  -0.020  0.00  0.00    +0.460 A 
ATOM     17  N   LIG    1        2.286   1.348  -0.013  0.00  0.00    -0.600 NA
ATOM     18  C   LIG    1        1.127   2.002   0.002  0.00  0.00    +0.570 A 
ATOM     19 CL   LIG    1        3.815  -0.824  -0.038  0.00  0.00    +0.050 Cl
ATOM     20  N   LIG    1       -0.016   1.325   0.009  0.00  0.00    -0.570 NA
BRANCH  18  21
ATOM     21  N   LIG    1        1.113   3.381   0.010  0.00  0.00    -0.450 N 
ATOM     22  C   LIG    1        0.336   3.906  -1.123  0.00  0.00    +0.200 C 
ATOM     23  C   LIG    1        0.296   5.435  -1.043  0.00  0.00    +0.240 C 
ATOM     24  O   LIG    1        1.633   5.941  -1.022  0.00  0.00    -0.380 OA
ATOM     25  C   LIG    1        2.418   5.451   0.069  0.00  0.00    +0.230 C 
ATOM     26  C   LIG    1        2.480   3.923  -0.001  0.00  0.00    +0.200 C 
ENDBRANCH  18  21
ENDBRANCH   9  14
TORSDOF 2
