REMARK  Name = ZINCrH000004vCW7.0
REMARK                            x       y       z     vdW  Elec       q    Type
REMARK                         _______ _______ _______ _____ _____    ______ ____
ROOT
ATOM      1  O   LIG    1       -4.448   2.034  -1.487  0.00  0.00    -0.510 OA
ATOM      2  C   LIG    1       -4.058   1.821  -0.355  0.00  0.00    +0.560 C 
ATOM      3  N   LIG    1       -2.968   1.055  -0.152  0.00  0.00    -0.610 N 
ATOM      4  C   LIG    1       -2.187   0.547  -1.289  0.00  0.00    +0.280 C 
ATOM      5  C   LIG    1       -0.720   0.941  -1.095  0.00  0.00    +0.060 C 
ATOM      6  C   LIG    1       -0.238   0.444   0.271  0.00  0.00    +0.000 C 
ATOM      7  C   LIG    1       -1.066   1.103   1.376  0.00  0.00    +0.040 C 
ATOM      8  C   LIG    1       -2.538   0.711   1.210  0.00  0.00    +0.280 C 
ENDROOT
BRANCH   6   9
ATOM      9  C   LIG    1        1.214   0.800   0.451  0.00  0.00    +0.520 C 
ATOM     10  N   LIG    1        1.884   0.369   1.538  0.00  0.00    -0.610 N 
ATOM     11  C   LIG    1        1.244  -0.504   2.536  0.00  0.00    +0.280 C 
ATOM     12  C   LIG    1        1.980  -1.848   2.518  0.00  0.00    +0.070 C 
ATOM     13  C   LIG    1        3.471  -1.642   2.562  0.00  0.00    -0.070 A 
ATOM     14  C   LIG    1        4.258  -2.713   2.969  0.00  0.00    +0.000 A 
ATOM     15  C   LIG    1        5.631  -2.595   3.019  0.00  0.00    +0.000 A 
ATOM     16  C   LIG    1        6.233  -1.403   2.663  0.00  0.00    +0.000 A 
ATOM     17  C   LIG    1        5.454  -0.336   2.263  0.00  0.00    +0.010 A 
ATOM     18  C   LIG    1        4.072  -0.452   2.215  0.00  0.00    -0.090 A 
ATOM     19  C   LIG    1        3.279   0.754   1.778  0.00  0.00    +0.330 C 
ATOM     20  O   LIG    1        1.781   1.476  -0.382  0.00  0.00    -0.530 OA
ENDBRANCH   6   9
BRANCH   2  21
ATOM     21  C   LIG    1       -4.778   2.402   0.797  0.00  0.00    -0.120 A 
ATOM     22  C   LIG    1       -5.229   1.578   1.829  0.00  0.00    +0.060 A 
ATOM     23  C   LIG    1       -5.901   2.127   2.902  0.00  0.00    +0.020 A 
ATOM     24  C   LIG    1       -6.128   3.491   2.957  0.00  0.00    +0.050 A 
ATOM     25  C   LIG    1       -5.685   4.314   1.938  0.00  0.00    +0.030 A 
ATOM     26  C   LIG    1       -5.005   3.779   0.860  0.00  0.00    +0.000 A 
ATOM     27 CL   LIG    1       -4.442   4.814  -0.414  0.00  0.00    -0.040 Cl
ENDBRANCH   2  21
TORSDOF 2
