REMARK  Name = ZINCqH0000050A3b.0
REMARK                            x       y       z     vdW  Elec       q    Type
REMARK                         _______ _______ _______ _____ _____    ______ ____
ROOT
ATOM      1  C   LIG    1        4.341   8.536  -1.442  0.00  0.00    +0.520 C 
ATOM      2  N   LIG    1        4.083   7.335  -0.887  0.00  0.00    -0.720 N 
ATOM      3  H   LIG    1        4.656   6.577  -1.082  0.00  0.00    +0.400 HD
ATOM      4  O   LIG    1        3.625   9.484  -1.198  0.00  0.00    -0.510 OA
ENDROOT
BRANCH   2   5
ATOM      5  C   LIG    1        2.938   7.175   0.012  0.00  0.00    +0.290 C 
ATOM      6  C   LIG    1        3.342   7.581   1.431  0.00  0.00    +0.040 C 
BRANCH   5   7
ATOM      7  C   LIG    1        2.494   5.735   0.009  0.00  0.00    -0.100 A 
ATOM      8  C   LIG    1        1.146   5.429   0.021  0.00  0.00    +0.060 A 
ATOM      9  C   LIG    1        0.736   4.109   0.018  0.00  0.00    +0.010 A 
ATOM     10  C   LIG    1        1.679   3.091   0.003  0.00  0.00    +0.140 A 
ATOM     11  C   LIG    1        3.032   3.402  -0.003  0.00  0.00    +0.000 A 
ATOM     12  C   LIG    1        3.436   4.723  -0.006  0.00  0.00    +0.040 A 
BRANCH  10  13
ATOM     13  N   LIG    1        1.266   1.751  -0.001  0.00  0.00    -0.410 N 
ATOM     14  C   LIG    1        2.079   0.647  -0.014  0.00  0.00    +0.120 A 
ATOM     15  C   LIG    1        1.273  -0.431  -0.012  0.00  0.00    +0.160 A 
ATOM     16  N   LIG    1        0.002  -0.004   0.002  0.00  0.00    -0.480 NA
ATOM     17  C   LIG    1       -0.016   1.301   0.009  0.00  0.00    +0.400 A 
ENDBRANCH  10  13
ENDBRANCH   5   7
ENDBRANCH   2   5
BRANCH   1  18
ATOM     18  C   LIG    1        5.520   8.700  -2.367  0.00  0.00    +0.220 C 
BRANCH  18  19
ATOM     19  O   LIG    1        5.582  10.053  -2.824  0.00  0.00    -0.290 OA
BRANCH  19  25
ATOM     20  C   LIG    1        7.877  13.396  -5.541  0.00  0.00    +0.090 C 
ATOM     21  C   LIG    1        7.745  11.989  -5.016  0.00  0.00    -0.050 A 
ATOM     22  C   LIG    1        8.656  11.022  -5.399  0.00  0.00    -0.030 A 
ATOM     23  C   LIG    1        8.538   9.730  -4.920  0.00  0.00    +0.050 A 
ATOM     24  C   LIG    1        7.513   9.405  -4.053  0.00  0.00    -0.080 A 
ATOM     25  C   LIG    1        6.595  10.372  -3.672  0.00  0.00    +0.130 A 
ATOM     26  C   LIG    1        6.715  11.667  -4.154  0.00  0.00    -0.110 A 
ATOM     27  C   LIG    1        5.723  12.722  -3.738  0.00  0.00    +0.100 C 
ENDBRANCH  19  25
ENDBRANCH  18  19
ENDBRANCH   1  18
TORSDOF 6
