REMARK  Name = ZINCvU0000000ECo.0
REMARK                            x       y       z     vdW  Elec       q    Type
REMARK                         _______ _______ _______ _____ _____    ______ ____
ROOT
ATOM      1  N   LIG    1       -3.767  -2.830  -2.460  0.00  0.00    -0.510 N 
ATOM      2  C   LIG    1       -4.827  -3.637  -2.255  0.00  0.00    +0.580 A 
ATOM      3  C   LIG    1       -5.207  -3.943  -0.929  0.00  0.00    -0.340 A 
ATOM      4  C   LIG    1       -4.479  -3.404   0.129  0.00  0.00    +0.180 A 
ATOM      5  N   LIG    1       -3.411  -2.598  -0.162  0.00  0.00    -0.510 NA
ATOM      6  C   LIG    1       -4.970  -3.793   1.377  0.00  0.00    +0.040 A 
ATOM      7  C   LIG    1       -6.038  -4.603   1.353  0.00  0.00    -0.100 A 
ATOM      8  S   LIG    1       -6.513  -4.941  -0.303  0.00  0.00    +0.250 S 
ATOM      9  O   LIG    1       -5.448  -4.096  -3.199  0.00  0.00    -0.510 OA
ATOM     10  C   LIG    1       -3.078  -2.322  -1.396  0.00  0.00    +0.370 A 
ENDROOT
BRANCH   7  11
ATOM     11  C   LIG    1       -6.720  -5.136   2.552  0.00  0.00    -0.030 A 
ATOM     12  C   LIG    1       -6.255  -4.808   3.826  0.00  0.00    +0.040 A 
ATOM     13  C   LIG    1       -6.899  -5.304   4.941  0.00  0.00    +0.010 A 
ATOM     14  C   LIG    1       -7.997  -6.135   4.797  0.00  0.00    +0.020 A 
ATOM     15  C   LIG    1       -8.459  -6.468   3.536  0.00  0.00    +0.020 A 
ATOM     16  C   LIG    1       -7.827  -5.974   2.414  0.00  0.00    +0.020 A 
ENDBRANCH   7  11
BRANCH   1  17
ATOM     17  C   LIG    1       -3.352  -2.499  -3.826  0.00  0.00    +0.340 C 
BRANCH  17  19
ATOM     18  C   LIG    1       -2.567  -4.169  -5.424  0.00  0.00    +0.070 C 
ATOM     19  C   LIG    1       -2.352  -3.517  -4.308  0.00  0.00    -0.070 C 
ENDBRANCH  17  19
ENDBRANCH   1  17
BRANCH  10  20
ATOM     20  S   LIG    1       -1.697  -1.270  -1.694  0.00  0.00    +0.050 S 
BRANCH  20  21
ATOM     21  C   LIG    1       -1.199  -0.915   0.009  0.00  0.00    +0.270 C 
BRANCH  21  22
ATOM     22  C   LIG    1        0.002  -0.004   0.002  0.00  0.00    +0.190 A 
ATOM     23  N   LIG    1       -0.016   1.305   0.009  0.00  0.00    -0.440 NA
ATOM     24  C   LIG    1        1.283   1.686  -0.001  0.00  0.00    +0.250 A 
ATOM     25  N   LIG    1        2.006   0.593  -0.014  0.00  0.00    -0.350 NA
ATOM     26  O   LIG    1        1.284  -0.382  -0.012  0.00  0.00    +0.110 OA
BRANCH  24  27
ATOM     27  C   LIG    1        1.791   3.074   0.001  0.00  0.00    +0.040 A 
ATOM     28  C   LIG    1        3.099   3.445  -0.010  0.00  0.00    +0.020 A 
ATOM     29  C   LIG    1        3.121   4.853  -0.004  0.00  0.00    -0.060 A 
ATOM     30  C   LIG    1        1.839   5.268   0.010  0.00  0.00    +0.220 A 
ATOM     31  O   LIG    1        1.038   4.191   0.007  0.00  0.00    -0.150 OA
ENDBRANCH  24  27
ENDBRANCH  21  22
ENDBRANCH  20  21
ENDBRANCH  10  20
TORSDOF 7
