REMARK  Name = ZINCpk00000eb5Uj.0
REMARK                            x       y       z     vdW  Elec       q    Type
REMARK                         _______ _______ _______ _____ _____    ______ ____
ROOT
ATOM      1  C   LIG    1       10.945  -0.703  -0.128  0.00  0.00    +0.170 C 
ATOM      2  C   LIG    1        9.685   0.166  -0.099  0.00  0.00    +0.160 C 
ATOM      3  N   LIG    1        8.500  -0.702  -0.029  0.00  0.00    -0.520 NA
ATOM      4  C   LIG    1        8.455  -1.617  -1.179  0.00  0.00    +0.150 C 
ATOM      5  C   LIG    1        9.728  -2.467  -1.198  0.00  0.00    +0.230 C 
ATOM      6  O   LIG    1       10.870  -1.606  -1.234  0.00  0.00    -0.380 OA
ENDROOT
BRANCH   1   7
ATOM      7  C   LIG    1       12.178   0.191  -0.281  0.00  0.00    +0.340 C 
BRANCH   7  11
ATOM      8  C   LIG    1       16.593  -1.928  -1.349  0.00  0.00    +0.110 C 
ATOM      9  C   LIG    1       15.312  -1.554  -0.648  0.00  0.00    -0.240 A 
ATOM     10  C   LIG    1       14.379  -0.687  -1.105  0.00  0.00    +0.230 A 
ATOM     11  N   LIG    1       13.389  -0.628  -0.189  0.00  0.00    -0.370 N 
ATOM     12  N   LIG    1       13.727  -1.484   0.867  0.00  0.00    -0.290 NA
ATOM     13  C   LIG    1       14.877  -2.042   0.588  0.00  0.00    +0.230 A 
ENDBRANCH   7  11
ENDBRANCH   1   7
BRANCH   3  14
ATOM     14  C   LIG    1        7.269   0.094   0.058  0.00  0.00    +0.170 C 
BRANCH  14  15
ATOM     15  C   LIG    1        7.244   0.852   1.387  0.00  0.00    +0.220 C 
BRANCH  15  16
ATOM     16  O   LIG    1        7.289  -0.082   2.468  0.00  0.00    -0.530 OA
ATOM     17  H   LIG    1        6.549  -0.705   2.481  0.00  0.00    +0.370 HD
ENDBRANCH  15  16
BRANCH  15  18
ATOM     18  C   LIG    1        5.960   1.678   1.480  0.00  0.00    +0.170 C 
BRANCH  18  19
ATOM     19  O   LIG    1        5.990   2.474   2.666  0.00  0.00    -0.300 OA
BRANCH  19  20
ATOM     20  C   LIG    1        4.916   3.274   2.901  0.00  0.00    +0.120 A 
ATOM     21  C   LIG    1        4.880   4.073   4.034  0.00  0.00    +0.020 A 
ATOM     22  C   LIG    1        3.787   4.885   4.271  0.00  0.00    +0.030 A 
ATOM     23  C   LIG    1        2.728   4.900   3.378  0.00  0.00    +0.060 A 
ATOM     24  C   LIG    1        2.763   4.102   2.247  0.00  0.00    +0.030 A 
ATOM     25  F   LIG    1        1.658   5.690   3.615  0.00  0.00    -0.140 F 
ATOM     26  C   LIG    1        3.855   3.290   2.007  0.00  0.00    -0.040 A 
ENDBRANCH  19  20
ENDBRANCH  18  19
ENDBRANCH  15  18
ENDBRANCH  14  15
ENDBRANCH   3  14
TORSDOF 8
