REMARK  Name = ZINCrH000004vB4W.0
REMARK                            x       y       z     vdW  Elec       q    Type
REMARK                         _______ _______ _______ _____ _____    ______ ____
ROOT
ATOM      1  O   LIG    1       -2.297   4.158  -5.353  0.00  0.00    -0.520 OA
ATOM      2  C   LIG    1       -2.800   3.300  -4.653  0.00  0.00    +0.560 C 
ATOM      3  N   LIG    1       -4.013   2.802  -4.965  0.00  0.00    -0.610 N 
ATOM      4  C   LIG    1       -4.691   1.853  -4.069  0.00  0.00    +0.240 C 
ATOM      5  C   LIG    1       -6.113   2.362  -3.808  0.00  0.00    +0.220 C 
ATOM      6  N   LIG    1       -6.789   2.597  -5.091  0.00  0.00    -0.680 NA
ATOM      7  H   LIG    1       -6.857   1.744  -5.625  0.00  0.00    +0.340 HD
ATOM      8  C   LIG    1       -6.114   3.649  -5.863  0.00  0.00    +0.220 C 
ATOM      9  C   LIG    1       -4.696   3.197  -6.206  0.00  0.00    +0.250 C 
ENDROOT
BRANCH   8  10
ATOM     10  C   LIG    1       -6.881   3.910  -7.134  0.00  0.00    -0.090 A 
ATOM     11  C   LIG    1       -7.421   2.853  -7.844  0.00  0.00    +0.030 A 
ATOM     12  C   LIG    1       -8.129   3.090  -9.006  0.00  0.00    -0.010 A 
ATOM     13  C   LIG    1       -8.289   4.388  -9.467  0.00  0.00    +0.110 A 
ATOM     14  C   LIG    1       -7.742   5.447  -8.756  0.00  0.00    -0.010 A 
ATOM     15  C   LIG    1       -7.039   5.205  -7.591  0.00  0.00    +0.040 A 
BRANCH  13  16
ATOM     16  O   LIG    1       -8.981   4.624 -10.613  0.00  0.00    -0.500 OA
ATOM     17  H   LIG    1       -8.435   4.619 -11.410  0.00  0.00    +0.390 HD
ENDBRANCH  13  16
ENDBRANCH   8  10
BRANCH   2  18
ATOM     18  C   LIG    1       -2.079   2.802  -3.462  0.00  0.00    -0.110 A 
ATOM     19  C   LIG    1       -1.261   3.662  -2.728  0.00  0.00    +0.080 A 
ATOM     20  C   LIG    1       -0.592   3.191  -1.617  0.00  0.00    +0.060 A 
ATOM     21  C   LIG    1       -0.730   1.869  -1.231  0.00  0.00    -0.130 A 
ATOM     22  C   LIG    1       -1.536   1.010  -1.958  0.00  0.00    +0.050 A 
ATOM     23  C   LIG    1       -2.215   1.470  -3.067  0.00  0.00    +0.040 A 
BRANCH  21  24
ATOM     24  C   LIG    1        0.005   1.362  -0.017  0.00  0.00    +0.240 C 
ATOM     25  F   LIG    1        0.774   0.248  -0.370  0.00  0.00    -0.170 F 
BRANCH  24  26
ATOM     26  C   LIG    1       -1.005   0.963   1.061  0.00  0.00    +0.440 C 
ATOM     27  F   LIG    1       -1.775   2.077   1.413  0.00  0.00    -0.170 F 
ATOM     28  F   LIG    1       -0.323   0.492   2.188  0.00  0.00    -0.170 F 
ATOM     29  F   LIG    1       -1.841  -0.044   0.567  0.00  0.00    -0.170 F 
ENDBRANCH  24  26
ENDBRANCH  21  24
ENDBRANCH   2  18
TORSDOF 5
