REMARK  Name = ZINCrD00000F5Lnw.0
REMARK                            x       y       z     vdW  Elec       q    Type
REMARK                         _______ _______ _______ _____ _____    ______ ____
ROOT
ATOM      1  C   LIG    1       -1.404   3.467   0.710  0.00  0.00    -0.220 A 
ATOM      2  C   LIG    1       -2.694   3.884   0.441  0.00  0.00    +0.290 A 
ATOM      3  N   LIG    1       -3.276   2.949  -0.332  0.00  0.00    -0.300 N 
ATOM      4  N   LIG    1       -2.372   1.913  -0.582  0.00  0.00    -0.260 NA
ATOM      5  C   LIG    1       -1.233   2.181   0.020  0.00  0.00    +0.180 A 
ENDROOT
BRANCH   3   6
ATOM      6  C   LIG    1       -4.590   3.006  -0.814  0.00  0.00    +0.150 A 
ATOM      7  C   LIG    1       -5.403   4.086  -0.494  0.00  0.00    -0.010 A 
ATOM      8  C   LIG    1       -6.696   4.141  -0.975  0.00  0.00    +0.050 A 
ATOM      9  C   LIG    1       -7.187   3.117  -1.764  0.00  0.00    +0.010 A 
ATOM     10  C   LIG    1       -6.382   2.037  -2.079  0.00  0.00    +0.050 A 
ATOM     11  C   LIG    1       -5.086   1.979  -1.607  0.00  0.00    +0.030 A 
ENDBRANCH   3   6
BRANCH   5  12
ATOM     12  C   LIG    1       -0.016   1.345   0.009  0.00  0.00    -0.140 A 
ATOM     13  C   LIG    1        0.002  -0.004   0.002  0.00  0.00    +0.060 A 
ATOM     14  C   LIG    1        1.263  -0.563  -0.013  0.00  0.00    +0.010 A 
ATOM     15  C   LIG    1        2.271   0.314  -0.018  0.00  0.00    -0.030 A 
ATOM     16  S   LIG    1        1.634   1.953  -0.003  0.00  0.00    +0.160 S 
ENDBRANCH   5  12
BRANCH   1  18
ATOM     17  C   LIG    1       -0.712   5.354   2.097  0.00  0.00    -0.120 C 
ATOM     18  C   LIG    1       -0.404   4.170   1.521  0.00  0.00    +0.200 C 
BRANCH  17  21
ATOM     19  N   LIG    1       -0.052   7.213   3.454  0.00  0.00    -0.520 N 
ATOM     20  H   LIG    1       -0.934   7.598   3.331  0.00  0.00    +0.430 HD
ATOM     21  C   LIG    1        0.255   6.033   2.880  0.00  0.00    +0.560 C 
ATOM     22  O   LIG    1        1.362   5.550   3.034  0.00  0.00    -0.540 OA
BRANCH  19  24
ATOM     23  C   LIG    1        0.597   9.065   4.803  0.00  0.00    +0.660 C 
ATOM     24  N   LIG    1        0.903   7.884   4.228  0.00  0.00    -0.490 N 
ATOM     25  H   LIG    1        1.785   7.500   4.351  0.00  0.00    +0.450 HD
ATOM     26  O   LIG    1        1.425   9.647   5.474  0.00  0.00    -0.550 OA
BRANCH  23  27
ATOM     27  O   LIG    1       -0.628   9.598   4.632  0.00  0.00    -0.370 OA
BRANCH  27  29
ATOM     28  C   LIG    1       -2.319  11.316   4.974  0.00  0.00    +0.080 C 
ATOM     29  C   LIG    1       -0.888  10.872   5.279  0.00  0.00    +0.220 C 
ENDBRANCH  27  29
ENDBRANCH  23  27
ENDBRANCH  19  24
ENDBRANCH  17  21
ENDBRANCH   1  18
TORSDOF 7
