REMARK  Name = ZINCpe00000MJLXs.0
REMARK                            x       y       z     vdW  Elec       q    Type
REMARK                         _______ _______ _______ _____ _____    ______ ____
ROOT
ATOM      1  C   LIG    1        1.402   2.979   0.188  0.00  0.00    +0.450 A 
ATOM      2  C   LIG    1        0.206   3.555   0.605  0.00  0.00    -0.160 A 
ATOM      3  C   LIG    1       -0.890   2.721   0.813  0.00  0.00    +0.370 A 
ATOM      4  N   LIG    1       -0.756   1.414   0.601  0.00  0.00    -0.590 NA
ATOM      5  C   LIG    1        0.395   0.906   0.211  0.00  0.00    +0.550 A 
ATOM      6  N   LIG    1        1.455   1.661   0.003  0.00  0.00    -0.590 NA
ENDROOT
BRANCH   3   7
ATOM      7  N   LIG    1       -2.103   3.246   1.229  0.00  0.00    -0.440 N 
ATOM      8  C   LIG    1       -1.990   3.840   2.586  0.00  0.00    +0.190 C 
ATOM      9  C   LIG    1       -3.438   3.876   3.118  0.00  0.00    +0.030 C 
ATOM     10  C   LIG    1       -4.183   2.781   2.327  0.00  0.00    +0.040 C 
ATOM     11  C   LIG    1       -3.121   2.175   1.384  0.00  0.00    +0.170 C 
BRANCH  11  12
ATOM     12  C   LIG    1       -3.744   1.832   0.029  0.00  0.00    +0.200 C 
BRANCH  12  13
ATOM     13  O   LIG    1       -4.470   2.961  -0.461  0.00  0.00    -0.560 OA
ATOM     14  H   LIG    1       -4.893   2.814  -1.318  0.00  0.00    +0.380 HD
ENDBRANCH  12  13
ENDBRANCH  11  12
ENDBRANCH   3   7
BRANCH   1  15
ATOM     15  N   LIG    1        2.521   3.766  -0.033  0.00  0.00    -0.580 N 
BRANCH  15  16
ATOM     16  C   LIG    1        3.818   3.137  -0.297  0.00  0.00    +0.320 C 
BRANCH  16  17
ATOM     17  C   LIG    1        3.985   2.926  -1.804  0.00  0.00    +0.160 C 
BRANCH  17  19
ATOM     18  C   LIG    1        4.194   4.110  -3.877  0.00  0.00    +0.200 C 
ATOM     19  O   LIG    1        4.039   4.195  -2.459  0.00  0.00    -0.390 OA
ENDBRANCH  17  19
ENDBRANCH  16  17
ENDBRANCH  15  16
BRANCH  15  20
ATOM     20  C   LIG    1        2.408   5.226  -0.002  0.00  0.00    +0.410 C 
BRANCH  20  21
ATOM     21  C   LIG    1        2.533   5.710   1.420  0.00  0.00    +0.060 A 
ATOM     22  C   LIG    1        3.169   5.068   2.427  0.00  0.00    -0.110 A 
ATOM     23  C   LIG    1        3.054   5.855   3.579  0.00  0.00    +0.230 A 
ATOM     24  N   LIG    1        2.366   6.926   3.275  0.00  0.00    -0.290 NA
ATOM     25  N   LIG    1        2.026   6.857   1.917  0.00  0.00    -0.370 N 
ATOM     26  C   LIG    1        1.256   7.854   1.171  0.00  0.00    +0.360 C 
ENDBRANCH  20  21
ENDBRANCH  15  20
ENDBRANCH   1  15
TORSDOF 9
