REMARK  Name = ZINC9p0000005hQM.0
REMARK                            x       y       z     vdW  Elec       q    Type
REMARK                         _______ _______ _______ _____ _____    ______ ____
ROOT
ATOM      1  C   LIG    1       -2.904   1.556   0.038  0.00  0.00    +0.050 C 
ATOM      2  C   LIG    1       -2.188   1.063  -1.221  0.00  0.00    +0.050 C 
ATOM      3  C   LIG    1       -0.753   1.593  -1.232  0.00  0.00    +0.040 C 
ATOM      4  C   LIG    1       -0.013   1.086   0.008  0.00  0.00    +0.020 C 
ATOM      5  C   LIG    1       -0.729   1.579   1.267  0.00  0.00    +0.040 C 
ATOM      6  C   LIG    1       -2.925   3.086   0.047  0.00  0.00    +0.090 C 
ATOM      7  C   LIG    1       -2.164   1.050   1.278  0.00  0.00    +0.050 C 
ENDROOT
BRANCH   1   9
ATOM      8  C   LIG    1       -4.970   1.522   1.257  0.00  0.00    +0.320 C 
ATOM      9  N   LIG    1       -4.282   1.048   0.049  0.00  0.00    -0.500 N 
ATOM     10  H   LIG    1       -4.269   0.039   0.043  0.00  0.00    +0.430 HD
ATOM     11  H   LIG    1       -4.770   1.382  -0.769  0.00  0.00    +0.430 HD
ENDBRANCH   1   9
TORSDOF 1
