REMARK  Name = ZINCnE000008JbcL.0
REMARK                            x       y       z     vdW  Elec       q    Type
REMARK                         _______ _______ _______ _____ _____    ______ ____
ROOT
ATOM      1  S   LIG    1        5.049   0.211  -0.046  0.00  0.00    +2.610 S 
ATOM      2  O   LIG    1        5.125   0.877   1.207  0.00  0.00    -1.020 OA
ATOM      3  O   LIG    1        5.101   0.891  -1.292  0.00  0.00    -1.040 OA
ENDROOT
BRANCH   1   4
ATOM      4  C   LIG    1        6.363  -0.963  -0.065  0.00  0.00    -0.650 A 
ATOM      5  C   LIG    1        7.201  -1.045  -1.159  0.00  0.00    +0.150 A 
ATOM      6  C   LIG    1        8.236  -1.962  -1.173  0.00  0.00    -0.150 A 
ATOM      7  C   LIG    1        8.427  -2.808  -0.096  0.00  0.00    +0.080 A 
ATOM      8  C   LIG    1        7.588  -2.733   1.000  0.00  0.00    -0.100 A 
ATOM      9  C   LIG    1        6.553  -1.810   1.018  0.00  0.00    +0.220 A 
BRANCH   6  10
ATOM     10  C   LIG    1        9.152  -2.045  -2.366  0.00  0.00    +0.060 C 
ATOM     11  C   LIG    1        8.585  -3.045  -3.376  0.00  0.00    +0.010 C 
ENDBRANCH   6  10
BRANCH   9  12
ATOM     12  O   LIG    1        5.726  -1.736   2.094  0.00  0.00    -0.290 OA
ATOM     13  C   LIG    1        5.981  -2.639   3.172  0.00  0.00    +0.230 C 
ENDBRANCH   9  12
ENDBRANCH   1   4
BRANCH   1  14
ATOM     14  N   LIG    1        3.630  -0.643  -0.037  0.00  0.00    -1.070 NA
BRANCH  14  20
ATOM     15  C   LIG    1        1.210  -0.680  -0.014  0.00  0.00    +0.060 A 
ATOM     16  C   LIG    1        0.002  -0.004   0.002  0.00  0.00    -0.060 A 
ATOM     17  C   LIG    1       -0.017   1.379   0.010  0.00  0.00    -0.100 A 
ATOM     18  C   LIG    1        1.169   2.090   0.002  0.00  0.00    +0.010 A 
ATOM     19  C   LIG    1        2.379   1.422  -0.013  0.00  0.00    -0.150 A 
ATOM     20  C   LIG    1        2.406   0.036  -0.021  0.00  0.00    +0.270 A 
BRANCH  15  21
ATOM     21  O   LIG    1        1.230  -2.040  -0.021  0.00  0.00    -0.290 OA
BRANCH  21  23
ATOM     22  C   LIG    1        0.189  -4.221  -0.022  0.00  0.00    +0.040 C 
ATOM     23  C   LIG    1       -0.033  -2.708  -0.012  0.00  0.00    +0.150 C 
ENDBRANCH  21  23
ENDBRANCH  15  21
ENDBRANCH  14  20
ENDBRANCH   1  14
TORSDOF 7
