REMARK  Name = ZINCrH000004tjEL.0
REMARK                            x       y       z     vdW  Elec       q    Type
REMARK                         _______ _______ _______ _____ _____    ______ ____
ROOT
ATOM      1  C   LIG    1       -1.144   3.215   0.901  0.00  0.00    -0.180 A 
ATOM      2  C   LIG    1       -0.941   1.875   1.083  0.00  0.00    +0.150 A 
ATOM      3  S   LIG    1       -2.411   1.023   0.980  0.00  0.00    +0.210 S 
ATOM      4  C   LIG    1       -3.333   2.486   0.677  0.00  0.00    -0.260 A 
ATOM      5  C   LIG    1       -4.834   2.538   0.456  0.00  0.00    +0.370 C 
ATOM      6  N   LIG    1       -5.242   3.951   0.494  0.00  0.00    -0.610 N 
ATOM      7  C   LIG    1       -6.343   4.340   1.168  0.00  0.00    +0.530 C 
ATOM      8  O   LIG    1       -6.608   5.519   1.268  0.00  0.00    -0.510 OA
ATOM      9  C   LIG    1       -4.411   4.927  -0.228  0.00  0.00    +0.300 C 
ATOM     10  C   LIG    1       -3.029   4.978   0.429  0.00  0.00    +0.100 C 
ATOM     11  C   LIG    1       -2.535   3.560   0.662  0.00  0.00    +0.000 A 
ENDROOT
BRANCH   2  12
ATOM     12  N   LIG    1        0.291   1.292   1.325  0.00  0.00    -0.820 N 
ATOM     13  H   LIG    1        1.089   1.843   1.367  0.00  0.00    +0.410 HD
ATOM     14  H   LIG    1        0.357   0.332   1.448  0.00  0.00    +0.410 HD
ENDBRANCH   2  12
BRANCH   1  16
ATOM     15  N   LIG    1        0.748   4.950   0.968  0.00  0.00    -0.430 NA
ATOM     16  C   LIG    1       -0.089   4.183   0.939  0.00  0.00    +0.280 C 
ENDBRANCH   1  16
BRANCH   7  17
ATOM     17  C   LIG    1       -7.245   3.308   1.796  0.00  0.00    +0.210 C 
BRANCH  17  18
ATOM     18  C   LIG    1       -7.979   2.558   0.715  0.00  0.00    -0.110 A 
ATOM     19  C   LIG    1       -9.052   3.147   0.071  0.00  0.00    +0.050 A 
ATOM     20  C   LIG    1       -9.723   2.461  -0.923  0.00  0.00    +0.000 A 
ATOM     21  C   LIG    1       -9.327   1.182  -1.268  0.00  0.00    +0.010 A 
ATOM     22  C   LIG    1       -8.258   0.591  -0.622  0.00  0.00    +0.010 A 
ATOM     23  C   LIG    1       -7.584   1.279   0.370  0.00  0.00    +0.010 A 
ENDBRANCH  17  18
BRANCH  17  24
ATOM     24  O   LIG    1       -8.188   3.958   2.650  0.00  0.00    -0.340 OA
BRANCH  24  25
ATOM     25  C   LIG    1       -8.611   3.162   3.760  0.00  0.00    +0.140 C 
ATOM     26  C   LIG    1       -9.896   2.390   3.397  0.00  0.00    +0.010 C 
ATOM     27  C   LIG    1      -10.727   2.399   4.704  0.00  0.00    +0.020 C 
ATOM     28  C   LIG    1      -10.452   3.813   5.273  0.00  0.00    +0.020 C 
ATOM     29  C   LIG    1       -8.964   4.067   4.953  0.00  0.00    +0.030 C 
ENDBRANCH  24  25
ENDBRANCH  17  24
ENDBRANCH   7  17
TORSDOF 6
