REMARK  Name = ZINCpk000000oDjo.0
REMARK                            x       y       z     vdW  Elec       q    Type
REMARK                         _______ _______ _______ _____ _____    ______ ____
ROOT
ATOM      1  C   LIG    1       -1.289   2.246  -0.896  0.00  0.00    +0.240 C 
ATOM      2  C   LIG    1       -0.874   3.736  -0.858  0.00  0.00    +0.060 C 
ATOM      3  C   LIG    1        0.488   3.701  -1.587  0.00  0.00    +0.260 C 
ATOM      4  N   LIG    1        0.999   2.339  -1.394  0.00  0.00    -0.610 N 
ATOM      5  C   LIG    1        0.022   1.500  -1.008  0.00  0.00    +0.500 C 
ATOM      6  O   LIG    1        0.170   0.317  -0.787  0.00  0.00    -0.490 OA
ENDROOT
BRANCH   1   7
ATOM      7  N   LIG    1       -2.134   1.975  -2.062  0.00  0.00    -1.110 NA
ATOM      8  H   LIG    1       -2.002   2.474  -2.883  0.00  0.00    +0.420 HD
BRANCH   7   9
ATOM      9  S   LIG    1       -3.315   0.817  -1.977  0.00  0.00    +2.770 S 
ATOM     10  O   LIG    1       -2.712  -0.329  -1.392  0.00  0.00    -0.950 OA
ATOM     11  O   LIG    1       -3.950   0.798  -3.248  0.00  0.00    -0.970 OA
BRANCH   9  12
ATOM     12  N   LIG    1       -4.450   1.352  -0.896  0.00  0.00    -1.000 NA
BRANCH  12  14
ATOM     13  C   LIG    1       -6.740   1.558  -1.729  0.00  0.00    +0.010 C 
ATOM     14  C   LIG    1       -5.472   2.312  -1.322  0.00  0.00    +0.280 C 
ENDBRANCH  12  14
BRANCH  12  15
ATOM     15  C   LIG    1       -4.432   0.866   0.486  0.00  0.00    +0.330 C 
BRANCH  15  16
ATOM     16  C   LIG    1       -3.770   1.912   1.385  0.00  0.00    -0.070 C 
ATOM     17  C   LIG    1       -2.439   1.539   2.042  0.00  0.00    +0.010 C 
ATOM     18  C   LIG    1       -3.712   1.619   2.886  0.00  0.00    +0.040 C 
ENDBRANCH  15  16
ENDBRANCH  12  15
ENDBRANCH   9  12
ENDBRANCH   7   9
ENDBRANCH   1   7
BRANCH   4  19
ATOM     19  C   LIG    1        2.396   1.944  -1.597  0.00  0.00    +0.360 C 
BRANCH  19  20
ATOM     20  C   LIG    1        2.592   1.510  -3.026  0.00  0.00    -0.130 A 
ATOM     21  C   LIG    1        2.414   0.184  -3.377  0.00  0.00    +0.070 A 
ATOM     22  C   LIG    1        2.590  -0.214  -4.689  0.00  0.00    -0.020 A 
ATOM     23  C   LIG    1        2.955   0.713  -5.650  0.00  0.00    +0.100 A 
ATOM     24  C   LIG    1        3.138   2.039  -5.297  0.00  0.00    -0.020 A 
ATOM     25  F   LIG    1        3.131   0.324  -6.932  0.00  0.00    -0.140 F 
ATOM     26  C   LIG    1        2.957   2.436  -3.986  0.00  0.00    +0.050 A 
ENDBRANCH  19  20
ENDBRANCH   4  19
TORSDOF 8
