REMARK  Name = ZINCtV00001bB3PZ.0
REMARK                            x       y       z     vdW  Elec       q    Type
REMARK                         _______ _______ _______ _____ _____    ______ ____
ROOT
ATOM      1  O   LIG    1       -6.109   1.599   0.039  0.00  0.00    -0.290 OA
ENDROOT
BRANCH   1   5
ATOM      2  C   LIG    1       -9.409  -0.882   0.059  0.00  0.00    -0.030 A 
ATOM      3  C   LIG    1       -8.127  -1.426   0.102  0.00  0.00    +0.030 A 
ATOM      4  C   LIG    1       -7.026  -0.595   0.090  0.00  0.00    +0.020 A 
ATOM      5  C   LIG    1       -7.195   0.782   0.045  0.00  0.00    +0.080 A 
ATOM      6  C   LIG    1       -8.471   1.327   0.002  0.00  0.00    -0.080 A 
ATOM      7  C   LIG    1       -8.650   2.822  -0.052  0.00  0.00    +0.100 C 
ATOM      8  C   LIG    1       -9.575   0.501   0.009  0.00  0.00    +0.030 A 
BRANCH   2  13
ATOM      9  C   LIG    1      -14.013  -4.342   0.092  0.00  0.00    +0.090 C 
ATOM     10  C   LIG    1      -12.808  -3.436   0.084  0.00  0.00    -0.080 A 
ATOM     11  C   LIG    1      -11.537  -3.981   0.125  0.00  0.00    +0.010 A 
ATOM     12  C   LIG    1      -10.431  -3.156   0.118  0.00  0.00    +0.030 A 
ATOM     13  C   LIG    1      -10.595  -1.773   0.068  0.00  0.00    -0.060 A 
ATOM     14  C   LIG    1      -11.878  -1.230   0.031  0.00  0.00    +0.030 A 
ATOM     15  C   LIG    1      -12.978  -2.064   0.033  0.00  0.00    +0.010 A 
ENDBRANCH   2  13
ENDBRANCH   1   5
BRANCH   1  16
ATOM     16  C   LIG    1       -5.671   2.080   1.220  0.00  0.00    +0.490 C 
ATOM     17  O   LIG    1       -6.186   1.708   2.257  0.00  0.00    -0.490 OA
BRANCH  16  18
ATOM     18  C   LIG    1       -4.577   3.050   1.255  0.00  0.00    -0.040 C 
ATOM     19  C   LIG    1       -4.140   3.532   2.437  0.00  0.00    +0.140 C 
BRANCH  19  20
ATOM     20  C   LIG    1       -3.039   4.508   2.471  0.00  0.00    -0.080 A 
ATOM     21  C   LIG    1       -2.447   4.943   1.281  0.00  0.00    +0.070 A 
ATOM     22  C   LIG    1       -1.412   5.853   1.322  0.00  0.00    +0.020 A 
ATOM     23  C   LIG    1       -0.963   6.340   2.537  0.00  0.00    +0.090 A 
ATOM     24  C   LIG    1       -1.546   5.919   3.719  0.00  0.00    -0.180 A 
ATOM     25  C   LIG    1       -2.582   5.010   3.695  0.00  0.00    +0.100 A 
BRANCH  24  26
ATOM     26  C   LIG    1       -1.048   6.456   5.036  0.00  0.00    +0.510 C 
ATOM     27  F   LIG    1       -2.101   6.482   5.957  0.00  0.00    -0.170 F 
ATOM     28  F   LIG    1       -0.555   7.753   4.855  0.00  0.00    -0.170 F 
ATOM     29  F   LIG    1       -0.026   5.632   5.519  0.00  0.00    -0.170 F 
ENDBRANCH  24  26
ENDBRANCH  19  20
ENDBRANCH  16  18
ENDBRANCH   1  16
TORSDOF 6
