REMARK  Name = ZINCrD00000hQ7gV.0
REMARK                            x       y       z     vdW  Elec       q    Type
REMARK                         _______ _______ _______ _____ _____    ______ ____
ROOT
ATOM      1  O   LIG    1       -4.014   4.346  -0.329  0.00  0.00    -0.530 OA
ATOM      2  C   LIG    1       -3.664   5.131  -1.185  0.00  0.00    +0.540 C 
ATOM      3  N   LIG    1       -4.537   5.531  -2.130  0.00  0.00    -0.620 N 
ATOM      4  C   LIG    1       -4.220   6.393  -3.284  0.00  0.00    +0.260 C 
ATOM      5  C   LIG    1       -5.303   6.052  -4.341  0.00  0.00    +0.020 C 
ATOM      6  C   LIG    1       -6.553   5.843  -3.446  0.00  0.00    +0.250 C 
ATOM      7  C   LIG    1       -5.965   5.185  -2.179  0.00  0.00    +0.250 C 
ENDROOT
BRANCH   2   8
ATOM      8  C   LIG    1       -2.253   5.659  -1.191  0.00  0.00    -0.010 C 
ATOM      9  C   LIG    1       -1.462   5.013  -0.051  0.00  0.00    +0.040 C 
ATOM     10  C   LIG    1       -2.127   5.349   1.286  0.00  0.00    +0.020 C 
ATOM     11  C   LIG    1       -2.149   6.867   1.476  0.00  0.00    -0.010 C 
ATOM     12  C   LIG    1       -2.814   7.203   2.813  0.00  0.00    +0.010 C 
ATOM     13  C   LIG    1       -2.836   8.721   3.004  0.00  0.00    +0.000 C 
ATOM     14  C   LIG    1       -3.627   9.367   1.864  0.00  0.00    +0.000 C 
ATOM     15  C   LIG    1       -2.962   9.031   0.528  0.00  0.00    +0.010 C 
ATOM     16  C   LIG    1       -2.940   7.513   0.337  0.00  0.00    -0.010 C 
ATOM     17  C   LIG    1       -2.275   7.177  -1.000  0.00  0.00    +0.040 C 
ENDBRANCH   2   8
BRANCH   6  18
ATOM     18  N   LIG    1       -7.512   4.948  -4.097  0.00  0.00    -0.690 N 
ATOM     19  H   LIG    1       -7.447   3.989  -3.967  0.00  0.00    +0.420 HD
BRANCH  18  20
ATOM     20  C   LIG    1       -8.518   5.473  -4.902  0.00  0.00    +0.420 A 
ATOM     21  N   LIG    1       -8.604   6.772  -5.069  0.00  0.00    -0.350 NA
ATOM     22  N   LIG    1       -9.604   7.321  -5.878  0.00  0.00    -0.250 N 
ATOM     23  C   LIG    1       -9.918   8.601  -6.222  0.00  0.00    +0.170 A 
ATOM     24  C   LIG    1      -10.999   8.544  -7.036  0.00  0.00    +0.200 A 
ATOM     25  N   LIG    1      -11.346   7.266  -7.192  0.00  0.00    -0.460 NA
ATOM     26  C   LIG    1      -10.512   6.503  -6.497  0.00  0.00    +0.140 A 
ATOM     27  C   LIG    1      -10.422   5.109  -6.313  0.00  0.00    +0.180 A 
ATOM     28  C   LIG    1       -9.436   4.606  -5.524  0.00  0.00    -0.050 A 
ENDBRANCH  18  20
ENDBRANCH   6  18
TORSDOF 3
