REMARK  Name = ZINCqH0000006O5D.0
REMARK                            x       y       z     vdW  Elec       q    Type
REMARK                         _______ _______ _______ _____ _____    ______ ____
ROOT
ATOM      1  N   LIG    1       -0.717   5.103   2.694  0.00  0.00    -0.660 N 
ATOM      2  H   LIG    1       -1.565   5.359   2.298  0.00  0.00    +0.420 HD
ATOM      3  C   LIG    1        0.234   4.524   1.935  0.00  0.00    +0.500 C 
ATOM      4  O   LIG    1        1.257   4.121   2.447  0.00  0.00    -0.500 OA
ENDROOT
BRANCH   1  12
ATOM      5  C   LIG    1       -1.551   5.545   4.924  0.00  0.00    +0.100 A 
ATOM      6  C   LIG    1       -1.314   5.769   6.270  0.00  0.00    -0.040 A 
ATOM      7  C   LIG    1       -0.015   5.795   6.748  0.00  0.00    -0.020 A 
ATOM      8  C   LIG    1        1.047   5.592   5.886  0.00  0.00    -0.090 A 
ATOM      9  C   LIG    1        0.817   5.363   4.542  0.00  0.00    +0.080 A 
ATOM     10  C   LIG    1        2.459   5.622   6.412  0.00  0.00    +0.100 C 
ATOM     11 CL   LIG    1        0.281   6.083   8.434  0.00  0.00    -0.060 Cl
ATOM     12  C   LIG    1       -0.482   5.335   4.056  0.00  0.00    +0.130 A 
BRANCH   5  14
ATOM     13  C   LIG    1       -3.873   5.747   5.398  0.00  0.00    +0.250 C 
ATOM     14  O   LIG    1       -2.826   5.525   4.451  0.00  0.00    -0.320 OA
ENDBRANCH   5  14
ENDBRANCH   1  12
BRANCH   3  15
ATOM     15  C   LIG    1        0.027   4.378   0.449  0.00  0.00    +0.340 C 
BRANCH  15  16
ATOM     16  N   LIG    1        1.195   3.723  -0.144  0.00  0.00    -0.930 N 
BRANCH  16  17
ATOM     17  C   LIG    1        1.284   2.329  -0.155  0.00  0.00    +0.140 A 
ATOM     18  C   LIG    1        2.335   1.694   0.494  0.00  0.00    +0.060 A 
ATOM     19  C   LIG    1        2.421   0.315   0.482  0.00  0.00    +0.040 A 
ATOM     20  C   LIG    1        1.462  -0.433  -0.175  0.00  0.00    +0.040 A 
ATOM     21  C   LIG    1        0.413   0.196  -0.823  0.00  0.00    -0.030 A 
ATOM     22 CL   LIG    1       -0.789  -0.748  -1.646  0.00  0.00    -0.060 Cl
ATOM     23  C   LIG    1        0.322   1.575  -0.814  0.00  0.00    +0.020 A 
ENDBRANCH  16  17
BRANCH  16  24
ATOM     24  S   LIG    1        2.410   4.635  -0.803  0.00  0.00    +2.600 S 
ATOM     25  O   LIG    1        3.529   3.760  -0.832  0.00  0.00    -0.930 OA
ATOM     26  O   LIG    1        2.426   5.818  -0.017  0.00  0.00    -0.940 OA
ATOM     27  C   LIG    1        1.842   4.997  -2.487  0.00  0.00    -0.280 C 
ENDBRANCH  16  24
ENDBRANCH  15  16
ENDBRANCH   3  15
TORSDOF 6
