REMARK  Name = ZINCah0000003XN7.0
REMARK                            x       y       z     vdW  Elec       q    Type
REMARK                         _______ _______ _______ _____ _____    ______ ____
ROOT
ATOM      1  C   LIG    1       -1.212   1.638   0.017  0.00  0.00    +0.360 A 
ATOM      2  C   LIG    1       -2.428   0.934   0.019  0.00  0.00    -0.240 A 
ATOM      3  C   LIG    1       -2.784  -0.432   0.013  0.00  0.00    -0.110 A 
ATOM      4  C   LIG    1       -4.144  -0.471   0.019  0.00  0.00    +0.180 A 
ATOM      5  N   LIG    1       -4.630   0.770   0.029  0.00  0.00    -0.540 NA
ATOM      6  C   LIG    1       -3.646   1.655   0.029  0.00  0.00    +0.240 A 
ATOM      7  N   LIG    1       -3.610   3.032   0.037  0.00  0.00    -0.530 N 
ATOM      8  H   LIG    1       -4.440   3.533   0.044  0.00  0.00    +0.420 HD
ATOM      9  C   LIG    1       -2.436   3.693   0.034  0.00  0.00    +0.370 A 
ATOM     10  C   LIG    1       -1.248   3.040   0.030  0.00  0.00    -0.150 A 
ENDROOT
BRANCH   1  11
ATOM     11  N   LIG    1       -0.011   0.966   0.007  0.00  0.00    -0.830 N 
ATOM     12  H   LIG    1        0.822   1.462   0.002  0.00  0.00    +0.410 HD
ATOM     13  H   LIG    1        0.002  -0.004   0.002  0.00  0.00    +0.410 HD
ENDBRANCH   1  11
TORSDOF 1
