REMARK  Name = ZINCvU00000004wh.0
REMARK                            x       y       z     vdW  Elec       q    Type
REMARK                         _______ _______ _______ _____ _____    ______ ____
ROOT
ATOM      1  N   LIG    1       -7.813   5.562   2.553  0.00  0.00    -0.510 N 
ATOM      2  C   LIG    1       -8.974   6.219   2.364  0.00  0.00    +0.560 A 
ATOM      3  C   LIG    1       -9.415   6.470   1.033  0.00  0.00    -0.230 A 
ATOM      4  C   LIG    1       -8.617   6.026  -0.016  0.00  0.00    +0.090 A 
ATOM      5  S   LIG    1       -9.360   6.447  -1.554  0.00  0.00    +0.210 S 
ATOM      6  C   LIG    1      -10.727   7.210  -0.766  0.00  0.00    -0.040 A 
ATOM      7  N   LIG    1       -7.463   5.380   0.251  0.00  0.00    -0.510 NA
ATOM      8  C   LIG    1      -10.618   7.144   0.560  0.00  0.00    +0.010 A 
ATOM      9  O   LIG    1       -9.639   6.588   3.317  0.00  0.00    -0.500 OA
ATOM     10  C   LIG    1       -7.071   5.157   1.482  0.00  0.00    +0.370 A 
ENDROOT
BRANCH   8  11
ATOM     11  C   LIG    1      -11.635   7.710   1.478  0.00  0.00    -0.050 A 
ATOM     12  C   LIG    1      -12.152   6.933   2.513  0.00  0.00    +0.060 A 
ATOM     13  C   LIG    1      -13.096   7.466   3.368  0.00  0.00    +0.000 A 
ATOM     14  C   LIG    1      -13.536   8.766   3.192  0.00  0.00    -0.080 A 
ATOM     15  C   LIG    1      -13.030   9.540   2.164  0.00  0.00    -0.010 A 
ATOM     16  C   LIG    1      -14.570   9.340   4.126  0.00  0.00    +0.090 C 
ATOM     17  C   LIG    1      -12.083   9.019   1.306  0.00  0.00    +0.020 A 
ENDBRANCH   8  11
BRANCH   1  18
ATOM     18  C   LIG    1       -7.342   5.288   3.913  0.00  0.00    +0.340 C 
BRANCH  18  20
ATOM     19  C   LIG    1       -6.780   7.047   5.510  0.00  0.00    +0.070 C 
ATOM     20  C   LIG    1       -6.488   6.435   4.390  0.00  0.00    -0.070 C 
ENDBRANCH  18  20
ENDBRANCH   1  18
BRANCH  10  21
ATOM     21  S   LIG    1       -5.552   4.306   1.760  0.00  0.00    +0.030 S 
BRANCH  21  22
ATOM     22  C   LIG    1       -5.034   4.022   0.049  0.00  0.00    +0.160 C 
BRANCH  22  23
ATOM     23  C   LIG    1       -3.719   3.286   0.038  0.00  0.00    -0.030 A 
ATOM     24  C   LIG    1       -3.700   1.904   0.030  0.00  0.00    +0.050 A 
ATOM     25  C   LIG    1       -2.494   1.229   0.021  0.00  0.00    +0.110 A 
ATOM     26  C   LIG    1       -1.306   1.936   0.019  0.00  0.00    -0.040 A 
ATOM     27  C   LIG    1       -1.325   3.319   0.032  0.00  0.00    +0.110 A 
ATOM     28  C   LIG    1       -2.531   3.993   0.036  0.00  0.00    +0.050 A 
BRANCH  26  29
ATOM     29  N   LIG    1       -0.014   1.214   0.009  0.00  0.00    +0.020 N 
ATOM     30  O   LIG    1        1.032   1.837   0.002  0.00  0.00    -0.150 OA
ATOM     31  O   LIG    1        0.002  -0.004   0.002  0.00  0.00    -0.150 OA
ENDBRANCH  26  29
ENDBRANCH  22  23
ENDBRANCH  21  22
ENDBRANCH  10  21
TORSDOF 7
