REMARK  Name = ZINCrD00000hQ5yt.0
REMARK                            x       y       z     vdW  Elec       q    Type
REMARK                         _______ _______ _______ _____ _____    ______ ____
ROOT
ATOM      1  O   LIG    1       -6.293  -5.551   0.797  0.00  0.00    -0.530 OA
ATOM      2  C   LIG    1       -6.324  -4.702  -0.068  0.00  0.00    +0.540 C 
ATOM      3  N   LIG    1       -5.280  -3.863  -0.227  0.00  0.00    -0.620 N 
ATOM      4  C   LIG    1       -5.186  -2.790  -1.233  0.00  0.00    +0.260 C 
ATOM      5  C   LIG    1       -3.665  -2.555  -1.427  0.00  0.00    +0.020 C 
ATOM      6  C   LIG    1       -3.135  -2.754   0.018  0.00  0.00    +0.250 C 
ATOM      7  C   LIG    1       -4.048  -3.867   0.575  0.00  0.00    +0.250 C 
ENDROOT
BRANCH   2   8
ATOM      8  C   LIG    1       -7.528  -4.584  -0.966  0.00  0.00    +0.000 C 
ATOM      9  C   LIG    1       -8.146  -3.193  -0.811  0.00  0.00    +0.030 C 
ATOM     10  C   LIG    1       -8.571  -2.982   0.644  0.00  0.00    +0.010 C 
ATOM     11  C   LIG    1       -9.602  -4.044   1.032  0.00  0.00    -0.010 C 
ATOM     12  C   LIG    1      -10.027  -3.834   2.487  0.00  0.00    +0.010 C 
ATOM     13  C   LIG    1      -11.058  -4.896   2.875  0.00  0.00    +0.000 C 
ATOM     14  C   LIG    1      -10.441  -6.287   2.720  0.00  0.00    +0.000 C 
ATOM     15  C   LIG    1      -10.016  -6.497   1.266  0.00  0.00    +0.010 C 
ATOM     16  C   LIG    1       -8.985  -5.435   0.877  0.00  0.00    +0.010 C 
ATOM     17  C   LIG    1       -8.559  -5.646  -0.577  0.00  0.00    +0.050 C 
ENDBRANCH   2   8
BRANCH   6  18
ATOM     18  N   LIG    1       -1.737  -3.191   0.002  0.00  0.00    -0.690 N 
ATOM     19  H   LIG    1       -1.524  -4.137  -0.005  0.00  0.00    +0.420 HD
BRANCH  18  20
ATOM     20  C   LIG    1       -0.714  -2.247  -0.003  0.00  0.00    +0.420 A 
ATOM     21  N   LIG    1       -1.010  -0.969   0.006  0.00  0.00    -0.350 NA
ATOM     22  N   LIG    1        0.002  -0.004   0.002  0.00  0.00    -0.250 N 
ATOM     23  C   LIG    1       -0.016   1.358   0.009  0.00  0.00    +0.170 A 
ATOM     24  C   LIG    1        1.272   1.777  -0.001  0.00  0.00    +0.200 A 
ATOM     25  N   LIG    1        2.066   0.706  -0.014  0.00  0.00    -0.460 NA
ATOM     26  C   LIG    1        1.317  -0.389  -0.013  0.00  0.00    +0.140 A 
ATOM     27  C   LIG    1        1.634  -1.762  -0.023  0.00  0.00    +0.180 A 
ATOM     28  C   LIG    1        0.627  -2.675  -0.018  0.00  0.00    -0.050 A 
ENDBRANCH  18  20
ENDBRANCH   6  18
TORSDOF 3
