REMARK  Name = ZINCbw0000001N4W.0
REMARK                            x       y       z     vdW  Elec       q    Type
REMARK                         _______ _______ _______ _____ _____    ______ ____
ROOT
ATOM      1  C   LIG    1        4.801   4.034  -0.020  0.00  0.00    +0.200 C 
ATOM      2  C   LIG    1        3.360   3.593  -0.010  0.00  0.00    +0.120 A 
ATOM      3  N   LIG    1        2.361   4.394   0.004  0.00  0.00    -0.460 NA
ATOM      4  C   LIG    1        1.126   3.861   0.012  0.00  0.00    +0.310 A 
ATOM      5  N   LIG    1       -0.068   4.477   0.026  0.00  0.00    -0.440 NA
ATOM      6  C   LIG    1       -1.197   3.809   0.032  0.00  0.00    +0.340 A 
ATOM      7  C   LIG    1       -1.220   2.424   0.021  0.00  0.00    +0.000 A 
ATOM      8  C   LIG    1       -0.021   1.732   0.012  0.00  0.00    +0.060 A 
ATOM      9 CL   LIG    1        0.002  -0.004   0.002  0.00  0.00    -0.030 Cl
ATOM     10  C   LIG    1        1.167   2.462   0.004  0.00  0.00    -0.250 A 
ATOM     11  S   LIG    1        2.854   1.963  -0.014  0.00  0.00    +0.150 S 
ENDROOT
TORSDOF 0
