REMARK  Name = ZINCAx0000000cyU.0
REMARK                            x       y       z     vdW  Elec       q    Type
REMARK                         _______ _______ _______ _____ _____    ______ ____
ROOT
ATOM      1  C   LIG    1       -2.303   4.315   0.114  0.00  0.00    +0.190 C 
ATOM      2  C   LIG    1       -1.043   3.497  -0.007  0.00  0.00    +0.400 A 
ATOM      3  N   LIG    1       -1.135   2.206   0.090  0.00  0.00    -0.500 NA
ATOM      4  C   LIG    1       -0.044   1.406  -0.013  0.00  0.00    +0.170 A 
ATOM      5  C   LIG    1       -0.141   0.018   0.087  0.00  0.00    +0.010 A 
ATOM      6  C   LIG    1        0.992  -0.759  -0.018  0.00  0.00    +0.100 A 
ATOM      7  C   LIG    1        2.235  -0.182  -0.221  0.00  0.00    +0.000 A 
ATOM      8  C   LIG    1        2.363   1.194  -0.324  0.00  0.00    +0.230 A 
ATOM      9  C   LIG    1        1.222   1.999  -0.221  0.00  0.00    -0.230 A 
ATOM     10  C   LIG    1        1.292   3.461  -0.321  0.00  0.00    +0.550 A 
ATOM     11  O   LIG    1        2.351   4.033  -0.500  0.00  0.00    -0.500 OA
ATOM     12  N   LIG    1        0.132   4.149  -0.207  0.00  0.00    -0.530 N 
ENDROOT
BRANCH  12  13
ATOM     13  C   LIG    1        0.144   5.611  -0.299  0.00  0.00    +0.250 C 
ATOM     14  C   LIG    1       -0.560   6.049  -1.588  0.00  0.00    +0.070 C 
ATOM     15  C   LIG    1        0.249   5.535  -2.784  0.00  0.00    +0.080 C 
ATOM     16  C   LIG    1        1.667   6.030  -2.671  0.00  0.00    +0.520 C 
ATOM     17  N   LIG    1        2.227   6.272  -1.477  0.00  0.00    -0.660 N 
ATOM     18  H   LIG    1        3.146   6.583  -1.448  0.00  0.00    +0.420 HD
ATOM     19  O   LIG    1        2.315   6.213  -3.680  0.00  0.00    -0.500 OA
ATOM     20  C   LIG    1        1.567   6.103  -0.322  0.00  0.00    +0.550 C 
ATOM     21  O   LIG    1        2.127   6.349   0.725  0.00  0.00    -0.490 OA
ENDBRANCH  12  13
BRANCH   8  22
ATOM     22  N   LIG    1        3.615   1.772  -0.529  0.00  0.00    -0.660 N 
ATOM     23  H   LIG    1        3.789   2.675  -0.221  0.00  0.00    +0.420 HD
ATOM     24  C   LIG    1        4.584   1.075  -1.155  0.00  0.00    +0.520 C 
ATOM     25  O   LIG    1        4.395  -0.082  -1.466  0.00  0.00    -0.510 OA
BRANCH  24  26
ATOM     26  C   LIG    1        5.902   1.733  -1.469  0.00  0.00    +0.080 C 
BRANCH  26  27
ATOM     27  C   LIG    1        6.818   0.731  -2.175  0.00  0.00    +0.060 C 
BRANCH  27  28
ATOM     28  C   LIG    1        8.156   1.400  -2.494  0.00  0.00    +0.200 C 
BRANCH  28  29
ATOM     29  C   LIG    1        9.058   0.413  -3.190  0.00  0.00    +0.190 A 
ATOM     30  N   LIG    1        9.141   0.212  -4.481  0.00  0.00    -0.470 NA
ATOM     31  C   LIG    1       10.074  -0.755  -4.640  0.00  0.00    +0.240 A 
ATOM     32  N   LIG    1       10.492  -1.087  -3.443  0.00  0.00    -0.370 NA
ATOM     33  O   LIG    1        9.918  -0.426  -2.604  0.00  0.00    +0.090 OA
BRANCH  31  34
ATOM     34  C   LIG    1       10.531  -1.333  -5.921  0.00  0.00    -0.140 A 
ATOM     35  C   LIG    1       11.464  -2.298  -6.051  0.00  0.00    +0.060 A 
ATOM     36  C   LIG    1       11.722  -2.679  -7.350  0.00  0.00    +0.010 A 
ATOM     37  C   LIG    1       11.017  -2.029  -8.282  0.00  0.00    -0.030 A 
ATOM     38  S   LIG    1        9.948  -0.863  -7.512  0.00  0.00    +0.190 S 
ENDBRANCH  31  34
ENDBRANCH  28  29
ENDBRANCH  27  28
ENDBRANCH  26  27
ENDBRANCH  24  26
ENDBRANCH   8  22
TORSDOF 7
