REMARK  Name = ZINCrH000004mzZy.0
REMARK                            x       y       z     vdW  Elec       q    Type
REMARK                         _______ _______ _______ _____ _____    ______ ____
ROOT
ATOM      1  C   LIG    1       -2.856  -1.711  -1.609  0.00  0.00    +0.510 C 
ATOM      2  N   LIG    1       -1.719  -1.028  -1.369  0.00  0.00    -0.730 N 
ATOM      3  H   LIG    1       -1.186  -0.698  -2.109  0.00  0.00    +0.400 HD
ATOM      4  O   LIG    1       -3.522  -2.123  -0.683  0.00  0.00    -0.540 OA
ENDROOT
BRANCH   1   5
ATOM      5  C   LIG    1       -3.299  -1.963  -3.027  0.00  0.00    +0.050 C 
BRANCH   5   6
ATOM      6  C   LIG    1       -4.608  -2.754  -3.019  0.00  0.00    +0.100 C 
BRANCH   6  10
ATOM      7  C   LIG    1       -5.865  -3.469  -7.040  0.00  0.00    +0.120 A 
ATOM      8  C   LIG    1       -5.040  -4.380  -6.398  0.00  0.00    -0.020 A 
ATOM      9  C   LIG    1       -4.635  -4.147  -5.098  0.00  0.00    +0.050 A 
ATOM     10  C   LIG    1       -5.051  -3.006  -4.437  0.00  0.00    -0.120 A 
ATOM     11  C   LIG    1       -5.878  -2.098  -5.074  0.00  0.00    +0.040 A 
ATOM     12  C   LIG    1       -6.281  -2.324  -6.375  0.00  0.00    -0.080 A 
BRANCH   7  14
ATOM     13  C   LIG    1       -7.114  -2.715  -8.918  0.00  0.00    +0.250 C 
ATOM     14  O   LIG    1       -6.266  -3.696  -8.319  0.00  0.00    -0.320 OA
ENDBRANCH   7  14
ENDBRANCH   6  10
ENDBRANCH   5   6
ENDBRANCH   1   5
BRANCH   2  15
ATOM     15  C   LIG    1       -1.288  -0.783   0.010  0.00  0.00    +0.330 C 
BRANCH  15  16
ATOM     16  C   LIG    1        0.002  -0.004   0.002  0.00  0.00    -0.200 A 
ATOM     17  C   LIG    1       -0.017   1.384   0.010  0.00  0.00    +0.110 A 
ATOM     18  C   LIG    1        1.190   2.061   0.002  0.00  0.00    -0.050 A 
ATOM     19  C   LIG    1        2.374   1.332  -0.013  0.00  0.00    +0.330 A 
ATOM     20  N   LIG    1        2.350   0.008  -0.020  0.00  0.00    -0.520 NA
ATOM     21  C   LIG    1        1.215  -0.664  -0.013  0.00  0.00    +0.310 A 
BRANCH  19  22
ATOM     22  N   LIG    1        3.594   1.999  -0.021  0.00  0.00    -0.490 N 
ATOM     23  C   LIG    1        3.635   3.017  -1.094  0.00  0.00    +0.200 C 
ATOM     24  C   LIG    1        5.014   3.573  -1.319  0.00  0.00    +0.040 C 
ATOM     25  C   LIG    1        5.690   2.763  -2.445  0.00  0.00    +0.000 C 
ATOM     26  C   LIG    1        6.197   1.480  -1.972  0.00  0.00    +0.000 C 
ATOM     27  C   LIG    1        5.074   0.576  -1.423  0.00  0.00    +0.000 C 
ATOM     28  C   LIG    1        4.722   1.041  -0.036  0.00  0.00    +0.230 C 
ENDBRANCH  19  22
ENDBRANCH  15  16
ENDBRANCH   2  15
TORSDOF 7
