REMARK  Name = ZINCrD000000AlaK.0
REMARK                            x       y       z     vdW  Elec       q    Type
REMARK                         _______ _______ _______ _____ _____    ______ ____
ROOT
ATOM      1  N   LIG    1       -0.834   8.208   0.895  0.00  0.00    -0.520 NA
ATOM      2  C   LIG    1       -1.490   7.677  -0.307  0.00  0.00    +0.180 C 
ATOM      3  C   LIG    1       -1.478   6.147  -0.262  0.00  0.00    +0.060 C 
ATOM      4  C   LIG    1       -0.030   5.655  -0.189  0.00  0.00    -0.010 C 
ATOM      5  C   LIG    1        0.645   6.261   1.045  0.00  0.00    +0.040 C 
ATOM      6  C   LIG    1        0.571   7.787   0.962  0.00  0.00    +0.180 C 
ENDROOT
BRANCH   4   7
ATOM      7  C   LIG    1       -0.014   4.152  -0.084  0.00  0.00    +0.520 C 
ATOM      8  N   LIG    1        1.160   3.494  -0.006  0.00  0.00    -0.670 N 
ATOM      9  H   LIG    1        1.991   3.991   0.048  0.00  0.00    +0.410 HD
ATOM     10  O   LIG    1       -1.058   3.534  -0.070  0.00  0.00    -0.520 OA
BRANCH   8  11
ATOM     11  C   LIG    1        1.179   2.093  -0.005  0.00  0.00    +0.120 A 
ATOM     12  C   LIG    1        0.160   1.384   0.613  0.00  0.00    +0.030 A 
ATOM     13  C   LIG    1        0.182   0.002   0.613  0.00  0.00    +0.020 A 
ATOM     14  C   LIG    1        1.218  -0.677  -0.002  0.00  0.00    +0.010 A 
ATOM     15  C   LIG    1        2.237   0.023  -0.619  0.00  0.00    +0.000 A 
ATOM     16  C   LIG    1        2.223   1.408  -0.624  0.00  0.00    +0.080 A 
BRANCH  16  17
ATOM     17  O   LIG    1        3.225   2.098  -1.232  0.00  0.00    -0.500 OA
ATOM     18  H   LIG    1        3.061   2.290  -2.165  0.00  0.00    +0.390 HD
ENDBRANCH  16  17
ENDBRANCH   8  11
ENDBRANCH   4   7
BRANCH   1  19
ATOM     19  C   LIG    1       -0.949   9.671   0.954  0.00  0.00    +0.220 C 
BRANCH  19  21
ATOM     20  O   LIG    1       -0.102   9.363   3.135  0.00  0.00    -0.500 OA
ATOM     21  C   LIG    1       -0.488  10.157   2.304  0.00  0.00    +0.510 C 
ATOM     22  N   LIG    1       -0.505  11.475   2.588  0.00  0.00    -0.680 N 
ATOM     23  H   LIG    1       -0.875  12.104   1.949  0.00  0.00    +0.410 HD
BRANCH  22  24
ATOM     24  C   LIG    1        0.011  11.935   3.805  0.00  0.00    +0.150 A 
ATOM     25  C   LIG    1       -0.136  11.172   4.956  0.00  0.00    +0.040 A 
ATOM     26  C   LIG    1        0.379  11.627   6.154  0.00  0.00    +0.050 A 
ATOM     27  C   LIG    1        1.032  12.846   6.210  0.00  0.00    -0.050 A 
ATOM     28  C   LIG    1        1.175  13.610   5.066  0.00  0.00    +0.050 A 
ATOM     29 CL   LIG    1        1.672  13.417   7.719  0.00  0.00    -0.070 Cl
ATOM     30  C   LIG    1        0.666  13.158   3.864  0.00  0.00    +0.010 A 
ENDBRANCH  22  24
ENDBRANCH  19  21
ENDBRANCH   1  19
TORSDOF 6
