REMARK  Name = ZINCtV00000L6jts.0
REMARK                            x       y       z     vdW  Elec       q    Type
REMARK                         _______ _______ _______ _____ _____    ______ ____
ROOT
ATOM      1  C   LIG    1       -0.809   0.401  -3.550  0.00  0.00    +0.500 A 
ATOM      2  C   LIG    1       -0.112   0.359  -4.785  0.00  0.00    -0.230 A 
ATOM      3  C   LIG    1        1.319   0.358  -5.058  0.00  0.00    -0.020 A 
ATOM      4  C   LIG    1        1.633   0.304  -6.352  0.00  0.00    -0.020 A 
ATOM      5  S   LIG    1        0.196   0.241  -7.354  0.00  0.00    +0.180 S 
ATOM      6  C   LIG    1       -0.869   0.292  -5.956  0.00  0.00    +0.120 A 
ATOM      7  N   LIG    1       -2.204   0.280  -5.870  0.00  0.00    -0.530 NA
ATOM      8  C   LIG    1       -2.811   0.326  -4.697  0.00  0.00    +0.430 A 
ATOM      9  N   LIG    1       -2.132   0.385  -3.557  0.00  0.00    -0.570 NA
ENDROOT
BRANCH   3  10
ATOM     10  C   LIG    1        2.341   0.419  -3.986  0.00  0.00    -0.040 A 
ATOM     11  C   LIG    1        2.354   1.488  -3.091  0.00  0.00    +0.010 A 
ATOM     12  C   LIG    1        3.304   1.535  -2.091  0.00  0.00    +0.020 A 
ATOM     13  C   LIG    1        4.250   0.531  -1.983  0.00  0.00    +0.020 A 
ATOM     14  C   LIG    1        4.245  -0.529  -2.872  0.00  0.00    +0.020 A 
ATOM     15  C   LIG    1        3.297  -0.590  -3.872  0.00  0.00    +0.030 A 
ENDBRANCH   3  10
BRANCH   8  16
ATOM     16  C   LIG    1       -4.293   0.311  -4.653  0.00  0.00    -0.100 A 
ATOM     17  C   LIG    1       -5.038   0.249  -5.833  0.00  0.00    +0.120 A 
ATOM     18  C   LIG    1       -6.419   0.236  -5.738  0.00  0.00    -0.040 A 
ATOM     19  C   LIG    1       -7.011   0.285  -4.489  0.00  0.00    +0.280 A 
ATOM     20  N   LIG    1       -6.281   0.343  -3.392  0.00  0.00    -0.490 NA
ATOM     21  C   LIG    1       -4.965   0.351  -3.432  0.00  0.00    +0.320 A 
ENDBRANCH   8  16
BRANCH   1  22
ATOM     22  N   LIG    1       -0.114   0.463  -2.355  0.00  0.00    -0.700 N 
ATOM     23  H   LIG    1        0.853   0.392  -2.352  0.00  0.00    +0.410 HD
BRANCH  22  28
ATOM     24  C   LIG    1       -1.778   1.921   2.930  0.00  0.00    +0.010 C 
ATOM     25  C   LIG    1       -1.020   1.740   1.614  0.00  0.00    -0.020 C 
ATOM     26  C   LIG    1       -0.763   0.251   1.373  0.00  0.00    +0.030 C 
ATOM     27  C   LIG    1       -0.005   0.070   0.057  0.00  0.00    +0.010 C 
ATOM     28  C   LIG    1       -0.840   0.637  -1.094  0.00  0.00    +0.250 C 
ATOM     29  C   LIG    1       -1.096   2.126  -0.854  0.00  0.00    +0.000 C 
ATOM     30  C   LIG    1       -1.854   2.307   0.463  0.00  0.00    +0.030 C 
ENDBRANCH  22  28
ENDBRANCH   1  22
TORSDOF 4
