REMARK  Name = ZINCqH0000000tJi.0
REMARK                            x       y       z     vdW  Elec       q    Type
REMARK                         _______ _______ _______ _____ _____    ______ ____
ROOT
ATOM      1  S   LIG    1       -1.441   1.758   0.008  0.00  0.00    +2.700 S 
ATOM      2  O   LIG    1       -1.544   2.722   1.047  0.00  0.00    -0.950 OA
ATOM      3  O   LIG    1       -2.316   0.645  -0.109  0.00  0.00    -0.950 OA
ENDROOT
BRANCH   1   7
ATOM      4  C   LIG    1       -1.750   4.042  -3.891  0.00  0.00    +0.210 A 
ATOM      5  C   LIG    1       -2.073   2.692  -3.848  0.00  0.00    +0.000 A 
ATOM      6  C   LIG    1       -1.978   1.998  -2.657  0.00  0.00    +0.150 A 
ATOM      7  C   LIG    1       -1.561   2.647  -1.509  0.00  0.00    -0.700 A 
ATOM      8  C   LIG    1       -1.243   3.992  -1.547  0.00  0.00    +0.150 A 
ATOM      9  C   LIG    1       -1.331   4.690  -2.736  0.00  0.00    -0.030 A 
BRANCH   4  12
ATOM     10  C   LIG    1       -2.831   5.105  -7.335  0.00  0.00    +0.120 C 
ATOM     11  C   LIG    1       -2.801   4.427  -5.990  0.00  0.00    +0.510 C 
ATOM     12  N   LIG    1       -1.845   4.748  -5.095  0.00  0.00    -0.680 N 
ATOM     13  H   LIG    1       -1.224   5.468  -5.286  0.00  0.00    +0.420 HD
ATOM     14  O   LIG    1       -3.636   3.593  -5.712  0.00  0.00    -0.520 OA
ENDBRANCH   4  12
ENDBRANCH   1   7
BRANCH   1  15
ATOM     15  N   LIG    1        0.093   1.140   0.094  0.00  0.00    -1.110 NA
ATOM     16  H   LIG    1        0.230   0.180   0.082  0.00  0.00    +0.420 HD
BRANCH  15  17
ATOM     17  C   LIG    1        1.243   2.043   0.183  0.00  0.00    +0.300 C 
ATOM     18  C   LIG    1        1.807   2.290  -1.217  0.00  0.00    +0.040 C 
BRANCH  17  19
ATOM     19  C   LIG    1        2.305   1.419   1.051  0.00  0.00    -0.090 A 
ATOM     20  C   LIG    1        2.564   0.065   0.960  0.00  0.00    +0.050 A 
ATOM     21  C   LIG    1        3.543  -0.507   1.752  0.00  0.00    +0.030 A 
ATOM     22  C   LIG    1        4.255   0.275   2.643  0.00  0.00    +0.070 A 
ATOM     23  C   LIG    1        3.992   1.629   2.737  0.00  0.00    -0.180 A 
ATOM     24  C   LIG    1        3.018   2.201   1.942  0.00  0.00    +0.080 A 
BRANCH  23  25
ATOM     25  C   LIG    1        4.768   2.481   3.709  0.00  0.00    +0.510 C 
ATOM     26  F   LIG    1        4.868   3.783   3.209  0.00  0.00    -0.180 F 
ATOM     27  F   LIG    1        6.049   1.946   3.878  0.00  0.00    -0.180 F 
ATOM     28  F   LIG    1        4.106   2.504   4.941  0.00  0.00    -0.170 F 
ENDBRANCH  23  25
ENDBRANCH  17  19
ENDBRANCH  15  17
ENDBRANCH   1  15
TORSDOF 6
