REMARK  Name = ZINCrg000000sS03.1
REMARK                            x       y       z     vdW  Elec       q    Type
REMARK                         _______ _______ _______ _____ _____    ______ ____
ROOT
ATOM      1  N   LIG    1       -1.151   6.184  -0.844  0.00  0.00    -0.640 NA
ATOM      2  H   LIG    1       -2.043   6.151  -0.373  0.00  0.00    +0.360 HD
ENDROOT
BRANCH   1   3
ATOM      3  C   LIG    1       -0.865   7.538  -1.336  0.00  0.00    +0.130 C 
ATOM      4  C   LIG    1       -0.046   7.481  -2.653  0.00  0.00    +0.040 C 
ATOM      5  C   LIG    1       -0.437   8.825  -3.320  0.00  0.00    +0.190 C 
ATOM      6  N   LIG    1       -1.865   9.015  -2.986  0.00  0.00    -0.470 N 
ATOM      7  C   LIG    1       -2.166   8.251  -1.761  0.00  0.00    +0.200 C 
BRANCH   6   8
ATOM      8  C   LIG    1       -2.163  10.361  -2.818  0.00  0.00    +0.150 A 
ATOM      9  C   LIG    1       -1.526  11.099  -1.828  0.00  0.00    -0.030 A 
ATOM     10  C   LIG    1       -1.823  12.436  -1.664  0.00  0.00    +0.050 A 
ATOM     11  C   LIG    1       -2.756  13.053  -2.482  0.00  0.00    +0.000 A 
ATOM     12  C   LIG    1       -3.398  12.338  -3.469  0.00  0.00    +0.050 A 
ATOM     13  C   LIG    1       -3.104  10.985  -3.652  0.00  0.00    -0.120 A 
BRANCH  13  14
ATOM     14  C   LIG    1       -3.782  10.215  -4.711  0.00  0.00    +0.560 C 
ATOM     15  O   LIG    1       -3.527   9.036  -4.863  0.00  0.00    -0.500 OA
ATOM     16  N   LIG    1       -4.685  10.818  -5.509  0.00  0.00    -0.860 N 
ATOM     17  H   LIG    1       -5.132  10.311  -6.205  0.00  0.00    +0.400 HD
ATOM     18  H   LIG    1       -4.889  11.758  -5.387  0.00  0.00    +0.400 HD
ENDBRANCH  13  14
ENDBRANCH   6   8
ENDBRANCH   1   3
BRANCH   1  19
ATOM     19  C   LIG    1       -0.075   5.704   0.034  0.00  0.00    +0.220 C 
BRANCH  19  23
ATOM     20  C   LIG    1       -0.017   1.428   0.010  0.00  0.00    -0.020 A 
ATOM     21  C   LIG    1       -1.234   2.113   0.019  0.00  0.00    +0.070 A 
ATOM     22  C   LIG    1       -1.246   3.492   0.032  0.00  0.00    +0.050 A 
ATOM     23  C   LIG    1       -0.055   4.197   0.025  0.00  0.00    -0.050 A 
ATOM     24  C   LIG    1        1.154   3.525   0.010  0.00  0.00    +0.030 A 
ATOM     25  C   LIG    1        1.180   2.146   0.002  0.00  0.00    +0.070 A 
BRANCH  20  27
ATOM     26  N   LIG    1        0.018  -1.140  -0.004  0.00  0.00    -0.410 NA
ATOM     27  C   LIG    1        0.002  -0.004   0.002  0.00  0.00    +0.250 C 
ENDBRANCH  20  27
ENDBRANCH  19  23
BRANCH  19  28
ATOM     28  C   LIG    1       -0.315   6.195   1.438  0.00  0.00    +0.490 C 
ATOM     29  O   LIG    1       -1.287   6.878   1.683  0.00  0.00    -0.540 OA
ATOM     30  N   LIG    1        0.550   5.876   2.421  0.00  0.00    -0.850 N 
ATOM     31  H   LIG    1        0.395   6.192   3.325  0.00  0.00    +0.400 HD
ATOM     32  H   LIG    1        1.327   5.330   2.224  0.00  0.00    +0.400 HD
ENDBRANCH  19  28
ENDBRANCH   1  19
TORSDOF 7
