REMARK  Name = ZINCtV00000L6jFV.0
REMARK                            x       y       z     vdW  Elec       q    Type
REMARK                         _______ _______ _______ _____ _____    ______ ____
ROOT
ATOM      1  C   LIG    1        5.284   2.012  -0.575  0.00  0.00    +0.420 A 
ATOM      2  C   LIG    1        5.854   3.230  -0.872  0.00  0.00    -0.160 A 
ATOM      3  C   LIG    1        5.075   4.296  -1.300  0.00  0.00    +0.060 A 
ATOM      4  C   LIG    1        3.696   4.129  -1.430  0.00  0.00    -0.050 A 
ATOM      5  C   LIG    1        3.111   2.822  -1.109  0.00  0.00    +0.330 A 
ATOM      6  N   LIG    1        1.865   2.389  -1.141  0.00  0.00    -0.490 NA
ATOM      7  C   LIG    1        1.822   1.093  -0.751  0.00  0.00    +0.090 A 
ATOM      8  C   LIG    1        0.780   0.170  -0.607  0.00  0.00    +0.060 A 
ATOM      9  C   LIG    1        1.055  -1.109  -0.180  0.00  0.00    +0.030 A 
ATOM     10  C   LIG    1        2.358  -1.491   0.108  0.00  0.00    +0.010 A 
ATOM     11  C   LIG    1        3.397  -0.594  -0.029  0.00  0.00    +0.040 A 
ATOM     12  C   LIG    1        3.140   0.700  -0.457  0.00  0.00    +0.020 A 
ATOM     13  C   LIG    1        5.713   5.623  -1.621  0.00  0.00    +0.130 C 
ATOM     14  N   LIG    1        3.938   1.808  -0.690  0.00  0.00    -0.400 N 
ENDROOT
BRANCH   1  15
ATOM     15  N   LIG    1        6.086   0.980  -0.154  0.00  0.00    -0.770 N 
ATOM     16  H   LIG    1        6.478   1.001   0.733  0.00  0.00    +0.410 HD
BRANCH  15  17
ATOM     17  C   LIG    1        6.350  -0.153  -1.045  0.00  0.00    +0.220 C 
ATOM     18  C   LIG    1        7.160   0.325  -2.252  0.00  0.00    +0.030 C 
BRANCH  17  20
ATOM     19  C   LIG    1        6.295  -1.765   0.863  0.00  0.00    +0.010 C 
ATOM     20  C   LIG    1        7.142  -1.222  -0.289  0.00  0.00    +0.020 C 
ENDBRANCH  17  20
ENDBRANCH  15  17
ENDBRANCH   1  15
BRANCH   4  21
ATOM     21  C   LIG    1        2.868   5.211  -1.870  0.00  0.00    +0.270 C 
ATOM     22  N   LIG    1        2.211   6.070  -2.218  0.00  0.00    -0.400 NA
ENDBRANCH   4  21
BRANCH   2  23
ATOM     23  C   LIG    1        7.343   3.408  -0.729  0.00  0.00    +0.160 C 
BRANCH  23  24
ATOM     24  C   LIG    1        7.655   3.961   0.638  0.00  0.00    -0.070 A 
ATOM     25  C   LIG    1        7.859   5.318   0.804  0.00  0.00    +0.030 A 
ATOM     26  C   LIG    1        8.140   5.827   2.058  0.00  0.00    +0.040 A 
ATOM     27  C   LIG    1        8.227   4.976   3.146  0.00  0.00    -0.040 A 
ATOM     28  C   LIG    1        8.028   3.617   2.978  0.00  0.00    +0.030 A 
ATOM     29 CL   LIG    1        8.587   5.612   4.720  0.00  0.00    -0.070 Cl
ATOM     30  C   LIG    1        7.741   3.111   1.724  0.00  0.00    +0.020 A 
ENDBRANCH  23  24
ENDBRANCH   2  23
TORSDOF 6
