REMARK  Name = ZINCrD000003He4U.0
REMARK                            x       y       z     vdW  Elec       q    Type
REMARK                         _______ _______ _______ _____ _____    ______ ____
ROOT
ATOM      1  N   LIG    1       -0.886   7.599   1.433  0.00  0.00    -0.690 N 
ATOM      2  H   LIG    1       -1.578   8.075   0.949  0.00  0.00    +0.410 HD
ATOM      3  C   LIG    1        0.074   8.284   2.086  0.00  0.00    +0.710 C 
ATOM      4  N   LIG    1        0.013   9.628   2.156  0.00  0.00    -0.720 N 
ATOM      5  H   LIG    1       -0.722  10.103   1.737  0.00  0.00    +0.400 HD
ATOM      6  O   LIG    1        0.995   7.689   2.611  0.00  0.00    -0.550 OA
ENDROOT
BRANCH   1  10
ATOM      7  C   LIG    1       -0.878   3.433   1.494  0.00  0.00    -0.660 A 
ATOM      8  C   LIG    1       -1.325   4.106   0.372  0.00  0.00    +0.130 A 
ATOM      9  C   LIG    1       -1.335   5.486   0.351  0.00  0.00    -0.020 A 
ATOM     10  C   LIG    1       -0.883   6.199   1.454  0.00  0.00    +0.220 A 
ATOM     11  C   LIG    1       -0.430   5.521   2.577  0.00  0.00    +0.010 A 
ATOM     12  C   LIG    1       -0.428   4.140   2.594  0.00  0.00    +0.130 A 
BRANCH   7  14
ATOM     13  C   LIG    1       -2.467   1.106   2.176  0.00  0.00    -0.280 C 
ATOM     14  S   LIG    1       -0.873   1.671   1.520  0.00  0.00    +2.390 S 
ATOM     15  O   LIG    1        0.260   1.238   2.260  0.00  0.00    -0.900 OA
ATOM     16  N   LIG    1       -0.739   1.171   0.119  0.00  0.00    -1.220 NA
ATOM     17  H   LIG    1       -1.426   1.372  -0.536  0.00  0.00    +0.380 HD
ENDBRANCH   7  14
ENDBRANCH   1  10
BRANCH   4  18
ATOM     18  C   LIG    1        1.056  10.373   2.866  0.00  0.00    +0.270 C 
ATOM     19  C   LIG    1        0.509  11.733   3.358  0.00  0.00    +0.060 C 
ATOM     20  C   LIG    1        1.736  12.653   3.168  0.00  0.00    +0.280 C 
ATOM     21  N   LIG    1        2.534  12.027   2.108  0.00  0.00    -0.580 N 
ATOM     22  C   LIG    1        2.177  10.744   1.921  0.00  0.00    +0.510 C 
ATOM     23  O   LIG    1        2.681   9.994   1.112  0.00  0.00    -0.490 OA
BRANCH  21  24
ATOM     24  C   LIG    1        3.539  12.680   1.385  0.00  0.00    +0.150 A 
ATOM     25  C   LIG    1        4.849  12.665   1.843  0.00  0.00    +0.040 A 
ATOM     26  C   LIG    1        5.839  13.306   1.124  0.00  0.00    +0.030 A 
ATOM     27  C   LIG    1        5.525  13.973  -0.045  0.00  0.00    +0.040 A 
ATOM     28  C   LIG    1        4.220  13.995  -0.503  0.00  0.00    +0.030 A 
ATOM     29  C   LIG    1        3.225  13.351   0.208  0.00  0.00    -0.030 A 
ATOM     30 CL   LIG    1        1.588  13.379  -0.367  0.00  0.00    -0.060 Cl
ENDBRANCH  21  24
ENDBRANCH   4  18
TORSDOF 4
