REMARK  Name = ZINCpe00000MJLuS.0
REMARK                            x       y       z     vdW  Elec       q    Type
REMARK                         _______ _______ _______ _____ _____    ______ ____
ROOT
ATOM      1  N   LIG    1        3.957   4.095  -0.706  0.00  0.00    -0.310 N 
ATOM      2  N   LIG    1        5.229   4.039  -0.110  0.00  0.00    -0.070 NA
ATOM      3  N   LIG    1        5.046   4.153   1.161  0.00  0.00    -0.040 NA
ATOM      4  N   LIG    1        3.795   4.279   1.420  0.00  0.00    -0.330 NA
ATOM      5  C   LIG    1        3.091   4.245   0.320  0.00  0.00    +0.260 A 
ENDROOT
BRANCH   1  13
ATOM      6  C   LIG    1        2.263   1.982  -1.584  0.00  0.00    +0.120 C 
ATOM      7  C   LIG    1        2.830   2.998  -2.542  0.00  0.00    -0.050 A 
ATOM      8  C   LIG    1        2.528   2.922  -3.888  0.00  0.00    +0.020 A 
ATOM      9  C   LIG    1        3.052   3.850  -4.769  0.00  0.00    +0.060 A 
ATOM     10  C   LIG    1        3.875   4.860  -4.305  0.00  0.00    +0.020 A 
ATOM     11  C   LIG    1        4.176   4.944  -2.959  0.00  0.00    -0.050 A 
ATOM     12  C   LIG    1        5.074   6.044  -2.455  0.00  0.00    +0.100 C 
ATOM     13  C   LIG    1        3.652   4.013  -2.073  0.00  0.00    +0.100 A 
ENDBRANCH   1  13
BRANCH   5  14
ATOM     14  C   LIG    1        1.592   4.358   0.214  0.00  0.00    +0.330 C 
BRANCH  14  15
ATOM     15  N   LIG    1        0.972   3.115   0.691  0.00  0.00    -0.520 NA
ATOM     16  C   LIG    1        1.540   2.705   1.987  0.00  0.00    +0.200 C 
ATOM     17  C   LIG    1        1.101   1.273   2.264  0.00  0.00    +0.040 C 
ATOM     18  C   LIG    1       -0.409   1.124   2.276  0.00  0.00    +0.230 C 
ATOM     19  C   LIG    1       -1.161   2.035   1.328  0.00  0.00    +0.220 C 
ATOM     20  N   LIG    1       -1.653   1.161   0.261  0.00  0.00    -0.730 N 
ATOM     21  H   LIG    1       -2.084   1.450  -0.558  0.00  0.00    +0.430 HD
ATOM     22  C   LIG    1       -1.403  -0.112   0.615  0.00  0.00    +0.700 C 
ATOM     23  O   LIG    1       -1.749  -1.067  -0.054  0.00  0.00    -0.580 OA
ATOM     24  N   LIG    1       -0.738  -0.230   1.772  0.00  0.00    -0.640 N 
ATOM     25  C   LIG    1       -0.392  -1.492   2.432  0.00  0.00    +0.330 C 
ATOM     26  C   LIG    1       -0.477   3.269   0.827  0.00  0.00    +0.200 C 
ENDBRANCH  14  15
ENDBRANCH   5  14
TORSDOF 3
