REMARK  Name = ZINCvU0000000C8G.0
REMARK                            x       y       z     vdW  Elec       q    Type
REMARK                         _______ _______ _______ _____ _____    ______ ____
ROOT
ATOM      1  C   LIG    1       -0.150   0.032   0.351  0.00  0.00    +0.200 C 
ATOM      2  C   LIG    1       -0.120   1.536   0.265  0.00  0.00    +0.150 A 
ATOM      3  N   LIG    1       -1.147   2.330   0.303  0.00  0.00    -0.260 NA
ATOM      4  O   LIG    1       -0.717   3.672   0.196  0.00  0.00    -0.070 OA
ATOM      5  C   LIG    1        0.626   3.705   0.080  0.00  0.00    +0.310 A 
ATOM      6  N   LIG    1        1.496   4.693  -0.050  0.00  0.00    -0.460 NA
ATOM      7  C   LIG    1        2.798   4.471  -0.148  0.00  0.00    +0.230 A 
ATOM      8  C   LIG    1        3.320   3.176  -0.120  0.00  0.00    +0.000 A 
ATOM      9  C   LIG    1        2.450   2.098   0.015  0.00  0.00    +0.010 A 
ATOM     10  C   LIG    1        1.071   2.371   0.117  0.00  0.00    -0.210 A 
ENDROOT
BRANCH   7  11
ATOM     11  C   LIG    1        3.721   5.623  -0.290  0.00  0.00    -0.010 A 
ATOM     12  C   LIG    1        5.082   5.407  -0.502  0.00  0.00    +0.050 A 
ATOM     13  C   LIG    1        5.936   6.483  -0.634  0.00  0.00    +0.050 A 
ATOM     14  C   LIG    1        5.444   7.773  -0.556  0.00  0.00    +0.040 A 
ATOM     15  C   LIG    1        4.095   7.994  -0.346  0.00  0.00    +0.070 A 
ATOM     16  C   LIG    1        3.230   6.926  -0.220  0.00  0.00    -0.140 A 
BRANCH  16  17
ATOM     17  C   LIG    1        1.759   7.168   0.002  0.00  0.00    +0.520 C 
ATOM     18  F   LIG    1        1.370   6.594   1.217  0.00  0.00    -0.170 F 
ATOM     19  F   LIG    1        1.029   6.589  -1.042  0.00  0.00    -0.160 F 
ATOM     20  F   LIG    1        1.513   8.544   0.036  0.00  0.00    -0.180 F 
ENDBRANCH  16  17
ENDBRANCH   7  11
BRANCH   9  21
ATOM     21  C   LIG    1        2.958   0.708   0.049  0.00  0.00    +0.560 C 
ATOM     22  N   LIG    1        3.755   0.256  -0.940  0.00  0.00    -0.560 N 
ATOM     23  O   LIG    1        2.655  -0.027   0.969  0.00  0.00    -0.500 OA
BRANCH  22  24
ATOM     24  C   LIG    1        4.329  -1.089  -0.861  0.00  0.00    +0.200 C 
ATOM     25  C   LIG    1        3.696  -2.071   0.127  0.00  0.00    +0.030 C 
ATOM     26  C   LIG    1        5.070  -1.467   0.424  0.00  0.00    +0.000 C 
ENDBRANCH  22  24
BRANCH  22  27
ATOM     27  C   LIG    1        4.046   1.111  -2.093  0.00  0.00    +0.250 C 
ATOM     28  C   LIG    1        5.555   1.347  -2.184  0.00  0.00    +0.040 C 
BRANCH  27  29
ATOM     29  C   LIG    1        3.559   0.425  -3.372  0.00  0.00    -0.060 C 
ATOM     30  C   LIG    1        4.621  -0.068  -4.357  0.00  0.00    +0.020 C 
ATOM     31  C   LIG    1        3.775   1.163  -4.695  0.00  0.00    +0.030 C 
ENDBRANCH  27  29
ENDBRANCH  22  27
ENDBRANCH   9  21
TORSDOF 6
