REMARK  Name = ZINCvU0000000BRt.0
REMARK                            x       y       z     vdW  Elec       q    Type
REMARK                         _______ _______ _______ _____ _____    ______ ____
ROOT
ATOM      1  C   LIG    1        1.422  -1.818  -0.509  0.00  0.00    +0.160 C 
ATOM      2  C   LIG    1        0.098  -2.577  -0.395  0.00  0.00    +0.040 C 
ATOM      3  C   LIG    1       -0.965  -1.822  -1.203  0.00  0.00    +0.050 C 
ATOM      4  C   LIG    1       -1.244  -0.485  -0.516  0.00  0.00    +0.260 C 
ATOM      5  N   LIG    1        0.003   0.222  -0.251  0.00  0.00    -0.560 N 
ATOM      6  C   LIG    1        1.202  -0.360  -0.228  0.00  0.00    +0.530 C 
ATOM      7  O   LIG    1        2.167   0.325   0.039  0.00  0.00    -0.520 OA
ENDROOT
BRANCH   5   8
ATOM      8  C   LIG    1       -0.063   1.601  -0.011  0.00  0.00    +0.110 A 
ATOM      9  C   LIG    1        0.461   2.493  -0.937  0.00  0.00    +0.070 A 
ATOM     10  C   LIG    1        0.391   3.852  -0.703  0.00  0.00    -0.040 A 
ATOM     11  C   LIG    1       -0.193   4.326   0.463  0.00  0.00    +0.110 A 
ATOM     12  C   LIG    1       -0.711   3.435   1.391  0.00  0.00    +0.020 A 
ATOM     13  C   LIG    1       -0.647   2.076   1.155  0.00  0.00    +0.060 A 
BRANCH  11  14
ATOM     14  O   LIG    1       -0.257   5.664   0.695  0.00  0.00    -0.320 OA
BRANCH  14  15
ATOM     15  C   LIG    1        0.296   6.523  -0.304  0.00  0.00    +0.590 C 
ATOM     16  F   LIG    1       -0.372   6.320  -1.516  0.00  0.00    -0.200 F 
ATOM     17  F   LIG    1        1.656   6.235  -0.466  0.00  0.00    -0.200 F 
ENDBRANCH  14  15
ENDBRANCH  11  14
ENDBRANCH   5   8
BRANCH   1  18
ATOM     18  N   LIG    1        2.382  -2.364   0.459  0.00  0.00    -0.660 NA
ATOM     19  H   LIG    1        2.146  -3.314   0.706  0.00  0.00    +0.350 HD
BRANCH  18  21
ATOM     20  C   LIG    1        4.744  -2.388   1.106  0.00  0.00    +0.070 C 
ATOM     21  C   LIG    1        3.755  -2.280  -0.057  0.00  0.00    +0.240 C 
BRANCH  21  22
ATOM     22  C   LIG    1        3.997  -3.406  -1.028  0.00  0.00    -0.120 A 
ATOM     23  C   LIG    1        3.270  -4.582  -0.935  0.00  0.00    +0.090 A 
ATOM     24  C   LIG    1        3.522  -5.590  -1.854  0.00  0.00    +0.050 A 
ATOM     25  C   LIG    1        4.491  -5.394  -2.819  0.00  0.00    +0.050 A 
ATOM     26  N   LIG    1        5.168  -4.264  -2.876  0.00  0.00    -0.430 NA
ATOM     27  C   LIG    1        4.952  -3.282  -2.022  0.00  0.00    +0.180 A 
ATOM     28 CL   LIG    1        5.876  -1.817  -2.146  0.00  0.00    +0.000 Cl
BRANCH  25  29
ATOM     29  C   LIG    1        4.776  -6.485  -3.819  0.00  0.00    +0.520 C 
ATOM     30  F   LIG    1        3.650  -6.685  -4.625  0.00  0.00    -0.170 F 
ATOM     31  F   LIG    1        5.081  -7.670  -3.142  0.00  0.00    -0.170 F 
ATOM     32  F   LIG    1        5.862  -6.112  -4.619  0.00  0.00    -0.160 F 
ENDBRANCH  25  29
ENDBRANCH  21  22
ENDBRANCH  18  21
ENDBRANCH   1  18
TORSDOF 7
