REMARK  Name = ZINCfA000000b7Zv.1
REMARK                            x       y       z     vdW  Elec       q    Type
REMARK                         _______ _______ _______ _____ _____    ______ ____
ROOT
ATOM      1  N   LIG    1        3.603   1.999   0.726  0.00  0.00    -0.370 N 
ATOM      2  H   LIG    1        3.704   2.880   0.245  0.00  0.00    +0.430 HD
ENDROOT
BRANCH   1   3
ATOM      3  C   LIG    1        2.824   1.073  -0.106  0.00  0.00    +0.240 C 
ATOM      4  C   LIG    1        3.549   0.848  -1.435  0.00  0.00    +0.110 C 
BRANCH   3   5
ATOM      5  C   LIG    1        1.461   1.660  -0.371  0.00  0.00    +0.080 A 
ATOM      6  C   LIG    1        0.401   0.822  -0.659  0.00  0.00    +0.000 A 
ATOM      7  C   LIG    1       -0.848   1.373  -0.906  0.00  0.00    +0.090 A 
ATOM      8  C   LIG    1       -0.985   2.751  -0.843  0.00  0.00    +0.000 A 
ATOM      9  C   LIG    1        0.121   3.526  -0.548  0.00  0.00    +0.290 A 
ATOM     10  N   LIG    1        1.295   2.967  -0.324  0.00  0.00    -0.500 NA
ENDBRANCH   3   5
ENDBRANCH   1   3
BRANCH   1  11
ATOM     11  C   LIG    1        2.907   2.215   2.002  0.00  0.00    +0.240 C 
ATOM     12  C   LIG    1        3.679   3.238   2.837  0.00  0.00    +0.080 C 
ENDBRANCH   1  11
BRANCH   1  13
ATOM     13  C   LIG    1        4.931   1.426   0.984  0.00  0.00    +0.300 C 
BRANCH  13  15
ATOM     14  C   LIG    1        4.742  -1.008   0.973  0.00  0.00    +0.100 C 
ATOM     15  C   LIG    1        4.779   0.096   1.676  0.00  0.00    -0.190 C 
ATOM     16  C   LIG    1        4.669   0.037   3.178  0.00  0.00    +0.100 C 
ENDBRANCH  13  15
ENDBRANCH   1  13
TORSDOF 5
