REMARK  Name = ZINCfA000000b7Zv.0
REMARK                            x       y       z     vdW  Elec       q    Type
REMARK                         _______ _______ _______ _____ _____    ______ ____
ROOT
ATOM      1  N   LIG    1       -1.537  -0.843  -1.695  0.00  0.00    -0.370 N 
ATOM      2  H   LIG    1       -1.844  -1.180  -0.794  0.00  0.00    +0.430 HD
ENDROOT
BRANCH   1   3
ATOM      3  C   LIG    1       -1.827  -1.855  -2.720  0.00  0.00    +0.240 C 
ATOM      4  C   LIG    1       -3.342  -2.026  -2.853  0.00  0.00    +0.100 C 
BRANCH   3   5
ATOM      5  C   LIG    1       -1.206  -3.168  -2.320  0.00  0.00    +0.070 A 
ATOM      6  C   LIG    1       -0.885  -4.096  -3.292  0.00  0.00    +0.010 A 
ATOM      7  C   LIG    1       -0.314  -5.301  -2.913  0.00  0.00    +0.090 A 
ATOM      8  C   LIG    1       -0.086  -5.529  -1.564  0.00  0.00    +0.000 A 
ATOM      9  C   LIG    1       -0.433  -4.553  -0.649  0.00  0.00    +0.290 A 
ATOM     10  N   LIG    1       -0.970  -3.416  -1.046  0.00  0.00    -0.500 NA
ENDBRANCH   3   5
ENDBRANCH   1   3
BRANCH   1  11
ATOM     11  C   LIG    1       -2.248   0.401  -2.020  0.00  0.00    +0.240 C 
ATOM     12  C   LIG    1       -1.830   0.877  -3.413  0.00  0.00    +0.080 C 
ENDBRANCH   1  11
BRANCH   1  13
ATOM     13  C   LIG    1       -0.092  -0.586  -1.656  0.00  0.00    +0.290 C 
BRANCH  13  15
ATOM     14  C   LIG    1        0.572  -0.138   0.650  0.00  0.00    +0.120 C 
ATOM     15  C   LIG    1        0.222   0.347  -0.515  0.00  0.00    -0.190 C 
ATOM     16  C   LIG    1        0.132   1.838  -0.714  0.00  0.00    +0.100 C 
ENDBRANCH  13  15
ENDBRANCH   1  13
TORSDOF 5
