REMARK  Name = ZINCkj000005jUMg.1
REMARK                            x       y       z     vdW  Elec       q    Type
REMARK                         _______ _______ _______ _____ _____    ______ ____
ROOT
ATOM      1  C   LIG    1       -3.243  -2.522  -1.364  0.00  0.00    +0.170 C 
ATOM      2  C   LIG    1       -4.291  -1.410  -1.437  0.00  0.00    +0.030 C 
ATOM      3  C   LIG    1       -4.174  -0.520  -0.195  0.00  0.00    +0.320 C 
ATOM      4  N   LIG    1       -2.790  -0.039  -0.087  0.00  0.00    -0.620 N 
ATOM      5  C   LIG    1       -1.697  -1.020  -0.105  0.00  0.00    +0.290 C 
ATOM      6  C   LIG    1       -2.528   1.279   0.020  0.00  0.00    +0.600 C 
ATOM      7  O   LIG    1       -3.442   2.082   0.031  0.00  0.00    -0.510 OA
ATOM      8  C   LIG    1       -1.842  -1.905  -1.342  0.00  0.00    +0.040 C 
ENDROOT
BRANCH   1  12
ATOM      9  C   LIG    1       -2.236  -4.566  -4.961  0.00  0.00    +0.030 C 
ATOM     10  C   LIG    1       -2.506  -5.374  -3.690  0.00  0.00    +0.220 C 
ATOM     11  C   LIG    1       -2.368  -4.465  -2.466  0.00  0.00    +0.240 C 
ATOM     12  N   LIG    1       -3.374  -3.396  -2.537  0.00  0.00    -0.380 N 
ATOM     13  C   LIG    1       -4.718  -3.991  -2.557  0.00  0.00    +0.230 C 
ATOM     14  C   LIG    1       -4.852  -4.902  -3.780  0.00  0.00    +0.250 C 
ATOM     15  H   LIG    1       -3.233  -2.856  -3.377  0.00  0.00    +0.420 HD
ATOM     16  O   LIG    1       -3.834  -5.905  -3.735  0.00  0.00    -0.350 OA
ENDBRANCH   1  12
BRANCH   6  17
ATOM     17  C   LIG    1       -1.141   1.745   0.124  0.00  0.00    -0.070 A 
ATOM     18  C   LIG    1       -0.657   2.963  -0.302  0.00  0.00    +0.060 A 
ATOM     19  C   LIG    1        0.712   2.985  -0.014  0.00  0.00    -0.050 A 
ATOM     20  C   LIG    1        1.031   1.807   0.574  0.00  0.00    +0.210 A 
ATOM     21  N   LIG    1       -0.087   1.046   0.667  0.00  0.00    -0.550 N 
ATOM     22  H   LIG    1       -0.135   0.156   1.048  0.00  0.00    +0.420 HD
ENDBRANCH   6  17
TORSDOF 2
