REMARK  Name = ZINCkj000005jUMg.0
REMARK                            x       y       z     vdW  Elec       q    Type
REMARK                         _______ _______ _______ _____ _____    ______ ____
ROOT
ATOM      1  C   LIG    1       -0.838  -0.478  -1.426  0.00  0.00    +0.170 C 
ATOM      2  C   LIG    1       -0.800  -2.007  -1.481  0.00  0.00    +0.040 C 
ATOM      3  C   LIG    1       -2.055  -2.569  -0.804  0.00  0.00    +0.290 C 
ATOM      4  N   LIG    1       -3.240  -1.971  -1.434  0.00  0.00    -0.620 N 
ATOM      5  C   LIG    1       -3.334  -0.507  -1.515  0.00  0.00    +0.320 C 
ATOM      6  C   LIG    1       -4.222  -2.751  -1.928  0.00  0.00    +0.600 C 
ATOM      7  O   LIG    1       -5.200  -2.243  -2.445  0.00  0.00    -0.510 OA
ATOM      8  C   LIG    1       -2.065   0.032  -2.184  0.00  0.00    +0.030 C 
ENDROOT
BRANCH   1  12
ATOM      9  C   LIG    1        4.052  -0.318  -1.170  0.00  0.00    +0.110 C 
ATOM     10  C   LIG    1        2.825   0.141  -1.962  0.00  0.00    +0.160 C 
ATOM     11  C   LIG    1        1.559  -0.425  -1.316  0.00  0.00    +0.230 C 
ATOM     12  N   LIG    1        0.380   0.064  -2.044  0.00  0.00    -0.380 N 
ATOM     13  C   LIG    1        0.345   1.532  -1.990  0.00  0.00    +0.230 C 
ATOM     14  C   LIG    1        1.614   2.094  -2.635  0.00  0.00    +0.260 C 
ATOM     15  H   LIG    1        0.430  -0.236  -3.006  0.00  0.00    +0.420 HD
ATOM     16  O   LIG    1        2.760   1.570  -1.957  0.00  0.00    -0.350 OA
ENDBRANCH   1  12
BRANCH   6  17
ATOM     17  C   LIG    1       -4.113  -4.211  -1.842  0.00  0.00    -0.070 A 
ATOM     18  C   LIG    1       -4.666  -5.122  -2.716  0.00  0.00    +0.060 A 
ATOM     19  C   LIG    1       -4.311  -6.396  -2.260  0.00  0.00    -0.050 A 
ATOM     20  C   LIG    1       -3.572  -6.244  -1.136  0.00  0.00    +0.210 A 
ATOM     21  N   LIG    1       -3.444  -4.921  -0.871  0.00  0.00    -0.550 N 
ATOM     22  H   LIG    1       -2.961  -4.538  -0.122  0.00  0.00    +0.420 HD
ENDBRANCH   6  17
TORSDOF 2
