REMARK  Name = ZINCpe000000XNwW.0
REMARK                            x       y       z     vdW  Elec       q    Type
REMARK                         _______ _______ _______ _____ _____    ______ ____
ROOT
ATOM      1  N   LIG    1        2.402   1.106  -0.015  0.00  0.00    -0.560 N 
ATOM      2  C   LIG    1        2.580  -0.227  -0.018  0.00  0.00    +0.710 C 
ATOM      3  N   LIG    1        3.873  -0.571  -0.037  0.00  0.00    -0.570 N 
ATOM      4  C   LIG    1        4.675   0.512  -0.039  0.00  0.00    +0.530 C 
ATOM      5  O   LIG    1        5.887   0.525  -0.049  0.00  0.00    -0.460 OA
ATOM      6  O   LIG    1        1.667  -1.030  -0.008  0.00  0.00    -0.520 OA
ATOM      7  C   LIG    1        3.746   1.710  -0.025  0.00  0.00    +0.220 C 
ATOM      8  C   LIG    1        3.945   2.561  -1.281  0.00  0.00    +0.090 C 
ENDROOT
BRANCH   1  13
ATOM      9  C   LIG    1       -2.554   3.867   0.047  0.00  0.00    +0.100 C 
ATOM     10  C   LIG    1       -1.237   3.133   0.030  0.00  0.00    -0.110 A 
ATOM     11  C   LIG    1       -1.218   1.751   0.017  0.00  0.00    +0.040 A 
ATOM     12  C   LIG    1       -0.013   1.076   0.008  0.00  0.00    +0.000 A 
ATOM     13  C   LIG    1        1.180   1.787   0.000  0.00  0.00    +0.180 A 
ATOM     14  C   LIG    1        1.157   3.176   0.008  0.00  0.00    -0.020 A 
ATOM     15  C   LIG    1       -0.051   3.845   0.022  0.00  0.00    +0.040 A 
ENDBRANCH   1  13
BRANCH   3  16
ATOM     16  C   LIG    1        4.357  -1.954  -0.048  0.00  0.00    +0.290 C 
BRANCH  16  17
ATOM     17  C   LIG    1        4.539  -2.442   1.390  0.00  0.00    +0.200 C 
BRANCH  17  18
ATOM     18  O   LIG    1        3.268  -2.492   2.041  0.00  0.00    -0.540 OA
ATOM     19  H   LIG    1        2.632  -3.084   1.617  0.00  0.00    +0.380 HD
ENDBRANCH  17  18
BRANCH  17  20
ATOM     20  C   LIG    1        5.162  -3.840   1.379  0.00  0.00    +0.170 C 
BRANCH  20  21
ATOM     21  N   LIG    1        5.337  -4.309   2.759  0.00  0.00    -0.520 NA
ATOM     22  C   LIG    1        6.334  -3.495   3.470  0.00  0.00    +0.150 C 
ATOM     23  C   LIG    1        6.442  -3.979   4.918  0.00  0.00    +0.220 C 
ATOM     24  O   LIG    1        6.772  -5.370   4.928  0.00  0.00    -0.390 OA
ATOM     25  C   LIG    1        5.822  -6.193   4.245  0.00  0.00    +0.220 C 
ATOM     26  C   LIG    1        5.708  -5.731   2.789  0.00  0.00    +0.150 C 
ENDBRANCH  20  21
ENDBRANCH  17  20
ENDBRANCH  16  17
ENDBRANCH   3  16
TORSDOF 6
