REMARK  Name = ZINCqH0000050eCo.0
REMARK                            x       y       z     vdW  Elec       q    Type
REMARK                         _______ _______ _______ _____ _____    ______ ____
ROOT
ATOM      1  N   LIG    1       -2.610  -4.061   0.006  0.00  0.00    -0.670 N 
ATOM      2  H   LIG    1       -1.878  -4.512   0.454  0.00  0.00    +0.410 HD
ATOM      3  C   LIG    1       -2.376  -2.948  -0.716  0.00  0.00    +0.520 C 
ATOM      4  O   LIG    1       -3.273  -2.438  -1.354  0.00  0.00    -0.490 OA
ENDROOT
BRANCH   1   8
ATOM      5  C   LIG    1       -5.626  -7.924   0.406  0.00  0.00    +0.100 C 
ATOM      6  C   LIG    1       -5.402  -6.437   0.304  0.00  0.00    -0.050 A 
ATOM      7  C   LIG    1       -4.119  -5.938   0.204  0.00  0.00    -0.010 A 
ATOM      8  C   LIG    1       -3.912  -4.568   0.109  0.00  0.00    +0.160 A 
ATOM      9  C   LIG    1       -4.996  -3.700   0.122  0.00  0.00    +0.020 A 
ATOM     10  C   LIG    1       -6.279  -4.199   0.219  0.00  0.00    +0.050 A 
ATOM     11  C   LIG    1       -6.486  -5.569   0.312  0.00  0.00    +0.130 A 
BRANCH  11  12
ATOM     12  N   LIG    1       -7.788  -6.075   0.415  0.00  0.00    -0.580 N 
ATOM     13  C   LIG    1       -8.625  -6.447  -0.732  0.00  0.00    +0.260 C 
ATOM     14  C   LIG    1      -10.067  -6.523  -0.183  0.00  0.00    +0.040 C 
ATOM     15  C   LIG    1       -9.819  -6.826   1.313  0.00  0.00    +0.070 C 
ATOM     16  C   LIG    1       -8.430  -6.289   1.577  0.00  0.00    +0.520 C 
ATOM     17  O   LIG    1       -7.964  -6.078   2.677  0.00  0.00    -0.520 OA
ENDBRANCH  11  12
ENDBRANCH   1   8
BRANCH   3  18
ATOM     18  C   LIG    1       -0.999  -2.335  -0.730  0.00  0.00    +0.240 C 
BRANCH  18  19
ATOM     19  O   LIG    1       -1.003  -1.172  -1.560  0.00  0.00    -0.290 OA
BRANCH  19  20
ATOM     20  C   LIG    1        0.170  -0.497  -1.682  0.00  0.00    +0.130 A 
ATOM     21  C   LIG    1        1.301  -0.944  -1.016  0.00  0.00    -0.080 A 
ATOM     22  C   LIG    1        2.492  -0.255  -1.141  0.00  0.00    +0.050 A 
ATOM     23  C   LIG    1        2.557   0.879  -1.930  0.00  0.00    -0.030 A 
ATOM     24  C   LIG    1        1.430   1.327  -2.595  0.00  0.00    -0.050 A 
ATOM     25  C   LIG    1        1.504   2.563  -3.454  0.00  0.00    +0.100 C 
ATOM     26  C   LIG    1        0.237   0.641  -2.473  0.00  0.00    -0.110 A 
ATOM     27  C   LIG    1       -0.989   1.126  -3.203  0.00  0.00    +0.100 C 
ENDBRANCH  19  20
ENDBRANCH  18  19
ENDBRANCH   3  18
TORSDOF 5
