REMARK  Name = ZINC670000003Wq7.0
REMARK                            x       y       z     vdW  Elec       q    Type
REMARK                         _______ _______ _______ _____ _____    ______ ____
ROOT
ATOM      1  N   LIG    1        0.691   4.964   0.021  0.00  0.00    -0.790 N 
ATOM      2  C   LIG    1        0.319   3.627   0.017  0.00  0.00    +0.320 A 
ATOM      3  N   LIG    1       -0.894   3.119   0.026  0.00  0.00    -0.360 NA
ATOM      4  N   LIG    1       -1.050   1.869   0.016  0.00  0.00    -0.230 NA
ATOM      5  C   LIG    1       -0.013   1.076   0.008  0.00  0.00    +0.230 A 
ATOM      6  S   LIG    1        1.371   2.193   0.001  0.00  0.00    -0.020 S 
ATOM      7  H   LIG    1        0.011   5.656   0.030  0.00  0.00    +0.420 HD
ATOM      8  H   LIG    1        1.630   5.206   0.014  0.00  0.00    +0.420 HD
ENDROOT
TORSDOF 0
