REMARK  Name = ZINCtV00001bB3w1.0
REMARK                            x       y       z     vdW  Elec       q    Type
REMARK                         _______ _______ _______ _____ _____    ______ ____
ROOT
ATOM      1  N   LIG    1        0.140  -6.892   4.943  0.00  0.00    -0.490 N 
ATOM      2  C   LIG    1       -0.961  -7.226   5.709  0.00  0.00    +0.050 A 
ATOM      3  C   LIG    1       -2.331  -7.153   5.507  0.00  0.00    +0.010 A 
ATOM      4  C   LIG    1       -3.192  -7.579   6.497  0.00  0.00    +0.030 A 
ATOM      5  C   LIG    1       -2.697  -8.080   7.692  0.00  0.00    +0.000 A 
ATOM      6  C   LIG    1       -1.351  -8.159   7.910  0.00  0.00    +0.070 A 
ATOM      7  C   LIG    1       -0.458  -7.733   6.921  0.00  0.00    +0.050 A 
ATOM      8  N   LIG    1        0.893  -7.689   6.846  0.00  0.00    -0.480 NA
ATOM      9  C   LIG    1        1.255  -7.200   5.681  0.00  0.00    +0.320 A 
ENDROOT
BRANCH   9  10
ATOM     10  C   LIG    1        2.640  -7.007   5.239  0.00  0.00    +0.020 C 
ATOM     11  C   LIG    1        3.659  -7.346   6.050  0.00  0.00    +0.100 C 
BRANCH  11  12
ATOM     12  C   LIG    1        5.050  -7.153   5.606  0.00  0.00    -0.060 A 
ATOM     13  C   LIG    1        5.316  -6.624   4.340  0.00  0.00    +0.030 A 
ATOM     14  C   LIG    1        6.620  -6.441   3.932  0.00  0.00    +0.030 A 
ATOM     15  C   LIG    1        7.666  -6.792   4.770  0.00  0.00    -0.030 A 
ATOM     16  C   LIG    1        7.410  -7.321   6.024  0.00  0.00    +0.030 A 
ATOM     17 CL   LIG    1        9.305  -6.565   4.246  0.00  0.00    -0.070 Cl
ATOM     18  C   LIG    1        6.111  -7.504   6.447  0.00  0.00    +0.060 A 
ENDBRANCH  11  12
ENDBRANCH   9  10
BRANCH   1  19
ATOM     19  C   LIG    1        0.120  -6.323   3.593  0.00  0.00    +0.320 C 
BRANCH  19  20
ATOM     20  C   LIG    1        0.100  -4.796   3.684  0.00  0.00    +0.020 C 
BRANCH  20  21
ATOM     21  C   LIG    1        0.079  -4.202   2.274  0.00  0.00    +0.200 C 
BRANCH  21  22
ATOM     22  O   LIG    1        0.061  -2.775   2.359  0.00  0.00    -0.310 OA
BRANCH  22  28
ATOM     23  C   LIG    1       -0.018   1.503   0.010  0.00  0.00    +0.090 C 
ATOM     24  C   LIG    1        0.002  -0.004   0.002  0.00  0.00    -0.050 A 
ATOM     25  C   LIG    1       -0.006  -0.688  -1.199  0.00  0.00    -0.040 A 
ATOM     26  C   LIG    1        0.018  -2.071  -1.210  0.00  0.00    +0.050 A 
ATOM     27  C   LIG    1        0.039  -2.772  -0.020  0.00  0.00    -0.090 A 
ATOM     28  C   LIG    1        0.041  -2.088   1.187  0.00  0.00    +0.130 A 
ATOM     29  C   LIG    1        0.023  -0.701   1.195  0.00  0.00    -0.020 A 
ENDBRANCH  22  28
ENDBRANCH  21  22
ENDBRANCH  20  21
ENDBRANCH  19  20
ENDBRANCH   1  19
TORSDOF 7
