REMARK  Name = ZINCrH000004v7ut.0
REMARK                            x       y       z     vdW  Elec       q    Type
REMARK                         _______ _______ _______ _____ _____    ______ ____
ROOT
ATOM      1  O   LIG    1       -5.983  -0.652   0.160  0.00  0.00    -0.510 OA
ATOM      2  C   LIG    1       -6.026  -1.867   0.154  0.00  0.00    +0.560 C 
ATOM      3  N   LIG    1       -4.889  -2.581   0.037  0.00  0.00    -0.670 N 
ATOM      4  H   LIG    1       -4.929  -3.547  -0.045  0.00  0.00    +0.410 HD
ENDROOT
BRANCH   2   5
ATOM      5  C   LIG    1       -7.326  -2.561   0.275  0.00  0.00    -0.140 A 
ATOM      6  C   LIG    1       -7.379  -3.955   0.268  0.00  0.00    +0.060 A 
ATOM      7  C   LIG    1       -8.595  -4.597   0.382  0.00  0.00    +0.010 A 
ATOM      8  C   LIG    1       -9.760  -3.861   0.503  0.00  0.00    +0.080 A 
ATOM      9  C   LIG    1       -9.715  -2.478   0.510  0.00  0.00    -0.130 A 
ATOM     10  C   LIG    1       -8.505  -1.824   0.402  0.00  0.00    +0.110 A 
BRANCH   9  11
ATOM     11  C   LIG    1      -10.989  -1.684   0.642  0.00  0.00    +0.370 C 
BRANCH  11  12
ATOM     12  N   LIG    1      -11.267  -1.439   2.059  0.00  0.00    -0.570 N 
ATOM     13  C   LIG    1      -11.999  -2.307   2.737  0.00  0.00    +0.530 C 
ATOM     14  C   LIG    1      -12.203  -1.932   4.188  0.00  0.00    +0.180 C 
ATOM     15  S   LIG    1      -11.299  -0.354   4.336  0.00  0.00    -0.120 S 
ATOM     16  O   LIG    1      -12.460  -3.313   2.241  0.00  0.00    -0.460 OA
ATOM     17  C   LIG    1      -10.781  -0.340   2.640  0.00  0.00    +0.540 C 
ATOM     18  O   LIG    1      -10.105   0.516   2.104  0.00  0.00    -0.420 OA
ENDBRANCH  11  12
ENDBRANCH   9  11
ENDBRANCH   2   5
BRANCH   3  19
ATOM     19  C   LIG    1       -3.650  -1.929   0.034  0.00  0.00    +0.120 A 
ATOM     20  C   LIG    1       -2.602  -2.433  -0.725  0.00  0.00    +0.030 A 
ATOM     21  C   LIG    1       -1.380  -1.790  -0.727  0.00  0.00    +0.030 A 
ATOM     22  C   LIG    1       -1.200  -0.640   0.028  0.00  0.00    +0.090 A 
ATOM     23  C   LIG    1       -2.245  -0.138   0.789  0.00  0.00    -0.030 A 
ATOM     24  C   LIG    1       -3.469  -0.778   0.789  0.00  0.00    +0.060 A 
BRANCH  22  25
ATOM     25  O   LIG    1        0.004  -0.007   0.025  0.00  0.00    -0.320 OA
BRANCH  25  26
ATOM     26  C   LIG    1        0.119   1.171   0.825  0.00  0.00    +0.590 C 
ATOM     27  F   LIG    1       -0.136   0.853   2.164  0.00  0.00    -0.200 F 
ATOM     28  F   LIG    1       -0.808   2.124   0.388  0.00  0.00    -0.200 F 
ENDBRANCH  25  26
ENDBRANCH  22  25
ENDBRANCH   3  19
TORSDOF 6
