REMARK  Name = ZINCvU0000000FyQ.0
REMARK                            x       y       z     vdW  Elec       q    Type
REMARK                         _______ _______ _______ _____ _____    ______ ____
ROOT
ATOM      1  C   LIG    1       -1.651   2.411   1.444  0.00  0.00    +0.420 C 
ATOM      2  O   LIG    1       -0.988   1.972   2.361  0.00  0.00    -0.460 OA
ENDROOT
BRANCH   1   6
ATOM      3  C   LIG    1       -5.875   5.199   0.852  0.00  0.00    +0.150 C 
ATOM      4  C   LIG    1       -4.717   4.434   1.441  0.00  0.00    +0.020 A 
ATOM      5  C   LIG    1       -3.758   3.810   0.738  0.00  0.00    +0.020 A 
ATOM      6  C   LIG    1       -2.851   3.202   1.722  0.00  0.00    -0.260 A 
ATOM      7  C   LIG    1       -3.360   3.536   2.963  0.00  0.00    +0.130 A 
ATOM      8  C   LIG    1       -2.771   3.146   4.294  0.00  0.00    +0.150 C 
ATOM      9  N   LIG    1       -4.473   4.271   2.776  0.00  0.00    -0.400 N 
BRANCH   9  10
ATOM     10  C   LIG    1       -5.269   4.794   3.805  0.00  0.00    +0.130 A 
ATOM     11  C   LIG    1       -5.956   3.939   4.656  0.00  0.00    +0.060 A 
ATOM     12  C   LIG    1       -6.736   4.457   5.672  0.00  0.00    +0.080 A 
ATOM     13  C   LIG    1       -6.840   5.826   5.837  0.00  0.00    -0.020 A 
ATOM     14  C   LIG    1       -6.159   6.682   4.987  0.00  0.00    -0.020 A 
ATOM     15 CL   LIG    1       -6.292   8.400   5.196  0.00  0.00    -0.030 Cl
ATOM     16 CL   LIG    1       -7.826   6.473   7.110  0.00  0.00    -0.030 Cl
ATOM     17  C   LIG    1       -5.374   6.168   3.972  0.00  0.00    +0.060 A 
ENDBRANCH   9  10
ENDBRANCH   1   6
BRANCH   1  18
ATOM     18  C   LIG    1       -1.239   2.141   0.020  0.00  0.00    +0.340 C 
BRANCH  18  19
ATOM     19  N   LIG    1       -0.016   1.334   0.009  0.00  0.00    -0.570 N 
ATOM     20  C   LIG    1        0.002  -0.004   0.002  0.00  0.00    +0.710 C 
ATOM     21  N   LIG    1        1.254  -0.501  -0.013  0.00  0.00    -0.710 N 
ATOM     22  H   LIG    1        1.507  -1.437  -0.020  0.00  0.00    +0.440 HD
ATOM     23  C   LIG    1        2.159   0.655  -0.015  0.00  0.00    +0.130 C 
ATOM     24  C   LIG    1        3.038   0.648   1.231  0.00  0.00    +0.050 C 
ATOM     25  C   LIG    1        3.943  -0.586   1.212  0.00  0.00    +0.010 C 
ATOM     26  C   LIG    1        4.813  -0.559  -0.047  0.00  0.00    +0.010 C 
ATOM     27  C   LIG    1        3.920  -0.573  -1.288  0.00  0.00    +0.040 C 
ATOM     28  C   LIG    1        3.014   0.661  -1.278  0.00  0.00    +0.010 C 
ATOM     29  C   LIG    1        2.105   0.638  -2.508  0.00  0.00    +0.030 C 
ATOM     30  O   LIG    1       -0.999  -0.694   0.007  0.00  0.00    -0.540 OA
ATOM     31  C   LIG    1        1.231   1.848   0.000  0.00  0.00    +0.540 C 
ATOM     32  O   LIG    1        1.542   3.020   0.004  0.00  0.00    -0.460 OA
ENDBRANCH  18  19
ENDBRANCH   1  18
TORSDOF 4
