REMARK  Name = ZINCpk00000e1GS6.0
REMARK                            x       y       z     vdW  Elec       q    Type
REMARK                         _______ _______ _______ _____ _____    ______ ____
ROOT
ATOM      1  C   LIG    1        1.075   3.710  -0.062  0.00  0.00    +0.280 C 
ENDROOT
BRANCH   1   5
ATOM      2  O   LIG    1       -0.744  -0.564  -0.203  0.00  0.00    -0.480 OA
ATOM      3  C   LIG    1        0.263   0.122  -0.188  0.00  0.00    +0.530 A 
ATOM      4  N   LIG    1        0.185   1.466  -0.137  0.00  0.00    -0.570 NA
ATOM      5  C   LIG    1        1.253   2.215  -0.119  0.00  0.00    +0.450 A 
ATOM      6  N   LIG    1        2.504   1.723  -0.150  0.00  0.00    -0.630 N 
ATOM      7  H   LIG    1        3.260   2.330  -0.135  0.00  0.00    +0.420 HD
ATOM      8  C   LIG    1        2.720   0.360  -0.203  0.00  0.00    +0.180 A 
ATOM      9  C   LIG    1        3.997  -0.181  -0.237  0.00  0.00    -0.020 A 
ATOM     10  C   LIG    1        4.158  -1.550  -0.290  0.00  0.00    +0.080 A 
ATOM     11  C   LIG    1        3.056  -2.392  -0.310  0.00  0.00    -0.010 A 
ATOM     12  C   LIG    1        1.779  -1.874  -0.278  0.00  0.00    +0.110 A 
ATOM     13  C   LIG    1        1.602  -0.494  -0.224  0.00  0.00    -0.210 A 
ENDBRANCH   1   5
BRANCH   1  14
ATOM     14  N   LIG    1       -0.358   4.032  -0.036  0.00  0.00    -0.510 NA
ATOM     15  C   LIG    1       -1.008   3.643  -1.295  0.00  0.00    +0.180 C 
ATOM     16  C   LIG    1       -2.523   3.826  -1.162  0.00  0.00    +0.300 C 
ATOM     17  N   LIG    1       -2.791   5.205  -0.724  0.00  0.00    -0.610 N 
ATOM     18  C   LIG    1       -2.071   5.713   0.454  0.00  0.00    +0.300 C 
ATOM     19  C   LIG    1       -3.672   5.982  -1.384  0.00  0.00    +0.600 C 
ATOM     20  O   LIG    1       -3.930   7.097  -0.970  0.00  0.00    -0.520 OA
ATOM     21  C   LIG    1       -0.573   5.455   0.257  0.00  0.00    +0.170 C 
BRANCH  19  22
ATOM     22  C   LIG    1       -4.320   5.484  -2.602  0.00  0.00    -0.080 A 
ATOM     23  C   LIG    1       -5.123   6.208  -3.437  0.00  0.00    +0.040 A 
ATOM     24  C   LIG    1       -5.518   5.341  -4.468  0.00  0.00    -0.060 A 
ATOM     25  C   LIG    1       -4.952   4.140  -4.216  0.00  0.00    +0.200 A 
ATOM     26  O   LIG    1       -4.231   4.230  -3.091  0.00  0.00    -0.160 OA
ENDBRANCH  19  22
ENDBRANCH   1  14
TORSDOF 3
