REMARK  Name = ZINCpk00000KfLKy.2
REMARK                            x       y       z     vdW  Elec       q    Type
REMARK                         _______ _______ _______ _____ _____    ______ ____
ROOT
ATOM      1  C   LIG    1       -4.881   3.930   4.343  0.00  0.00    +0.290 C 
ATOM      2  C   LIG    1       -4.141   5.250   4.111  0.00  0.00    +0.200 C 
ATOM      3  N   LIG    1       -4.927   6.354   4.681  0.00  0.00    -0.540 NA
ATOM      4  C   LIG    1       -5.149   6.147   6.119  0.00  0.00    +0.150 C 
ATOM      5  C   LIG    1       -5.879   4.818   6.331  0.00  0.00    +0.250 C 
ATOM      6  O   LIG    1       -5.117   3.760   5.743  0.00  0.00    -0.390 OA
ENDROOT
BRANCH   1  11
ATOM      7  C   LIG    1       -2.870   1.536   2.518  0.00  0.00    +0.230 A 
ATOM      8  N   LIG    1       -2.906   0.911   3.665  0.00  0.00    -0.310 NA
ATOM      9  N   LIG    1       -3.661   1.710   4.539  0.00  0.00    -0.460 N 
ATOM     10  H   LIG    1       -3.868   1.521   5.467  0.00  0.00    +0.450 HD
ATOM     11  C   LIG    1       -4.044   2.787   3.831  0.00  0.00    +0.290 A 
ATOM     12  N   LIG    1       -3.562   2.669   2.620  0.00  0.00    -0.530 NA
BRANCH   7  13
ATOM     13  C   LIG    1       -2.164   1.050   1.278  0.00  0.00    +0.150 C 
BRANCH  13  15
ATOM     14  C   LIG    1       -0.013   1.086   0.008  0.00  0.00    +0.030 C 
ATOM     15  C   LIG    1       -0.729   1.579   1.267  0.00  0.00    +0.010 C 
ENDBRANCH  13  15
ENDBRANCH   7  13
ENDBRANCH   1  11
BRANCH   3  16
ATOM     16  C   LIG    1       -4.278   7.647   4.429  0.00  0.00    +0.210 C 
BRANCH  16  17
ATOM     17  C   LIG    1       -5.234   8.780   4.810  0.00  0.00    +0.080 C 
BRANCH  17  18
ATOM     18  C   LIG    1       -4.568  10.107   4.552  0.00  0.00    +0.530 C 
ATOM     19  N   LIG    1       -5.226  11.254   4.816  0.00  0.00    -0.630 N 
ATOM     20  H   LIG    1       -6.128  11.225   5.171  0.00  0.00    +0.420 HD
ATOM     21  O   LIG    1       -3.440  10.143   4.107  0.00  0.00    -0.510 OA
BRANCH  19  22
ATOM     22  C   LIG    1       -4.609  12.482   4.577  0.00  0.00    +0.240 A 
ATOM     23  N   LIG    1       -5.120  13.669   4.776  0.00  0.00    -0.390 NA
ATOM     24  O   LIG    1       -4.340  14.543   4.477  0.00  0.00    +0.100 OA
ATOM     25  C   LIG    1       -3.184  14.041   4.019  0.00  0.00    -0.020 A 
ATOM     26  C   LIG    1       -1.986  14.825   3.549  0.00  0.00    +0.190 C 
ATOM     27  C   LIG    1       -3.303  12.695   4.062  0.00  0.00    -0.040 A 
ENDBRANCH  19  22
ENDBRANCH  17  18
ENDBRANCH  16  17
ENDBRANCH   3  16
TORSDOF 7
