REMARK  Name = ZINCpk00000KfLKy.0
REMARK                            x       y       z     vdW  Elec       q    Type
REMARK                         _______ _______ _______ _____ _____    ______ ____
ROOT
ATOM      1  C   LIG    1       -0.992  -7.750   6.035  0.00  0.00    +0.290 C 
ATOM      2  C   LIG    1       -1.023  -6.465   5.204  0.00  0.00    +0.190 C 
ATOM      3  N   LIG    1        0.128  -5.625   5.566  0.00  0.00    -0.530 NA
ATOM      4  C   LIG    1        1.390  -6.343   5.337  0.00  0.00    +0.160 C 
ATOM      5  C   LIG    1        1.397  -7.630   6.167  0.00  0.00    +0.250 C 
ATOM      6  O   LIG    1        0.254  -8.419   5.823  0.00  0.00    -0.390 OA
ENDROOT
BRANCH   1  10
ATOM      7  C   LIG    1       -3.277 -10.348   4.922  0.00  0.00    +0.180 A 
ATOM      8  N   LIG    1       -4.076  -9.345   5.169  0.00  0.00    -0.280 NA
ATOM      9  N   LIG    1       -3.391  -8.339   5.584  0.00  0.00    -0.280 NA
ATOM     10  C   LIG    1       -2.124  -8.650   5.612  0.00  0.00    +0.180 A 
ATOM     11  N   LIG    1       -2.016  -9.935   5.196  0.00  0.00    -0.560 N 
ATOM     12  H   LIG    1       -1.201 -10.455   5.111  0.00  0.00    +0.430 HD
BRANCH   7  13
ATOM     13  C   LIG    1       -3.683 -11.711   4.423  0.00  0.00    +0.150 C 
BRANCH  13  15
ATOM     14  C   LIG    1       -5.146 -13.689   4.858  0.00  0.00    +0.020 C 
ATOM     15  C   LIG    1       -4.734 -12.305   5.363  0.00  0.00    +0.020 C 
ENDBRANCH  13  15
ENDBRANCH   7  13
ENDBRANCH   1  10
BRANCH   3  16
ATOM     16  C   LIG    1        0.104  -4.354   4.831  0.00  0.00    +0.250 C 
BRANCH  16  17
ATOM     17  C   LIG    1        0.094  -4.635   3.327  0.00  0.00    +0.020 C 
BRANCH  17  18
ATOM     18  C   LIG    1        0.070  -3.331   2.572  0.00  0.00    +0.530 C 
ATOM     19  N   LIG    1        0.058  -3.332   1.224  0.00  0.00    -0.630 N 
ATOM     20  H   LIG    1        0.065  -4.173   0.740  0.00  0.00    +0.420 HD
ATOM     21  O   LIG    1        0.062  -2.280   3.178  0.00  0.00    -0.510 OA
BRANCH  19  22
ATOM     22  C   LIG    1        0.036  -2.125   0.526  0.00  0.00    +0.240 A 
ATOM     23  N   LIG    1        0.021  -1.969  -0.772  0.00  0.00    -0.390 NA
ATOM     24  O   LIG    1       -0.003  -0.799  -1.077  0.00  0.00    +0.100 OA
ATOM     25  C   LIG    1        0.002  -0.004   0.002  0.00  0.00    -0.020 A 
ATOM     26  C   LIG    1       -0.018   1.503   0.010  0.00  0.00    +0.190 C 
ATOM     27  C   LIG    1        0.023  -0.818   1.082  0.00  0.00    -0.040 A 
ENDBRANCH  19  22
ENDBRANCH  17  18
ENDBRANCH  16  17
ENDBRANCH   3  16
TORSDOF 7
