REMARK  Name = ZINCpk00000KfLKy.1
REMARK                            x       y       z     vdW  Elec       q    Type
REMARK                         _______ _______ _______ _____ _____    ______ ____
ROOT
ATOM      1  C   LIG    1       -0.146   0.820  -4.868  0.00  0.00    +0.290 C 
ATOM      2  C   LIG    1       -0.871   1.382  -3.642  0.00  0.00    +0.170 C 
ATOM      3  N   LIG    1       -0.065   1.119  -2.440  0.00  0.00    -0.540 NA
ATOM      4  C   LIG    1        1.267   1.729  -2.562  0.00  0.00    +0.150 C 
ATOM      5  C   LIG    1        1.970   1.164  -3.799  0.00  0.00    +0.250 C 
ATOM      6  O   LIG    1        1.158   1.401  -4.952  0.00  0.00    -0.370 OA
ENDROOT
BRANCH   1   9
ATOM      7  C   LIG    1       -2.213   0.916  -7.832  0.00  0.00    +0.290 A 
ATOM      8  N   LIG    1       -1.667   0.299  -6.816  0.00  0.00    -0.530 NA
ATOM      9  C   LIG    1       -0.928   1.155  -6.112  0.00  0.00    +0.230 A 
ATOM     10  N   LIG    1       -0.986   2.332  -6.678  0.00  0.00    -0.280 NA
ATOM     11  N   LIG    1       -1.819   2.200  -7.802  0.00  0.00    -0.480 N 
ATOM     12  H   LIG    1       -2.061   2.898  -8.431  0.00  0.00    +0.440 HD
BRANCH   7  13
ATOM     13  C   LIG    1       -3.121   0.293  -8.862  0.00  0.00    +0.150 C 
BRANCH  13  15
ATOM     14  C   LIG    1       -3.216  -0.771 -11.120  0.00  0.00    +0.030 C 
ATOM     15  C   LIG    1       -2.295  -0.138 -10.075  0.00  0.00    +0.010 C 
ENDBRANCH  13  15
ENDBRANCH   7  13
ENDBRANCH   1   9
BRANCH   3  16
ATOM     16  C   LIG    1       -0.753   1.593  -1.232  0.00  0.00    +0.210 C 
BRANCH  16  17
ATOM     17  C   LIG    1       -0.013   1.086   0.008  0.00  0.00    +0.080 C 
BRANCH  17  18
ATOM     18  C   LIG    1       -0.718   1.572   1.248  0.00  0.00    +0.530 C 
ATOM     19  N   LIG    1       -0.242   1.246   2.466  0.00  0.00    -0.630 N 
ATOM     20  H   LIG    1        0.555   0.699   2.544  0.00  0.00    +0.420 HD
ATOM     21  O   LIG    1       -1.714   2.256   1.150  0.00  0.00    -0.510 OA
BRANCH  19  22
ATOM     22  C   LIG    1       -0.894   1.696   3.614  0.00  0.00    +0.240 A 
ATOM     23  N   LIG    1       -0.552   1.463   4.853  0.00  0.00    -0.390 NA
ATOM     24  O   LIG    1       -1.316   1.988   5.630  0.00  0.00    +0.100 OA
ATOM     25  C   LIG    1       -2.289   2.656   4.994  0.00  0.00    -0.020 A 
ATOM     26  C   LIG    1       -3.415   3.430   5.630  0.00  0.00    +0.190 C 
ATOM     27  C   LIG    1       -2.061   2.504   3.669  0.00  0.00    -0.040 A 
ENDBRANCH  19  22
ENDBRANCH  17  18
ENDBRANCH  16  17
ENDBRANCH   3  16
TORSDOF 7
