REMARK  Name = ZINCrD00000l1i0E.0
REMARK                            x       y       z     vdW  Elec       q    Type
REMARK                         _______ _______ _______ _____ _____    ______ ____
ROOT
ATOM      1  N   LIG    1       -1.239   2.063   0.019  0.00  0.00    -0.670 N 
ATOM      2  H   LIG    1       -2.071   1.569  -0.047  0.00  0.00    +0.410 HD
ATOM      3  C   LIG    1       -1.260   3.406   0.128  0.00  0.00    +0.600 C 
ATOM      4  O   LIG    1       -0.217   4.034   0.127  0.00  0.00    -0.490 OA
ENDROOT
BRANCH   3   5
ATOM      5  C   LIG    1       -2.538   4.111   0.248  0.00  0.00    -0.010 A 
ATOM      6  C   LIG    1       -2.700   5.472   0.365  0.00  0.00    +0.130 A 
ATOM      7  C   LIG    1       -4.082   5.728   0.455  0.00  0.00    -0.260 A 
ATOM      8  C   LIG    1       -4.739   4.519   0.391  0.00  0.00    +0.130 A 
ATOM      9  C   LIG    1       -6.183   4.688   0.477  0.00  0.00    -0.140 A 
ATOM     10  C   LIG    1       -6.572   5.983   0.600  0.00  0.00    +0.040 A 
ATOM     11  S   LIG    1       -5.240   7.041   0.618  0.00  0.00    +0.270 S 
ATOM     12  N   LIG    1       -3.786   3.525   0.258  0.00  0.00    -0.530 N 
ATOM     13  H   LIG    1       -3.965   2.575   0.185  0.00  0.00    +0.430 HD
BRANCH   9  14
ATOM     14  C   LIG    1       -7.128   3.565   0.434  0.00  0.00    +0.530 C 
ATOM     15  O   LIG    1       -6.715   2.427   0.322  0.00  0.00    -0.510 OA
BRANCH  14  16
ATOM     16  O   LIG    1       -8.453   3.796   0.519  0.00  0.00    -0.350 OA
ATOM     17  C   LIG    1       -9.329   2.639   0.470  0.00  0.00    +0.290 C 
ENDBRANCH  14  16
ENDBRANCH   9  14
ENDBRANCH   3   5
BRANCH   1  20
ATOM     18  C   LIG    1        1.308  -0.546   0.572  0.00  0.00    -0.120 A 
ATOM     19  C   LIG    1        0.089   0.135   0.596  0.00  0.00    +0.090 A 
ATOM     20  C   LIG    1       -0.016   1.382   0.002  0.00  0.00    +0.150 A 
ATOM     21  C   LIG    1        1.089   1.955  -0.617  0.00  0.00    +0.080 A 
ATOM     22  C   LIG    1        2.298   1.284  -0.644  0.00  0.00    +0.080 A 
ATOM     23  F   LIG    1        3.368   1.847  -1.247  0.00  0.00    -0.110 F 
ATOM     24  C   LIG    1        2.416   0.037  -0.053  0.00  0.00    +0.120 A 
ATOM     25  F   LIG    1        3.598  -0.616  -0.080  0.00  0.00    -0.100 F 
BRANCH  18  26
ATOM     26  C   LIG    1        1.427  -1.874   1.203  0.00  0.00    +0.510 C 
ATOM     27  O   LIG    1        2.489  -2.464   1.181  0.00  0.00    -0.480 OA
BRANCH  26  29
ATOM     28  C   LIG    1        0.549  -3.741   2.405  0.00  0.00    +0.290 C 
ATOM     29  O   LIG    1        0.359  -2.433   1.804  0.00  0.00    -0.350 OA
ENDBRANCH  26  29
ENDBRANCH  18  26
ENDBRANCH   1  20
TORSDOF 6
