REMARK  Name = ZINCvU0000000FqU.0
REMARK                            x       y       z     vdW  Elec       q    Type
REMARK                         _______ _______ _______ _____ _____    ______ ____
ROOT
ATOM      1  C   LIG    1        4.562   2.960  -0.876  0.00  0.00    -0.660 A 
ATOM      2  C   LIG    1        5.727   3.368  -0.256  0.00  0.00    +0.150 A 
ATOM      3  C   LIG    1        5.816   4.645   0.281  0.00  0.00    +0.140 A 
ATOM      4  C   LIG    1        4.729   5.505   0.203  0.00  0.00    +0.060 A 
ATOM      5  C   LIG    1        3.564   5.090  -0.414  0.00  0.00    +0.020 A 
ATOM      6  C   LIG    1        3.481   3.819  -0.953  0.00  0.00    +0.010 A 
ATOM      7  C   LIG    1        2.209   3.369  -1.624  0.00  0.00    +0.110 C 
ENDROOT
BRANCH   3   8
ATOM      8  N   LIG    1        6.996   5.063   0.906  0.00  0.00    -0.680 N 
ATOM      9  H   LIG    1        6.956   5.658   1.671  0.00  0.00    +0.410 HD
ATOM     10  C   LIG    1        8.189   4.638   0.445  0.00  0.00    +0.700 C 
ATOM     11  N   LIG    1        9.319   4.955   1.107  0.00  0.00    -0.680 N 
ATOM     12  H   LIG    1        9.270   5.426   1.954  0.00  0.00    +0.410 HD
ATOM     13  O   LIG    1        8.246   3.968  -0.568  0.00  0.00    -0.540 OA
BRANCH  11  14
ATOM     14  C   LIG    1       10.565   4.606   0.573  0.00  0.00    +0.180 A 
ATOM     15  C   LIG    1       11.611   4.256   1.417  0.00  0.00    +0.010 A 
ATOM     16  C   LIG    1       12.838   3.907   0.887  0.00  0.00    +0.070 A 
ATOM     17  C   LIG    1       13.030   3.916  -0.482  0.00  0.00    -0.050 A 
ATOM     18  C   LIG    1       11.990   4.269  -1.327  0.00  0.00    -0.010 A 
ATOM     19 CL   LIG    1       12.234   4.279  -3.046  0.00  0.00    -0.040 Cl
ATOM     20 CL   LIG    1       14.575   3.483  -1.144  0.00  0.00    -0.050 Cl
ATOM     21  C   LIG    1       10.759   4.614  -0.802  0.00  0.00    +0.060 A 
ENDBRANCH  11  14
ENDBRANCH   3   8
BRANCH   1  22
ATOM     22  S   LIG    1        4.451   1.342  -1.563  0.00  0.00    +2.690 S 
ATOM     23  O   LIG    1        3.971   1.502  -2.891  0.00  0.00    -0.950 OA
ATOM     24  O   LIG    1        5.673   0.688  -1.252  0.00  0.00    -0.940 OA
BRANCH  22  25
ATOM     25  N   LIG    1        3.266   0.537  -0.732  0.00  0.00    -1.050 N 
ATOM     26  H   LIG    1        2.480   0.213  -1.199  0.00  0.00    +0.430 HD
BRANCH  25  30
ATOM     27  C   LIG    1        3.660  -0.098   3.369  0.00  0.00    +0.120 A 
ATOM     28  C   LIG    1        2.461   0.369   2.852  0.00  0.00    -0.060 A 
ATOM     29  C   LIG    1        2.328   0.575   1.493  0.00  0.00    +0.040 A 
ATOM     30  C   LIG    1        3.398   0.324   0.645  0.00  0.00    +0.100 A 
ATOM     31  C   LIG    1        4.600  -0.138   1.164  0.00  0.00    +0.050 A 
ATOM     32  C   LIG    1        4.730  -0.349   2.523  0.00  0.00    +0.010 A 
BRANCH  27  34
ATOM     33  C   LIG    1        2.647  -0.026   5.519  0.00  0.00    +0.250 C 
ATOM     34  O   LIG    1        3.789  -0.305   4.707  0.00  0.00    -0.320 OA
ENDBRANCH  27  34
ENDBRANCH  25  30
ENDBRANCH  22  25
ENDBRANCH   1  22
TORSDOF 6
