REMARK  Name = ZINCtj0000001wDG.1
REMARK                            x       y       z     vdW  Elec       q    Type
REMARK                         _______ _______ _______ _____ _____    ______ ____
ROOT
ATOM      1  N   LIG    1       -2.397  -7.944  -3.286  0.00  0.00    -0.710 N 
ATOM      2  H   LIG    1       -2.496  -8.573  -2.553  0.00  0.00    +0.420 HD
ATOM      3  C   LIG    1       -2.328  -6.622  -3.034  0.00  0.00    +0.520 C 
ATOM      4  O   LIG    1       -2.204  -5.836  -3.951  0.00  0.00    -0.490 OA
ENDROOT
BRANCH   1   8
ATOM      5  N   LIG    1       -3.140 -10.685  -4.745  0.00  0.00    -0.400 N 
ATOM      6  C   LIG    1       -4.005  -9.906  -5.668  0.00  0.00    +0.280 C 
ATOM      7  C   LIG    1       -3.725  -8.430  -5.310  0.00  0.00    +0.070 C 
ATOM      8  C   LIG    1       -2.324  -8.433  -4.665  0.00  0.00    +0.270 C 
ATOM      9  C   LIG    1       -1.875  -9.909  -4.688  0.00  0.00    +0.280 C 
ATOM     10  H   LIG    1       -3.561 -10.741  -3.829  0.00  0.00    +0.430 HD
BRANCH   5  15
ATOM     11  C   LIG    1       -2.904 -16.305  -5.351  0.00  0.00    +0.210 C 
ATOM     12  N   LIG    1       -3.072 -14.895  -4.973  0.00  0.00    -0.550 NA
ATOM     13  C   LIG    1       -1.772 -14.220  -4.867  0.00  0.00    +0.200 C 
ATOM     14  C   LIG    1       -1.974 -12.801  -4.333  0.00  0.00    +0.050 C 
ATOM     15  C   LIG    1       -2.895 -12.030  -5.283  0.00  0.00    +0.170 C 
ATOM     16  C   LIG    1       -4.224 -12.779  -5.413  0.00  0.00    +0.050 C 
ATOM     17  C   LIG    1       -3.956 -14.199  -5.916  0.00  0.00    +0.200 C 
ENDBRANCH   5  15
ENDBRANCH   1   8
BRANCH   3  18
ATOM     18  C   LIG    1       -2.402  -6.124  -1.627  0.00  0.00    +0.510 C 
ATOM     19  N   LIG    1       -2.333  -4.802  -1.376  0.00  0.00    -0.690 N 
ATOM     20  H   LIG    1       -2.234  -4.173  -2.108  0.00  0.00    +0.420 HD
ATOM     21  O   LIG    1       -2.526  -6.910  -0.711  0.00  0.00    -0.510 OA
BRANCH  19  22
ATOM     22  C   LIG    1       -2.406  -4.313   0.003  0.00  0.00    +0.400 C 
BRANCH  22  23
ATOM     23  C   LIG    1       -2.305  -2.810   0.010  0.00  0.00    +0.040 A 
ATOM     24  C   LIG    1       -3.388  -2.026   0.025  0.00  0.00    -0.040 A 
ATOM     25  S   LIG    1       -2.854  -0.346   0.036  0.00  0.00    +0.170 S 
ATOM     26  C   LIG    1       -1.177  -0.884   0.009  0.00  0.00    +0.140 A 
ATOM     27  N   LIG    1       -1.148  -2.189   0.002  0.00  0.00    -0.450 NA
BRANCH  26  28
ATOM     28  C   LIG    1        0.002  -0.004   0.002  0.00  0.00    +0.030 A 
ATOM     29  C   LIG    1       -0.016   1.358   0.009  0.00  0.00    +0.000 A 
ATOM     30  C   LIG    1        1.326   1.782  -0.001  0.00  0.00    -0.050 A 
ATOM     31  C   LIG    1        2.091   0.672  -0.014  0.00  0.00    +0.200 A 
ATOM     32  O   LIG    1        1.289  -0.405  -0.012  0.00  0.00    -0.150 OA
ENDBRANCH  26  28
ENDBRANCH  22  23
ENDBRANCH  19  22
ENDBRANCH   3  18
TORSDOF 6
