REMARK  Name = ZINCtj0000001wDG.0
REMARK                            x       y       z     vdW  Elec       q    Type
REMARK                         _______ _______ _______ _____ _____    ______ ____
ROOT
ATOM      1  N   LIG    1       -4.598   3.764  -3.191  0.00  0.00    -0.700 N 
ATOM      2  H   LIG    1       -5.095   4.164  -2.460  0.00  0.00    +0.420 HD
ATOM      3  C   LIG    1       -3.462   3.083  -2.941  0.00  0.00    +0.510 C 
ATOM      4  O   LIG    1       -2.841   2.582  -3.855  0.00  0.00    -0.510 OA
ENDROOT
BRANCH   1   8
ATOM      5  N   LIG    1       -6.842   5.457  -5.179  0.00  0.00    -0.510 NA
ATOM      6  C   LIG    1       -5.668   5.720  -6.051  0.00  0.00    +0.170 C 
ATOM      7  C   LIG    1       -4.482   5.161  -5.226  0.00  0.00    +0.040 C 
ATOM      8  C   LIG    1       -5.083   3.899  -4.566  0.00  0.00    +0.230 C 
ATOM      9  C   LIG    1       -6.606   4.128  -4.576  0.00  0.00    +0.190 C 
BRANCH   5  14
ATOM     10  C   LIG    1      -11.977   6.759  -7.126  0.00  0.00    +0.310 C 
ATOM     11  N   LIG    1      -10.693   6.650  -6.421  0.00  0.00    -0.390 N 
ATOM     12  C   LIG    1      -10.576   5.314  -5.825  0.00  0.00    +0.260 C 
ATOM     13  C   LIG    1       -9.276   5.220  -5.023  0.00  0.00    +0.070 C 
ATOM     14  C   LIG    1       -8.088   5.470  -5.956  0.00  0.00    +0.120 C 
ATOM     15  C   LIG    1       -8.257   6.834  -6.631  0.00  0.00    +0.070 C 
ATOM     16  C   LIG    1       -9.596   6.868  -7.371  0.00  0.00    +0.260 C 
ATOM     17  H   LIG    1      -10.649   7.347  -5.692  0.00  0.00    +0.430 HD
ENDBRANCH   5  14
ENDBRANCH   1   8
BRANCH   3  18
ATOM     18  C   LIG    1       -2.967   2.945  -1.537  0.00  0.00    +0.510 C 
ATOM     19  N   LIG    1       -1.831   2.264  -1.287  0.00  0.00    -0.690 N 
ATOM     20  H   LIG    1       -1.335   1.864  -2.018  0.00  0.00    +0.420 HD
ATOM     21  O   LIG    1       -3.588   3.446  -0.623  0.00  0.00    -0.520 OA
BRANCH  19  22
ATOM     22  C   LIG    1       -1.346   2.129   0.089  0.00  0.00    +0.400 C 
BRANCH  22  23
ATOM     23  C   LIG    1       -0.069   1.330   0.095  0.00  0.00    +0.040 A 
ATOM     24  C   LIG    1        1.134   1.914   0.074  0.00  0.00    -0.040 A 
ATOM     25  S   LIG    1        2.362   0.649   0.081  0.00  0.00    +0.170 S 
ATOM     26  C   LIG    1        1.095  -0.575   0.113  0.00  0.00    +0.140 A 
ATOM     27  N   LIG    1       -0.068   0.017   0.115  0.00  0.00    -0.450 NA
BRANCH  26  28
ATOM     28  C   LIG    1        1.314  -2.029   0.134  0.00  0.00    +0.040 A 
ATOM     29  C   LIG    1        2.523  -2.657   0.131  0.00  0.00    +0.000 A 
ATOM     30  C   LIG    1        2.262  -4.040   0.157  0.00  0.00    -0.050 A 
ATOM     31  C   LIG    1        0.922  -4.189   0.173  0.00  0.00    +0.200 A 
ATOM     32  O   LIG    1        0.352  -2.974   0.164  0.00  0.00    -0.150 OA
ENDBRANCH  26  28
ENDBRANCH  22  23
ENDBRANCH  19  22
ENDBRANCH   3  18
TORSDOF 6
