REMARK  Name = ZINCtj0000001wDG.2
REMARK                            x       y       z     vdW  Elec       q    Type
REMARK                         _______ _______ _______ _____ _____    ______ ____
ROOT
ATOM      1  N   LIG    1       -3.330   0.087   7.707  0.00  0.00    -0.710 N 
ATOM      2  H   LIG    1       -3.025  -0.660   7.168  0.00  0.00    +0.420 HD
ATOM      3  C   LIG    1       -3.827  -0.131   8.941  0.00  0.00    +0.520 C 
ATOM      4  O   LIG    1       -4.209   0.804   9.614  0.00  0.00    -0.500 OA
ENDROOT
BRANCH   1   8
ATOM      5  N   LIG    1       -2.798   1.975   4.852  0.00  0.00    -0.390 N 
ATOM      6  C   LIG    1       -4.213   1.536   4.958  0.00  0.00    +0.260 C 
ATOM      7  C   LIG    1       -4.561   1.817   6.441  0.00  0.00    +0.070 C 
ATOM      8  C   LIG    1       -3.252   1.451   7.179  0.00  0.00    +0.270 C 
ATOM      9  C   LIG    1       -2.148   1.549   6.110  0.00  0.00    +0.270 C 
ATOM     10  H   LIG    1       -2.750   2.979   4.759  0.00  0.00    +0.430 HD
BRANCH   5  15
ATOM     11  C   LIG    1       -0.013   1.086   0.008  0.00  0.00    +0.210 C 
ATOM     12  N   LIG    1       -0.700   1.560   1.217  0.00  0.00    -0.550 NA
ATOM     13  C   LIG    1       -2.111   1.153   1.213  0.00  0.00    +0.200 C 
ATOM     14  C   LIG    1       -2.829   1.784   2.408  0.00  0.00    +0.050 C 
ATOM     15  C   LIG    1       -2.151   1.328   3.703  0.00  0.00    +0.160 C 
ATOM     16  C   LIG    1       -0.671   1.720   3.661  0.00  0.00    +0.050 C 
ATOM     17  C   LIG    1       -0.017   1.091   2.429  0.00  0.00    +0.200 C 
ENDBRANCH   5  15
ENDBRANCH   1   8
BRANCH   3  18
ATOM     18  C   LIG    1       -3.906  -1.522   9.480  0.00  0.00    +0.510 C 
ATOM     19  N   LIG    1       -4.402  -1.740  10.714  0.00  0.00    -0.690 N 
ATOM     20  H   LIG    1       -4.708  -0.993  11.252  0.00  0.00    +0.420 HD
ATOM     21  O   LIG    1       -3.524  -2.456   8.806  0.00  0.00    -0.510 OA
BRANCH  19  22
ATOM     22  C   LIG    1       -4.480  -3.104  11.242  0.00  0.00    +0.400 C 
BRANCH  22  23
ATOM     23  C   LIG    1       -5.067  -3.073  12.629  0.00  0.00    +0.040 A 
ATOM     24  C   LIG    1       -6.371  -3.266  12.853  0.00  0.00    -0.040 A 
ATOM     25  S   LIG    1       -6.657  -3.154  14.588  0.00  0.00    +0.170 S 
ATOM     26  C   LIG    1       -4.941  -2.849  14.847  0.00  0.00    +0.140 A 
ATOM     27  N   LIG    1       -4.329  -2.860  13.694  0.00  0.00    -0.450 NA
BRANCH  26  28
ATOM     28  C   LIG    1       -4.301  -2.625  16.152  0.00  0.00    +0.030 A 
ATOM     29  C   LIG    1       -4.929  -2.618  17.361  0.00  0.00    +0.000 A 
ATOM     30  C   LIG    1       -3.940  -2.367  18.330  0.00  0.00    -0.050 A 
ATOM     31  C   LIG    1       -2.769  -2.235  17.675  0.00  0.00    +0.200 A 
ATOM     32  O   LIG    1       -2.989  -2.397  16.361  0.00  0.00    -0.150 OA
ENDBRANCH  26  28
ENDBRANCH  22  23
ENDBRANCH  19  22
ENDBRANCH   3  18
TORSDOF 6
