REMARK  Name = ZINCrg000000tNqM.0
REMARK                            x       y       z     vdW  Elec       q    Type
REMARK                         _______ _______ _______ _____ _____    ______ ____
ROOT
ATOM      1  O   LIG    1        0.966   6.215   0.135  0.00  0.00    -0.520 OA
ATOM      2  C   LIG    1       -0.074   5.593   0.033  0.00  0.00    +0.570 C 
ATOM      3  N   LIG    1       -1.246   6.252  -0.054  0.00  0.00    -0.610 N 
ATOM      4  C   LIG    1       -2.519   5.517  -0.054  0.00  0.00    +0.260 C 
ATOM      5  C   LIG    1       -3.400   6.070   1.080  0.00  0.00    +0.310 C 
ATOM      6  N   LIG    1       -3.428   7.536   0.977  0.00  0.00    -0.990 NA
ATOM      7  C   LIG    1       -2.156   8.271   0.971  0.00  0.00    +0.300 C 
ATOM      8  C   LIG    1       -1.275   7.718  -0.157  0.00  0.00    +0.290 C 
ENDROOT
BRANCH   2   9
ATOM      9  C   LIG    1       -0.052   4.117   0.005  0.00  0.00    -0.140 A 
ATOM     10  C   LIG    1        0.775   3.411   0.881  0.00  0.00    +0.110 A 
ATOM     11  C   LIG    1        0.791   2.033   0.851  0.00  0.00    -0.010 A 
ATOM     12  C   LIG    1       -0.012   1.347  -0.047  0.00  0.00    +0.120 A 
ATOM     13  C   LIG    1       -0.831   2.043  -0.924  0.00  0.00    -0.020 A 
ATOM     14  F   LIG    1        0.007  -0.003  -0.073  0.00  0.00    -0.130 F 
ATOM     15  C   LIG    1       -0.859   3.421  -0.898  0.00  0.00    +0.080 A 
ENDBRANCH   2   9
BRANCH   6  16
ATOM     16  S   LIG    1       -4.869   8.345   0.869  0.00  0.00    +2.720 S 
ATOM     17  O   LIG    1       -4.623   9.666   1.332  0.00  0.00    -0.930 OA
ATOM     18  O   LIG    1       -5.852   7.492   1.439  0.00  0.00    -0.930 OA
BRANCH  16  19
ATOM     19  C   LIG    1       -5.263   8.483  -0.843  0.00  0.00    -0.580 A 
ATOM     20  C   LIG    1       -4.912   9.497  -1.669  0.00  0.00    +0.330 A 
ATOM     21  N   LIG    1       -5.391   9.239  -2.886  0.00  0.00    -0.460 NA
ATOM     22  C   LIG    1       -6.049   8.089  -2.859  0.00  0.00    +0.210 A 
ATOM     23  C   LIG    1       -6.743   7.361  -3.843  0.00  0.00    +0.150 A 
ATOM     24  C   LIG    1       -7.332   6.181  -3.502  0.00  0.00    +0.020 A 
ATOM     25  C   LIG    1       -7.243   5.704  -2.189  0.00  0.00    +0.340 A 
ATOM     26  N   LIG    1       -6.601   6.377  -1.272  0.00  0.00    -0.240 NA
ATOM     27  N   LIG    1       -5.983   7.592  -1.581  0.00  0.00    -0.220 N 
ENDBRANCH  16  19
ENDBRANCH   6  16
TORSDOF 3
