REMARK  Name = ZINCrH00000tj1lN.0
REMARK                            x       y       z     vdW  Elec       q    Type
REMARK                         _______ _______ _______ _____ _____    ______ ____
ROOT
ATOM      1  C   LIG    1       -1.254   7.611   0.621  0.00  0.00    +0.400 C 
ATOM      2  O   LIG    1       -0.182   8.156   0.785  0.00  0.00    -0.420 OA
ENDROOT
BRANCH   1   3
ATOM      3  C   LIG    1       -2.491   8.286   1.032  0.00  0.00    -0.190 A 
ATOM      4  C   LIG    1       -3.730   7.662   0.839  0.00  0.00    +0.090 A 
ATOM      5  C   LIG    1       -4.882   8.293   1.229  0.00  0.00    -0.020 A 
ATOM      6  C   LIG    1       -4.823   9.558   1.807  0.00  0.00    +0.180 A 
ATOM      7  C   LIG    1       -3.595  10.185   1.997  0.00  0.00    +0.020 A 
ATOM      8  C   LIG    1       -2.437   9.559   1.614  0.00  0.00    +0.110 A 
BRANCH   6   9
ATOM      9  N   LIG    1       -5.997  10.199   2.197  0.00  0.00    -0.680 N 
ATOM     10  H   LIG    1       -6.736   9.682   2.554  0.00  0.00    +0.410 HD
ATOM     11  C   LIG    1       -6.107  11.537   2.077  0.00  0.00    +0.520 C 
ATOM     12  O   LIG    1       -5.157  12.192   1.702  0.00  0.00    -0.510 OA
BRANCH  11  13
ATOM     13  C   LIG    1       -7.408  12.219   2.410  0.00  0.00    -0.010 C 
ATOM     14  C   LIG    1       -7.264  13.727   2.191  0.00  0.00    +0.050 C 
ATOM     15  C   LIG    1       -7.766  11.949   3.873  0.00  0.00    +0.040 C 
ENDBRANCH  11  13
ENDBRANCH   6   9
ENDBRANCH   1   3
BRANCH   1  16
ATOM     16  C   LIG    1       -1.315   6.242  -0.005  0.00  0.00    +0.150 C 
ATOM     17  C   LIG    1       -1.689   6.372  -1.483  0.00  0.00    +0.060 C 
BRANCH  16  18
ATOM     18  O   LIG    1       -0.038   5.609   0.109  0.00  0.00    -0.280 OA
BRANCH  18  22
ATOM     19  C   LIG    1        0.023   1.483   0.002  0.00  0.00    -0.170 A 
ATOM     20  C   LIG    1        1.222   2.200   0.057  0.00  0.00    +0.130 A 
ATOM     21  C   LIG    1        1.197   3.577   0.086  0.00  0.00    -0.020 A 
ATOM     22  C   LIG    1       -0.018   4.252   0.074  0.00  0.00    +0.170 A 
ATOM     23  C   LIG    1       -1.212   3.542   0.025  0.00  0.00    -0.090 A 
ATOM     24  C   LIG    1       -1.196   2.166  -0.011  0.00  0.00    +0.130 A 
BRANCH  19  25
ATOM     25  C   LIG    1        0.045   0.009  -0.037  0.00  0.00    +0.510 C 
ATOM     26  O   LIG    1       -0.997  -0.614  -0.079  0.00  0.00    -0.510 OA
BRANCH  25  28
ATOM     27  C   LIG    1        1.167  -2.099  -0.064  0.00  0.00    +0.260 C 
ATOM     28  O   LIG    1        1.222  -0.648  -0.024  0.00  0.00    -0.360 OA
ENDBRANCH  25  28
ENDBRANCH  19  25
ENDBRANCH  18  22
ENDBRANCH  16  18
ENDBRANCH   1  16
TORSDOF 8
