REMARK  Name = ZINCrH00000tj1ln.1
REMARK                            x       y       z     vdW  Elec       q    Type
REMARK                         _______ _______ _______ _____ _____    ______ ____
ROOT
ATOM      1  N   LIG    1        5.395   1.698  -1.869  0.00  0.00    -0.610 N 
ATOM      2  C   LIG    1        6.099   2.624  -2.550  0.00  0.00    +0.530 C 
ATOM      3  O   LIG    1        5.838   2.848  -3.713  0.00  0.00    -0.510 OA
ATOM      4  C   LIG    1        5.764   1.365  -0.490  0.00  0.00    +0.280 C 
ENDROOT
BRANCH   2   5
ATOM      5  C   LIG    1        7.208   3.380  -1.866  0.00  0.00    +0.170 C 
ATOM      6  C   LIG    1        6.608   4.431  -0.930  0.00  0.00    +0.030 C 
BRANCH   5   7
ATOM      7  N   LIG    1        8.043   4.044  -2.877  0.00  0.00    -0.660 NA
ATOM      8  H   LIG    1        7.705   4.975  -3.070  0.00  0.00    +0.350 HD
BRANCH   7   9
ATOM      9  C   LIG    1        9.452   4.071  -2.461  0.00  0.00    +0.220 C 
ATOM     10  C   LIG    1        9.725   5.350  -1.667  0.00  0.00    +0.010 C 
BRANCH   9  11
ATOM     11  C   LIG    1       10.336   4.038  -3.680  0.00  0.00    -0.060 A 
ATOM     12  C   LIG    1       11.492   3.278  -3.675  0.00  0.00    +0.020 A 
ATOM     13  C   LIG    1       12.304   3.247  -4.794  0.00  0.00    +0.020 A 
ATOM     14  C   LIG    1       11.961   3.975  -5.918  0.00  0.00    +0.020 A 
ATOM     15  C   LIG    1       10.804   4.735  -5.923  0.00  0.00    -0.030 A 
ATOM     16 CL   LIG    1       10.373   5.649  -7.334  0.00  0.00    -0.070 Cl
ATOM     17  C   LIG    1        9.990   4.762  -4.805  0.00  0.00    +0.050 A 
ENDBRANCH   9  11
ENDBRANCH   7   9
ENDBRANCH   5   7
ENDBRANCH   2   5
BRANCH   1  18
ATOM     18  C   LIG    1        4.262   1.023  -2.507  0.00  0.00    +0.330 C 
BRANCH  18  21
ATOM     19  N   LIG    1        1.824   1.372  -2.741  0.00  0.00    -0.670 N 
ATOM     20  H   LIG    1        1.776   0.518  -3.199  0.00  0.00    +0.410 HD
ATOM     21  C   LIG    1        3.001   1.806  -2.247  0.00  0.00    +0.500 C 
ATOM     22  O   LIG    1        3.044   2.827  -1.594  0.00  0.00    -0.510 OA
BRANCH  19  27
ATOM     23  C   LIG    1       -2.844   4.541  -2.146  0.00  0.00    +0.100 C 
ATOM     24  C   LIG    1       -1.604   3.699  -2.304  0.00  0.00    -0.100 A 
ATOM     25  C   LIG    1       -1.413   2.961  -3.458  0.00  0.00    +0.030 A 
ATOM     26  C   LIG    1       -0.281   2.184  -3.603  0.00  0.00    -0.010 A 
ATOM     27  C   LIG    1        0.673   2.153  -2.594  0.00  0.00    +0.140 A 
ATOM     28  C   LIG    1        0.481   2.900  -1.439  0.00  0.00    +0.020 A 
ATOM     29  C   LIG    1       -0.656   3.670  -1.297  0.00  0.00    +0.020 A 
ENDBRANCH  19  27
ENDBRANCH  18  21
ENDBRANCH   1  18
TORSDOF 7
