REMARK  Name = ZINCvU0000000DsC.0
REMARK                            x       y       z     vdW  Elec       q    Type
REMARK                         _______ _______ _______ _____ _____    ______ ____
ROOT
ATOM      1  C   LIG    1        0.059   5.575   0.030  0.00  0.00    +0.190 A 
ATOM      2  N   LIG    1        0.141   6.347  -1.016  0.00  0.00    -0.250 NA
ATOM      3  N   LIG    1        0.292   7.571  -0.653  0.00  0.00    -0.280 NA
ATOM      4  C   LIG    1        0.314   7.649   0.657  0.00  0.00    +0.170 A 
ATOM      5  N   LIG    1        0.161   6.376   1.136  0.00  0.00    -0.400 N 
ENDROOT
BRANCH   5   6
ATOM      6  C   LIG    1        0.120   5.976   2.480  0.00  0.00    +0.090 A 
ATOM      7  C   LIG    1       -1.043   5.429   3.007  0.00  0.00    +0.030 A 
ATOM      8  C   LIG    1       -1.079   5.031   4.329  0.00  0.00    +0.040 A 
ATOM      9  C   LIG    1        0.037   5.185   5.130  0.00  0.00    +0.040 A 
ATOM     10  C   LIG    1        1.195   5.734   4.609  0.00  0.00    +0.040 A 
ATOM     11  C   LIG    1        1.239   6.130   3.286  0.00  0.00    +0.040 A 
ENDBRANCH   5   6
BRANCH   1  12
ATOM     12  C   LIG    1       -0.121   4.079   0.024  0.00  0.00    +0.340 C 
BRANCH  12  13
ATOM     13  O   LIG    1        1.160   3.445   0.009  0.00  0.00    -0.300 OA
BRANCH  13  20
ATOM     14  C   LIG    1        3.682   2.172  -0.020  0.00  0.00    +0.100 C 
ATOM     15  C   LIG    1        2.385   1.405  -0.013  0.00  0.00    -0.110 A 
ATOM     16  C   LIG    1        2.398   0.024  -0.020  0.00  0.00    +0.050 A 
ATOM     17  C   LIG    1        1.208  -0.680  -0.013  0.00  0.00    -0.020 A 
ATOM     18  C   LIG    1        0.002  -0.004   0.002  0.00  0.00    +0.050 A 
ATOM     19  C   LIG    1       -0.017   1.377   0.010  0.00  0.00    -0.070 A 
ATOM     20  C   LIG    1        1.176   2.086   0.002  0.00  0.00    +0.130 A 
ENDBRANCH  13  20
ENDBRANCH  12  13
ENDBRANCH   1  12
BRANCH   4  21
ATOM     21  S   LIG    1        0.499   9.114   1.617  0.00  0.00    +0.060 S 
BRANCH  21  22
ATOM     22  C   LIG    1        0.634  10.342   0.294  0.00  0.00    +0.160 C 
ATOM     23  C   LIG    1        1.913  10.090  -0.507  0.00  0.00    +0.110 C 
BRANCH  22  24
ATOM     24  C   LIG    1        0.681  11.724   0.893  0.00  0.00    +0.190 A 
ATOM     25  N   LIG    1        0.017  12.777   0.481  0.00  0.00    -0.460 NA
ATOM     26  C   LIG    1        0.369  13.774   1.312  0.00  0.00    +0.180 A 
ATOM     27  N   LIG    1        1.218  13.288   2.166  0.00  0.00    -0.370 NA
ATOM     28  O   LIG    1        1.411  12.112   1.943  0.00  0.00    +0.090 OA
BRANCH  26  29
ATOM     29  C   LIG    1       -0.128  15.196   1.258  0.00  0.00    +0.090 C 
ATOM     30  C   LIG    1        1.056  16.142   1.043  0.00  0.00    +0.040 C 
ATOM     31  C   LIG    1       -0.825  15.543   2.575  0.00  0.00    +0.040 C 
ENDBRANCH  26  29
ENDBRANCH  22  24
ENDBRANCH  21  22
ENDBRANCH   4  21
TORSDOF 8
