REMARK  Name = ZINCqH0000007NGB.0
REMARK                            x       y       z     vdW  Elec       q    Type
REMARK                         _______ _______ _______ _____ _____    ______ ____
ROOT
ATOM      1  S   LIG    1        2.573  -3.240   0.119  0.00  0.00    +0.130 S 
ENDROOT
BRANCH   1   6
ATOM      2  N   LIG    1        3.634  -0.671  -0.140  0.00  0.00    -0.300 N 
ATOM      3  N   LIG    1        4.923  -0.120  -0.233  0.00  0.00    -0.050 NA
ATOM      4  N   LIG    1        5.755  -1.103  -0.164  0.00  0.00    -0.030 NA
ATOM      5  N   LIG    1        5.125  -2.215  -0.047  0.00  0.00    -0.330 NA
ATOM      6  C   LIG    1        3.826  -2.010  -0.027  0.00  0.00    +0.200 A 
BRANCH   2  12
ATOM      7  C   LIG    1        2.175   0.991  -1.130  0.00  0.00    +0.160 A 
ATOM      8  C   LIG    1        0.965   1.665  -1.150  0.00  0.00    -0.060 A 
ATOM      9  C   LIG    1       -0.006   1.369  -0.212  0.00  0.00    +0.090 A 
ATOM     10  C   LIG    1        0.225   0.400   0.747  0.00  0.00    +0.000 A 
ATOM     11  C   LIG    1        1.430  -0.277   0.773  0.00  0.00    +0.070 A 
ATOM     12  C   LIG    1        2.409   0.015  -0.165  0.00  0.00    +0.080 A 
BRANCH   7  14
ATOM     13  C   LIG    1        2.822   2.293  -3.012  0.00  0.00    +0.250 C 
ATOM     14  O   LIG    1        3.132   1.281  -2.052  0.00  0.00    -0.300 OA
ENDBRANCH   7  14
ENDBRANCH   2  12
ENDBRANCH   1   6
BRANCH   1  15
ATOM     15  C   LIG    1        3.601  -4.726   0.221  0.00  0.00    +0.120 C 
BRANCH  15  16
ATOM     16  C   LIG    1        2.718  -5.939   0.355  0.00  0.00    +0.540 C 
ATOM     17  N   LIG    1        3.269  -7.166   0.447  0.00  0.00    -0.660 N 
ATOM     18  H   LIG    1        4.232  -7.263   0.501  0.00  0.00    +0.420 HD
ATOM     19  O   LIG    1        1.512  -5.812   0.379  0.00  0.00    -0.500 OA
BRANCH  17  20
ATOM     20  C   LIG    1        2.450  -8.301   0.465  0.00  0.00    +0.170 A 
ATOM     21  C   LIG    1        2.825  -9.418   1.200  0.00  0.00    +0.020 A 
ATOM     22  C   LIG    1        2.012 -10.535   1.220  0.00  0.00    -0.000 A 
ATOM     23  C   LIG    1        0.830 -10.546   0.500  0.00  0.00    +0.030 A 
ATOM     24  C   LIG    1        0.457  -9.436  -0.238  0.00  0.00    -0.000 A 
ATOM     25 CL   LIG    1       -1.026  -9.453  -1.140  0.00  0.00    -0.050 Cl
ATOM     26 CL   LIG    1        2.477 -11.930   2.144  0.00  0.00    -0.050 Cl
ATOM     27  C   LIG    1        1.264  -8.314  -0.257  0.00  0.00    +0.040 A 
ENDBRANCH  17  20
ENDBRANCH  15  16
ENDBRANCH   1  15
TORSDOF 6
