REMARK  Name = ZINCqH0000000g5s.0
REMARK                            x       y       z     vdW  Elec       q    Type
REMARK                         _______ _______ _______ _____ _____    ______ ____
ROOT
ATOM      1  N   LIG    1       -3.714  -1.044   0.096  0.00  0.00    -0.650 N 
ATOM      2  H   LIG    1       -4.537  -0.548  -0.035  0.00  0.00    +0.420 HD
ATOM      3  C   LIG    1       -2.538  -0.390   0.173  0.00  0.00    +0.570 C 
ATOM      4  O   LIG    1       -1.498  -1.015   0.247  0.00  0.00    -0.510 OA
ENDROOT
BRANCH   3   5
ATOM      5  C   LIG    1       -2.513   1.089   0.169  0.00  0.00    -0.070 A 
ATOM      6  C   LIG    1       -3.674   1.825  -0.027  0.00  0.00    +0.020 A 
ATOM      7  C   LIG    1       -3.614   3.217  -0.026  0.00  0.00    +0.150 A 
ATOM      8  N   LIG    1       -2.489   3.861   0.166  0.00  0.00    -0.450 NA
ATOM      9  C   LIG    1       -1.333   3.218   0.356  0.00  0.00    +0.130 A 
ATOM     10  C   LIG    1       -0.134   3.928   0.545  0.00  0.00    +0.040 A 
ATOM     11  C   LIG    1        1.030   3.248   0.737  0.00  0.00    +0.030 A 
ATOM     12  C   LIG    1        1.054   1.855   0.749  0.00  0.00    +0.020 A 
ATOM     13  C   LIG    1       -0.088   1.135   0.570  0.00  0.00    +0.070 A 
ATOM     14  C   LIG    1       -4.880   4.005  -0.240  0.00  0.00    +0.130 C 
ATOM     15  C   LIG    1       -1.303   1.802   0.365  0.00  0.00    -0.070 A 
ENDBRANCH   3   5
BRANCH   1  21
ATOM     16  C   LIG    1       -4.829  -3.064   0.833  0.00  0.00    -0.170 A 
ATOM     17  C   LIG    1       -4.853  -4.457   0.929  0.00  0.00    +0.060 A 
ATOM     18  C   LIG    1       -3.810  -5.200   0.418  0.00  0.00    -0.010 A 
ATOM     19  C   LIG    1       -2.740  -4.571  -0.198  0.00  0.00    +0.060 A 
ATOM     20  C   LIG    1       -2.705  -3.196  -0.306  0.00  0.00    +0.020 A 
ATOM     21  C   LIG    1       -3.747  -2.431   0.204  0.00  0.00    +0.210 A 
BRANCH  16  24
ATOM     22  N   LIG    1       -7.028  -2.878   1.887  0.00  0.00    -0.720 N 
ATOM     23  H   LIG    1       -7.082  -3.846   1.887  0.00  0.00    +0.400 HD
ATOM     24  C   LIG    1       -5.939  -2.264   1.384  0.00  0.00    +0.570 C 
ATOM     25  O   LIG    1       -5.871  -1.050   1.385  0.00  0.00    -0.540 OA
BRANCH  22  26
ATOM     26  C   LIG    1       -8.130  -2.083   2.434  0.00  0.00    +0.300 C 
BRANCH  26  28
ATOM     27  C   LIG    1       -9.642  -2.910   4.163  0.00  0.00    +0.050 C 
ATOM     28  C   LIG    1       -9.217  -3.003   2.928  0.00  0.00    -0.060 C 
ENDBRANCH  26  28
ENDBRANCH  22  26
ENDBRANCH  16  24
ENDBRANCH   1  21
TORSDOF 5
