REMARK  Name = ZINCqH0000033aLj.0
REMARK                            x       y       z     vdW  Elec       q    Type
REMARK                         _______ _______ _______ _____ _____    ______ ____
ROOT
ATOM      1  N   LIG    1       -3.675   3.179   0.049  0.00  0.00    -0.640 N 
ATOM      2  H   LIG    1       -3.664   2.209   0.045  0.00  0.00    +0.420 HD
ATOM      3  C   LIG    1       -2.516   3.866   0.042  0.00  0.00    +0.560 C 
ATOM      4  O   LIG    1       -2.531   5.082   0.048  0.00  0.00    -0.450 OA
ENDROOT
BRANCH   3   5
ATOM      5  C   LIG    1       -1.231   3.145   0.029  0.00  0.00    -0.100 A 
ATOM      6  C   LIG    1       -1.215   1.747   0.017  0.00  0.00    +0.050 A 
ATOM      7  C   LIG    1       -0.013   1.076   0.008  0.00  0.00    +0.090 A 
ATOM      8  C   LIG    1        1.181   1.785   0.000  0.00  0.00    -0.110 A 
ATOM      9  S   LIG    1        2.722   0.924  -0.023  0.00  0.00    -0.060 S 
ATOM     10  C   LIG    1        3.783   2.084  -0.935  0.00  0.00    +0.150 C 
ATOM     11  C   LIG    1        3.552   3.474  -0.409  0.00  0.00    +0.520 C 
ATOM     12  N   LIG    1        2.367   3.914   0.008  0.00  0.00    -0.660 N 
ATOM     13  H   LIG    1        2.326   4.824   0.341  0.00  0.00    +0.420 HD
ATOM     14  O   LIG    1        4.496   4.235  -0.364  0.00  0.00    -0.510 OA
ATOM     15  C   LIG    1        1.180   3.184   0.009  0.00  0.00    +0.160 A 
ATOM     16  C   LIG    1       -0.030   3.859   0.022  0.00  0.00    +0.080 A 
ENDBRANCH   3   5
BRANCH   1  25
ATOM     17  N   LIG    1       -6.112   3.265   0.069  0.00  0.00    -0.500 N 
ATOM     18  C   LIG    1       -7.054   4.280   0.082  0.00  0.00    +0.050 A 
ATOM     19  C   LIG    1       -8.441   4.305   0.093  0.00  0.00    +0.010 A 
ATOM     20  C   LIG    1       -9.105   5.514   0.105  0.00  0.00    +0.030 A 
ATOM     21  C   LIG    1       -8.396   6.706   0.104  0.00  0.00    +0.010 A 
ATOM     22  C   LIG    1       -7.019   6.700   0.093  0.00  0.00    +0.060 A 
ATOM     23  C   LIG    1       -6.331   5.484   0.081  0.00  0.00    +0.060 A 
ATOM     24  N   LIG    1       -5.012   5.158   0.074  0.00  0.00    -0.470 NA
ATOM     25  C   LIG    1       -4.881   3.856   0.061  0.00  0.00    +0.500 A 
BRANCH  17  26
ATOM     26  C   LIG    1       -6.385   1.826   0.064  0.00  0.00    +0.300 C 
BRANCH  26  28
ATOM     27  C   LIG    1       -6.754  -0.186   1.499  0.00  0.00    +0.030 C 
ATOM     28  C   LIG    1       -6.469   1.317   1.504  0.00  0.00    +0.000 C 
ENDBRANCH  26  28
ENDBRANCH  17  26
ENDBRANCH   1  25
TORSDOF 4
