REMARK  Name = ZINCrD000000CPAF.0
REMARK                            x       y       z     vdW  Elec       q    Type
REMARK                         _______ _______ _______ _____ _____    ______ ____
ROOT
ATOM      1  S   LIG    1       -3.528   1.430   1.824  0.00  0.00    +2.700 S 
ATOM      2  O   LIG    1       -4.532   1.985   0.984  0.00  0.00    -0.920 OA
ATOM      3  O   LIG    1       -3.253   1.916   3.131  0.00  0.00    -0.940 OA
ENDROOT
BRANCH   1  10
ATOM      4  O   LIG    1       -5.334  -5.978   3.822  0.00  0.00    -0.490 OA
ATOM      5  C   LIG    1       -5.098  -4.800   3.659  0.00  0.00    +0.490 C 
ATOM      6  C   LIG    1       -5.100  -3.858   4.837  0.00  0.00    +0.320 C 
ATOM      7  O   LIG    1       -4.158  -2.806   4.613  0.00  0.00    -0.290 OA
ATOM      8  C   LIG    1       -4.186  -2.211   3.390  0.00  0.00    +0.060 A 
ATOM      9  C   LIG    1       -3.877  -0.870   3.251  0.00  0.00    +0.170 A 
ATOM     10  C   LIG    1       -3.916  -0.280   2.000  0.00  0.00    -0.670 A 
ATOM     11  C   LIG    1       -4.253  -1.028   0.886  0.00  0.00    +0.070 A 
ATOM     12  C   LIG    1       -4.559  -2.372   1.018  0.00  0.00    +0.020 A 
ATOM     13 CL   LIG    1       -4.293  -0.280  -0.680  0.00  0.00    -0.020 Cl
ATOM     14  C   LIG    1       -4.526  -2.966   2.268  0.00  0.00    +0.170 A 
ATOM     15  N   LIG    1       -4.832  -4.326   2.423  0.00  0.00    -0.660 N 
ATOM     16  H   LIG    1       -4.852  -4.917   1.654  0.00  0.00    +0.420 HD
ENDBRANCH   1  10
BRANCH   1  17
ATOM     17  N   LIG    1       -2.107   1.526   0.980  0.00  0.00    -1.000 NA
ATOM     18  C   LIG    1       -0.755   1.384   1.554  0.00  0.00    +0.280 C 
ATOM     19  C   LIG    1        0.133   0.936   0.367  0.00  0.00    +0.040 C 
ATOM     20  C   LIG    1       -0.477   1.748  -0.805  0.00  0.00    +0.050 C 
ATOM     21  C   LIG    1       -1.983   1.767  -0.465  0.00  0.00    +0.280 C 
BRANCH  21  22
ATOM     22  C   LIG    1       -2.570   3.111  -0.812  0.00  0.00    -0.070 A 
ATOM     23  C   LIG    1       -3.301   3.266  -1.975  0.00  0.00    +0.020 A 
ATOM     24  C   LIG    1       -3.840   4.498  -2.295  0.00  0.00    +0.050 A 
ATOM     25  C   LIG    1       -3.649   5.576  -1.453  0.00  0.00    -0.010 A 
ATOM     26  C   LIG    1       -2.917   5.422  -0.287  0.00  0.00    +0.100 A 
ATOM     27  F   LIG    1       -2.730   6.476   0.537  0.00  0.00    -0.140 F 
ATOM     28  C   LIG    1       -2.382   4.187   0.035  0.00  0.00    -0.020 A 
ENDBRANCH  21  22
ENDBRANCH   1  17
TORSDOF 3
