REMARK  Name = ZINCkj00000y7HQH.1
REMARK                            x       y       z     vdW  Elec       q    Type
REMARK                         _______ _______ _______ _____ _____    ______ ____
ROOT
ATOM      1  N   LIG    1        2.343   1.129   0.164  0.00  0.00    -0.670 NA
ATOM      2  H   LIG    1        3.142   1.663   0.031  0.00  0.00    +0.420 HD
ENDROOT
BRANCH   1   3
ATOM      3  C   LIG    1        1.131   1.748   0.429  0.00  0.00    +0.360 C 
ATOM      4  C   LIG    1       -0.024   1.007   0.622  0.00  0.00    -0.090 C 
ATOM      5  C   LIG    1       -1.223   1.657   0.879  0.00  0.00    +0.450 C 
ATOM      6  N   LIG    1       -1.300   2.965   0.959  0.00  0.00    -0.510 NA
ATOM      7  C   LIG    1       -0.226   3.743   0.783  0.00  0.00    +0.180 C 
ATOM      8  C   LIG    1       -0.325   5.142   0.866  0.00  0.00    +0.040 C 
ATOM      9  C   LIG    1        0.784   5.911   0.683  0.00  0.00    +0.150 C 
ATOM     10  C   LIG    1        2.022   5.332   0.414  0.00  0.00    -0.090 C 
ATOM     11  C   LIG    1        2.156   3.978   0.328  0.00  0.00    +0.120 C 
ATOM     12 BR   LIG    1        3.536   6.438   0.167  0.00  0.00    +0.010 Br
ATOM     13  H   LIG    1       -2.157   3.377   1.146  0.00  0.00    +0.450 HD
ATOM     14  C   LIG    1        1.034   3.158   0.511  0.00  0.00    -0.130 C 
ENDBRANCH   1   3
BRANCH   1  19
ATOM     15  C   LIG    1        3.833  -0.824   0.454  0.00  0.00    -0.030 C 
ATOM     16  C   LIG    1        4.331  -1.535  -0.824  0.00  0.00    +0.260 C 
ATOM     17  O   LIG    1        3.565  -0.945  -1.896  0.00  0.00    -0.350 OA
ATOM     18  C   LIG    1        2.225  -0.805  -1.375  0.00  0.00    +0.220 C 
ATOM     19  C   LIG    1        2.416  -0.332   0.083  0.00  0.00    +0.230 C 
BRANCH  15  23
ATOM     20  N   LIG    1        4.811   0.777   2.067  0.00  0.00    -0.850 N 
ATOM     21  H   LIG    1        5.385   1.528   2.285  0.00  0.00    +0.410 HD
ATOM     22  H   LIG    1        4.299   0.339   2.764  0.00  0.00    +0.410 HD
ATOM     23  C   LIG    1        4.725   0.342   0.794  0.00  0.00    +0.510 C 
ATOM     24  O   LIG    1        5.365   0.890  -0.078  0.00  0.00    -0.520 OA
ENDBRANCH  15  23
ENDBRANCH   1  19
TORSDOF 3
