REMARK  Name = ZINCbu0000000GDZ.0
REMARK                            x       y       z     vdW  Elec       q    Type
REMARK                         _______ _______ _______ _____ _____    ______ ____
ROOT
ATOM      1  C   LIG    1        1.644  -1.682   0.869  0.00  0.00    +0.100 C 
ATOM      2  C   LIG    1        1.451  -0.447  -0.014  0.00  0.00    +0.240 C 
ATOM      3  N   LIG    1        2.192   0.716   0.547  0.00  0.00    -0.520 N 
ATOM      4  C   LIG    1        1.420   1.865  -0.002  0.00  0.00    +0.240 C 
ATOM      5  C   LIG    1       -0.017   1.382   0.010  0.00  0.00    -0.130 A 
ATOM      6  C   LIG    1       -1.220   2.056   0.030  0.00  0.00    +0.070 A 
ATOM      7  C   LIG    1       -2.408   1.348   0.034  0.00  0.00    +0.050 A 
ATOM      8  C   LIG    1       -2.389  -0.034   0.026  0.00  0.00    +0.050 A 
ATOM      9  C   LIG    1       -1.183  -0.711   0.010  0.00  0.00    +0.070 A 
ATOM     10  C   LIG    1        1.869   2.179  -1.430  0.00  0.00    +0.110 C 
ATOM     11  H   LIG    1        3.145   0.730   0.215  0.00  0.00    +0.440 HD
ATOM     12  H   LIG    1        2.163   0.710   1.555  0.00  0.00    +0.430 HD
ATOM     13  C   LIG    1        0.002  -0.004   0.002  0.00  0.00    -0.130 A 
ENDROOT
TORSDOF 0
