REMARK  Name = ZINCpk000000oePV.0
REMARK                            x       y       z     vdW  Elec       q    Type
REMARK                         _______ _______ _______ _____ _____    ______ ____
ROOT
ATOM      1  C   LIG    1       -3.435   7.115   0.172  0.00  0.00    +0.480 C 
ENDROOT
BRANCH   1   2
ATOM      2  N   LIG    1       -2.036   6.930   0.565  0.00  0.00    -0.570 N 
ATOM      3  C   LIG    1       -1.343   5.802   0.370  0.00  0.00    +0.710 C 
ATOM      4  N   LIG    1       -0.078   5.891   0.824  0.00  0.00    -0.720 N 
ATOM      5  H   LIG    1        0.602   5.200   0.789  0.00  0.00    +0.440 HD
ATOM      6  C   LIG    1        0.069   7.241   1.382  0.00  0.00    +0.130 C 
ATOM      7  C   LIG    1        1.141   8.019   0.627  0.00  0.00    +0.050 C 
ATOM      8  C   LIG    1        2.501   7.346   0.830  0.00  0.00    +0.010 C 
ATOM      9  C   LIG    1        2.831   7.308   2.324  0.00  0.00    +0.010 C 
ATOM     10  C   LIG    1        1.760   6.504   3.063  0.00  0.00    +0.030 C 
ATOM     11  C   LIG    1        0.397   7.173   2.869  0.00  0.00    +0.050 C 
ATOM     12  O   LIG    1       -1.803   4.808  -0.158  0.00  0.00    -0.530 OA
ATOM     13  C   LIG    1       -1.288   7.875   1.171  0.00  0.00    +0.530 C 
ATOM     14  O   LIG    1       -1.630   8.996   1.480  0.00  0.00    -0.460 OA
ENDBRANCH   1   2
BRANCH   1  15
ATOM     15  N   LIG    1       -3.504   7.414  -1.265  0.00  0.00    -0.530 NA
BRANCH  15  16
ATOM     16  C   LIG    1       -4.814   7.042  -1.818  0.00  0.00    +0.210 C 
ATOM     17  C   LIG    1       -4.968   5.511  -1.824  0.00  0.00    +0.090 C 
ATOM     18  C   LIG    1       -6.448   5.164  -2.079  0.00  0.00    -0.310 C 
ATOM     19  S   LIG    1       -7.390   6.589  -1.425  0.00  0.00    +2.390 S 
ATOM     20  O   LIG    1       -8.114   6.184  -0.271  0.00  0.00    -0.930 OA
ATOM     21  O   LIG    1       -8.066   7.237  -2.493  0.00  0.00    -0.930 OA
ATOM     22  C   LIG    1       -5.947   7.599  -0.919  0.00  0.00    -0.360 C 
ENDBRANCH  15  16
BRANCH  15  23
ATOM     23  C   LIG    1       -3.206   8.829  -1.524  0.00  0.00    +0.180 C 
BRANCH  23  24
ATOM     24  C   LIG    1       -3.041   9.048  -3.029  0.00  0.00    +0.020 C 
BRANCH  24  26
ATOM     25  C   LIG    1       -2.566  10.742  -4.803  0.00  0.00    +0.020 C 
ATOM     26  C   LIG    1       -2.731  10.522  -3.298  0.00  0.00    +0.000 C 
ENDBRANCH  24  26
ENDBRANCH  23  24
ENDBRANCH  15  23
ENDBRANCH   1  15
TORSDOF 6
