REMARK  Name = ZINCpe000000ZtxJ.0
REMARK                            x       y       z     vdW  Elec       q    Type
REMARK                         _______ _______ _______ _____ _____    ______ ____
ROOT
ATOM      1  O   LIG    1        1.879   5.526  -1.457  0.00  0.00    -0.490 OA
ATOM      2  C   LIG    1        0.776   5.043  -1.603  0.00  0.00    +0.490 C 
ATOM      3  N   LIG    1        0.352   4.069  -0.773  0.00  0.00    -0.620 N 
ATOM      4  C   LIG    1        1.255   3.486   0.231  0.00  0.00    +0.300 C 
ATOM      5  C   LIG    1        1.214   1.961   0.095  0.00  0.00    +0.210 C 
ATOM      6  N   LIG    1       -0.179   1.502   0.173  0.00  0.00    -0.470 N 
ATOM      7  C   LIG    1       -0.977   2.033  -0.941  0.00  0.00    +0.190 C 
ATOM      8  C   LIG    1       -1.026   3.562  -0.848  0.00  0.00    +0.290 C 
ENDROOT
BRANCH   2   9
ATOM      9  C   LIG    1       -0.120   5.532  -2.711  0.00  0.00    +0.230 C 
ATOM     10  N   LIG    1       -0.450   4.417  -3.605  0.00  0.00    -0.670 NA
ATOM     11  H   LIG    1       -1.285   3.941  -3.297  0.00  0.00    +0.350 HD
ATOM     12  C   LIG    1        0.663   3.482  -3.766  0.00  0.00    +0.160 C 
ATOM     13  C   LIG    1        1.835   4.056  -4.531  0.00  0.00    +0.230 C 
ATOM     14  O   LIG    1        2.438   5.133  -3.803  0.00  0.00    -0.310 OA
ATOM     15  C   LIG    1        1.867   6.354  -3.992  0.00  0.00    +0.140 A 
ATOM     16  C   LIG    1        2.544   7.338  -4.698  0.00  0.00    -0.010 A 
ATOM     17  C   LIG    1        1.934   8.557  -4.929  0.00  0.00    +0.030 A 
ATOM     18  C   LIG    1        0.657   8.797  -4.457  0.00  0.00    +0.000 A 
ATOM     19  C   LIG    1       -0.014   7.819  -3.744  0.00  0.00    +0.040 A 
ATOM     20  C   LIG    1        0.597   6.605  -3.508  0.00  0.00    -0.100 A 
ENDBRANCH   2   9
BRANCH   6  21
ATOM     21  C   LIG    1       -0.246   0.114   0.217  0.00  0.00    +0.250 A 
ATOM     22  C   LIG    1       -1.482  -0.525   0.298  0.00  0.00    +0.020 A 
ATOM     23  C   LIG    1       -1.494  -1.911   0.334  0.00  0.00    +0.060 A 
ATOM     24  C   LIG    1       -0.277  -2.575   0.298  0.00  0.00    +0.190 A 
ATOM     25  N   LIG    1        0.847  -1.889   0.226  0.00  0.00    -0.220 NA
ATOM     26  N   LIG    1        0.865  -0.607   0.187  0.00  0.00    -0.280 NA
ENDBRANCH   6  21
TORSDOF 2
