REMARK  Name = ZINCqH0000031HVw.0
REMARK                            x       y       z     vdW  Elec       q    Type
REMARK                         _______ _______ _______ _____ _____    ______ ____
ROOT
ATOM      1  C   LIG    1        4.756   1.444   0.067  0.00  0.00    +0.520 C 
ATOM      2  N   LIG    1        3.587   2.109  -0.020  0.00  0.00    -0.670 N 
ATOM      3  H   LIG    1        3.584   3.077  -0.082  0.00  0.00    +0.420 HD
ATOM      4  O   LIG    1        4.765   0.231   0.061  0.00  0.00    -0.510 OA
ENDROOT
BRANCH   2   5
ATOM      5  C   LIG    1        2.382   1.406  -0.022  0.00  0.00    +0.200 A 
ATOM      6  C   LIG    1        1.260   1.954   0.600  0.00  0.00    -0.020 A 
ATOM      7  C   LIG    1        0.075   1.278   0.608  0.00  0.00    +0.110 A 
ATOM      8  C   LIG    1       -0.016   0.027  -0.013  0.00  0.00    -0.170 A 
ATOM      9  C   LIG    1       -1.276  -0.720  -0.021  0.00  0.00    +0.030 A 
ATOM     10  C   LIG    1       -1.301  -1.929  -0.641  0.00  0.00    -0.100 A 
ATOM     11  C   LIG    1       -0.132  -2.429  -1.252  0.00  0.00    +0.510 A 
ATOM     12  O   LIG    1        1.018  -1.736  -1.246  0.00  0.00    -0.270 OA
ATOM     13  O   LIG    1       -0.169  -3.514  -1.804  0.00  0.00    -0.460 OA
ATOM     14  C   LIG    1       -2.510  -0.163   0.639  0.00  0.00    +0.120 C 
ATOM     15  C   LIG    1        1.112  -0.532  -0.643  0.00  0.00    +0.170 A 
ATOM     16  C   LIG    1        2.309   0.167  -0.641  0.00  0.00    +0.020 A 
ENDBRANCH   2   5
BRANCH   1  17
ATOM     17  C   LIG    1        6.051   2.206   0.172  0.00  0.00    +0.080 C 
BRANCH  17  18
ATOM     18  C   LIG    1        7.218   1.220   0.257  0.00  0.00    +0.170 C 
BRANCH  18  22
ATOM     19  C   LIG    1       10.328   3.074   1.115  0.00  0.00    -0.280 A 
ATOM     20  C   LIG    1       10.353   3.034  -0.253  0.00  0.00    +0.090 A 
ATOM     21  O   LIG    1        9.270   2.377  -0.674  0.00  0.00    -0.170 OA
ATOM     22  C   LIG    1        8.514   1.982   0.362  0.00  0.00    -0.010 A 
ATOM     23  C   LIG    1       11.424   3.626  -1.133  0.00  0.00    +0.190 C 
ATOM     24  C   LIG    1        9.096   2.369   1.506  0.00  0.00    -0.010 A 
BRANCH  19  26
ATOM     25  C   LIG    1       11.127   3.636   3.497  0.00  0.00    +0.080 C 
ATOM     26  C   LIG    1       11.319   3.689   2.003  0.00  0.00    +0.420 C 
ATOM     27  O   LIG    1       12.293   4.240   1.536  0.00  0.00    -0.470 OA
ENDBRANCH  19  26
ENDBRANCH  18  22
ENDBRANCH  17  18
ENDBRANCH   1  17
TORSDOF 5
