REMARK  Name = ZINCrD0000074zXi.0
REMARK                            x       y       z     vdW  Elec       q    Type
REMARK                         _______ _______ _______ _____ _____    ______ ____
ROOT
ATOM      1  C   LIG    1        1.709  -1.884  -0.025  0.00  0.00    +0.410 C 
ENDROOT
BRANCH   1   5
ATOM      2  C   LIG    1        1.207   1.675  -0.001  0.00  0.00    +0.210 A 
ATOM      3  N   LIG    1       -0.014   1.209   0.009  0.00  0.00    -0.360 NA
ATOM      4  O   LIG    1        0.002  -0.004   0.002  0.00  0.00    +0.100 OA
ATOM      5  C   LIG    1        1.264  -0.445  -0.012  0.00  0.00    +0.180 A 
ATOM      6  N   LIG    1        2.041   0.610  -0.014  0.00  0.00    -0.440 NA
BRANCH   2  11
ATOM      7  C   LIG    1        2.756   7.224   0.014  0.00  0.00    +0.110 C 
ATOM      8  C   LIG    1        2.350   5.773   0.010  0.00  0.00    -0.100 A 
ATOM      9  C   LIG    1        3.319   4.786  -0.005  0.00  0.00    +0.050 A 
ATOM     10  C   LIG    1        2.953   3.455  -0.003  0.00  0.00    +0.060 A 
ATOM     11  C   LIG    1        1.605   3.105   0.003  0.00  0.00    -0.000 A 
ATOM     12  C   LIG    1        0.631   4.101   0.018  0.00  0.00    +0.030 A 
ATOM     13  C   LIG    1        1.007   5.431   0.021  0.00  0.00    +0.100 A 
ATOM     14  F   LIG    1        0.065   6.399   0.035  0.00  0.00    -0.130 F 
ENDBRANCH   2  11
ENDBRANCH   1   5
BRANCH   1  15
ATOM     15  O   LIG    1        1.866  -2.355   1.340  0.00  0.00    -0.350 OA
BRANCH  15  16
ATOM     16  C   LIG    1        2.261  -3.627   1.504  0.00  0.00    +0.470 C 
ATOM     17  O   LIG    1        2.469  -4.324   0.540  0.00  0.00    -0.480 OA
BRANCH  16  18
ATOM     18  C   LIG    1        2.444  -4.185   2.892  0.00  0.00    +0.240 C 
BRANCH  18  19
ATOM     19  C   LIG    1        2.888  -5.622   2.800  0.00  0.00    +0.100 A 
ATOM     20  N   LIG    1        2.109  -6.666   2.767  0.00  0.00    -0.230 NA
ATOM     21  N   LIG    1        2.874  -7.834   2.678  0.00  0.00    -0.500 N 
ATOM     22  H   LIG    1        2.520  -8.736   2.637  0.00  0.00    +0.440 HD
ATOM     23  C   LIG    1        4.203  -7.499   2.663  0.00  0.00    +0.130 A 
ATOM     24  C   LIG    1        5.382  -8.236   2.591  0.00  0.00    -0.010 A 
ATOM     25  C   LIG    1        6.588  -7.592   2.596  0.00  0.00    +0.060 A 
ATOM     26  C   LIG    1        6.654  -6.206   2.672  0.00  0.00    -0.020 A 
ATOM     27  C   LIG    1        5.514  -5.458   2.743  0.00  0.00    +0.090 A 
ATOM     28  C   LIG    1        4.268  -6.094   2.739  0.00  0.00    -0.160 A 
ENDBRANCH  18  19
ENDBRANCH  16  18
ENDBRANCH  15  16
ENDBRANCH   1  15
TORSDOF 6
