REMARK  Name = ZINCrD0000074zXi.1
REMARK                            x       y       z     vdW  Elec       q    Type
REMARK                         _______ _______ _______ _____ _____    ______ ____
ROOT
ATOM      1  C   LIG    1        7.067   1.254  -3.103  0.00  0.00    +0.420 C 
ENDROOT
BRANCH   1   5
ATOM      2  C   LIG    1       10.422  -0.022  -3.275  0.00  0.00    +0.220 A 
ATOM      3  N   LIG    1       10.597   1.270  -3.379  0.00  0.00    -0.360 NA
ATOM      4  O   LIG    1        9.527   1.840  -3.335  0.00  0.00    +0.100 OA
ATOM      5  C   LIG    1        8.540   0.950  -3.196  0.00  0.00    +0.180 A 
ATOM      6  N   LIG    1        9.093  -0.236  -3.151  0.00  0.00    -0.440 NA
BRANCH   2  11
ATOM      7  C   LIG    1       14.543  -4.048  -3.311  0.00  0.00    +0.110 C 
ATOM      8  C   LIG    1       13.466  -2.994  -3.302  0.00  0.00    -0.090 A 
ATOM      9  C   LIG    1       12.140  -3.365  -3.173  0.00  0.00    +0.050 A 
ATOM     10  C   LIG    1       11.149  -2.404  -3.159  0.00  0.00    +0.060 A 
ATOM     11  C   LIG    1       11.485  -1.058  -3.285  0.00  0.00    -0.010 A 
ATOM     12  C   LIG    1       12.822  -0.687  -3.415  0.00  0.00    +0.030 A 
ATOM     13  C   LIG    1       13.807  -1.657  -3.423  0.00  0.00    +0.100 A 
ATOM     14  F   LIG    1       15.104  -1.300  -3.549  0.00  0.00    -0.130 F 
ENDBRANCH   2  11
ENDBRANCH   1   5
BRANCH   1  15
ATOM     15  O   LIG    1        6.700   1.448  -1.712  0.00  0.00    -0.350 OA
BRANCH  15  16
ATOM     16  C   LIG    1        5.413   1.729  -1.454  0.00  0.00    +0.470 C 
ATOM     17  O   LIG    1        4.619   1.811  -2.362  0.00  0.00    -0.480 OA
BRANCH  16  18
ATOM     18  C   LIG    1        4.958   1.942  -0.034  0.00  0.00    +0.220 C 
BRANCH  18  19
ATOM     19  C   LIG    1        3.481   2.241  -0.019  0.00  0.00    +0.110 A 
ATOM     20  C   LIG    1        2.462   1.307  -0.014  0.00  0.00    -0.180 A 
ATOM     21  C   LIG    1        2.405  -0.103  -0.021  0.00  0.00    +0.070 A 
ATOM     22  C   LIG    1        1.199  -0.724  -0.013  0.00  0.00    -0.030 A 
ATOM     23  C   LIG    1        0.002  -0.004   0.002  0.00  0.00    +0.050 A 
ATOM     24  C   LIG    1       -0.016   1.352   0.009  0.00  0.00    +0.030 A 
ATOM     25  C   LIG    1        1.201   2.066   0.002  0.00  0.00    +0.100 A 
ATOM     26  N   LIG    1        1.528   3.346   0.006  0.00  0.00    -0.290 NA
ATOM     27  N   LIG    1        2.923   3.459  -0.007  0.00  0.00    -0.410 N 
ATOM     28  H   LIG    1        3.413   4.296  -0.006  0.00  0.00    +0.440 HD
ENDBRANCH  18  19
ENDBRANCH  16  18
ENDBRANCH  15  16
ENDBRANCH   1  15
TORSDOF 6
