REMARK  Name = ZINCvU0000000FiE.0
REMARK                            x       y       z     vdW  Elec       q    Type
REMARK                         _______ _______ _______ _____ _____    ______ ____
ROOT
ATOM      1  C   LIG    1       -4.450   2.953   0.391  0.00  0.00    +0.540 C 
ATOM      2  O   LIG    1       -4.575   4.162   0.333  0.00  0.00    -0.490 OA
ENDROOT
BRANCH   1   3
ATOM      3  C   LIG    1       -3.116   2.361   0.521  0.00  0.00    -0.240 A 
ATOM      4  C   LIG    1       -1.945   3.064   0.586  0.00  0.00    +0.130 A 
ATOM      5  C   LIG    1       -0.822   2.294   0.707  0.00  0.00    +0.070 A 
ATOM      6  C   LIG    1       -1.052   0.947   0.742  0.00  0.00    -0.130 A 
ATOM      7  S   LIG    1       -2.778   0.637   0.610  0.00  0.00    +0.260 S 
BRANCH   6   8
ATOM      8  C   LIG    1       -0.013  -0.088   0.866  0.00  0.00    +0.170 A 
ATOM      9  N   LIG    1        1.256   0.145   0.951  0.00  0.00    -0.440 NA
ATOM     10  C   LIG    1        2.082  -0.901   1.054  0.00  0.00    +0.080 A 
ATOM     11  C   LIG    1        3.491  -0.909   1.159  0.00  0.00    +0.080 A 
ATOM     12  C   LIG    1        4.171  -2.083   1.256  0.00  0.00    +0.030 A 
ATOM     13  C   LIG    1        3.498  -3.297   1.253  0.00  0.00    +0.050 A 
ATOM     14  C   LIG    1        2.125  -3.323   1.152  0.00  0.00    +0.060 A 
ATOM     15  C   LIG    1        1.410  -2.131   1.052  0.00  0.00    -0.170 A 
ATOM     16  S   LIG    1       -0.318  -1.819   0.911  0.00  0.00    +0.080 S 
ENDBRANCH   6   8
ENDBRANCH   1   3
BRANCH   1  17
ATOM     17  O   LIG    1       -5.539   2.159   0.336  0.00  0.00    -0.330 OA
BRANCH  17  18
ATOM     18  C   LIG    1       -6.828   2.815   0.207  0.00  0.00    +0.260 C 
BRANCH  18  20
ATOM     19  N   LIG    1       -9.206   2.155   0.045  0.00  0.00    -0.600 N 
ATOM     20  C   LIG    1       -7.918   1.776   0.162  0.00  0.00    +0.520 C 
ATOM     21  O   LIG    1       -7.636   0.598   0.232  0.00  0.00    -0.510 OA
BRANCH  19  23
ATOM     22  C   LIG    1      -10.140   3.879  -1.417  0.00  0.00    +0.030 C 
ATOM     23  C   LIG    1       -9.546   3.577  -0.039  0.00  0.00    +0.210 C 
ATOM     24  C   LIG    1      -10.570   3.922   1.044  0.00  0.00    +0.020 C 
ENDBRANCH  19  23
BRANCH  19  25
ATOM     25  C   LIG    1      -10.266   1.144   0.001  0.00  0.00    +0.340 C 
BRANCH  25  26
ATOM     26  C   LIG    1      -10.470   0.692  -1.422  0.00  0.00    -0.110 A 
ATOM     27  C   LIG    1      -11.476   1.253  -2.188  0.00  0.00    +0.010 A 
ATOM     28  C   LIG    1      -11.660   0.842  -3.495  0.00  0.00    -0.010 A 
ATOM     29  C   LIG    1      -10.846  -0.137  -4.033  0.00  0.00    +0.010 A 
ATOM     30  C   LIG    1       -9.844  -0.702  -3.266  0.00  0.00    +0.000 A 
ATOM     31  C   LIG    1       -9.656  -0.287  -1.960  0.00  0.00    +0.030 A 
ENDBRANCH  25  26
ENDBRANCH  19  25
ENDBRANCH  18  20
ENDBRANCH  17  18
ENDBRANCH   1  17
TORSDOF 8
