REMARK  Name = ZINCpe00000FUg0V.0
REMARK                            x       y       z     vdW  Elec       q    Type
REMARK                         _______ _______ _______ _____ _____    ______ ____
ROOT
ATOM      1  C   LIG    1       -1.299   1.927   0.019  0.00  0.00    -0.110 A 
ATOM      2  C   LIG    1       -1.322   3.325   0.032  0.00  0.00    +0.060 A 
ATOM      3  C   LIG    1       -2.529   3.991   0.037  0.00  0.00    +0.120 A 
ATOM      4  C   LIG    1       -3.716   3.279   0.039  0.00  0.00    -0.650 A 
ATOM      5  C   LIG    1       -3.702   1.895   0.030  0.00  0.00    +0.120 A 
ATOM      6  C   LIG    1       -2.502   1.215   0.021  0.00  0.00    +0.070 A 
ENDROOT
BRANCH   4   7
ATOM      7  S   LIG    1       -5.254   4.139   0.051  0.00  0.00    +2.690 S 
ATOM      8  O   LIG    1       -6.217   3.248  -0.494  0.00  0.00    -0.940 OA
ATOM      9  O   LIG    1       -4.997   5.429  -0.486  0.00  0.00    -0.940 OA
BRANCH   7  10
ATOM     10  N   LIG    1       -5.674   4.369   1.637  0.00  0.00    -1.000 NA
ATOM     11  C   LIG    1       -6.487   3.376   2.356  0.00  0.00    +0.270 C 
ATOM     12  C   LIG    1       -5.780   3.046   3.680  0.00  0.00    +0.220 C 
ATOM     13  O   LIG    1       -5.499   4.261   4.378  0.00  0.00    -0.370 OA
ATOM     14  C   LIG    1       -4.608   5.140   3.688  0.00  0.00    +0.220 C 
ATOM     15  C   LIG    1       -5.251   5.575   2.366  0.00  0.00    +0.270 C 
ENDBRANCH   7  10
ENDBRANCH   4   7
BRANCH   1  16
ATOM     16  C   LIG    1       -0.014   1.208   0.009  0.00  0.00    +0.410 C 
ATOM     17  O   LIG    1        0.002  -0.004   0.002  0.00  0.00    -0.420 OA
BRANCH  16  18
ATOM     18  C   LIG    1        1.280   1.980   0.001  0.00  0.00    +0.110 C 
BRANCH  18  19
ATOM     19  S   LIG    1        2.672   0.822  -0.019  0.00  0.00    +0.060 S 
BRANCH  19  25
ATOM     20  C   LIG    1        5.938   0.308  -0.052  0.00  0.00    +0.350 C 
ATOM     21  N   LIG    1        5.346   1.647  -0.040  0.00  0.00    -0.470 N 
ATOM     22  C   LIG    1        6.008   2.844  -0.041  0.00  0.00    +0.400 A 
ATOM     23  N   LIG    1        5.108   3.786  -0.028  0.00  0.00    -0.290 NA
ATOM     24  N   LIG    1        3.930   3.271  -0.024  0.00  0.00    -0.290 NA
ATOM     25  C   LIG    1        4.017   1.961  -0.026  0.00  0.00    +0.140 A 
ENDBRANCH  19  25
ENDBRANCH  18  19
ENDBRANCH  16  18
ENDBRANCH   1  16
TORSDOF 6
