REMARK  Name = ZINCpk00000KfKoV.1
REMARK                            x       y       z     vdW  Elec       q    Type
REMARK                         _______ _______ _______ _____ _____    ______ ____
ROOT
ATOM      1  C   LIG    1        4.648   1.426  -3.690  0.00  0.00    -0.030 C 
ATOM      2  C   LIG    1        4.750   0.122  -2.893  0.00  0.00    +0.050 C 
ATOM      3  C   LIG    1        4.345   0.385  -1.441  0.00  0.00    +0.180 C 
ATOM      4  N   LIG    1        2.969   0.898  -1.401  0.00  0.00    -0.530 NA
ATOM      5  C   LIG    1        2.858   2.174  -2.119  0.00  0.00    +0.170 C 
ATOM      6  C   LIG    1        3.218   1.965  -3.592  0.00  0.00    +0.030 C 
ENDROOT
BRANCH   1   7
ATOM      7  C   LIG    1        4.995   1.158  -5.156  0.00  0.00    +0.230 C 
BRANCH   7   9
ATOM      8  O   LIG    1        4.202   2.663  -6.791  0.00  0.00    -0.530 OA
ATOM      9  C   LIG    1        5.014   2.460  -5.914  0.00  0.00    +0.490 C 
ATOM     10  N   LIG    1        5.935   3.399  -5.617  0.00  0.00    -0.700 N 
ATOM     11  H   LIG    1        6.585   3.236  -4.916  0.00  0.00    +0.400 HD
BRANCH  10  12
ATOM     12  C   LIG    1        5.954   4.665  -6.354  0.00  0.00    +0.220 C 
ATOM     13  C   LIG    1        7.315   5.199  -6.805  0.00  0.00    +0.010 C 
ATOM     14  C   LIG    1        6.568   5.880  -5.655  0.00  0.00    +0.010 C 
ENDBRANCH  10  12
ENDBRANCH   7   9
BRANCH   7  15
ATOM     15  O   LIG    1        4.014   0.289  -5.726  0.00  0.00    -0.530 OA
ATOM     16  H   LIG    1        3.115   0.645  -5.706  0.00  0.00    +0.380 HD
ENDBRANCH   7  15
ENDBRANCH   1   7
BRANCH   4  17
ATOM     17  C   LIG    1        2.498   1.031  -0.016  0.00  0.00    +0.270 C 
BRANCH  17  18
ATOM     18  C   LIG    1        1.192   1.783   0.000  0.00  0.00    +0.110 A 
ATOM     19  N   LIG    1        1.199   3.096   0.007  0.00  0.00    -0.420 NA
ATOM     20  C   LIG    1        0.040   3.765   0.021  0.00  0.00    +0.080 A 
ATOM     21  C   LIG    1        0.013   5.170   0.029  0.00  0.00    +0.060 A 
ATOM     22  C   LIG    1       -1.181   5.822   0.043  0.00  0.00    +0.040 A 
ATOM     23  C   LIG    1       -2.383   5.116   0.050  0.00  0.00    +0.040 A 
ATOM     24  C   LIG    1       -2.396   3.756   0.043  0.00  0.00    +0.060 A 
ATOM     25  C   LIG    1       -1.182   3.047   0.029  0.00  0.00    +0.080 A 
ATOM     26  N   LIG    1       -1.163   1.710   0.017  0.00  0.00    -0.420 NA
ATOM     27  C   LIG    1       -0.013   1.076   0.008  0.00  0.00    +0.280 A 
ENDBRANCH  17  18
ENDBRANCH   4  17
TORSDOF 6
