REMARK  Name = ZINCpe000000Vcup.0
REMARK                            x       y       z     vdW  Elec       q    Type
REMARK                         _______ _______ _______ _____ _____    ______ ____
ROOT
ATOM      1  C   LIG    1       -0.903   1.709   3.695  0.00  0.00    +0.290 C 
ATOM      2  C   LIG    1        0.142   2.158   4.675  0.00  0.00    +0.520 C 
ATOM      3  N   LIG    1        1.442   1.903   4.519  0.00  0.00    -0.710 N 
ATOM      4  H   LIG    1        2.043   2.176   5.229  0.00  0.00    +0.410 HD
ATOM      5  C   LIG    1        2.021   1.243   3.357  0.00  0.00    +0.270 C 
ATOM      6  C   LIG    1        0.966   0.417   2.619  0.00  0.00    +0.280 C 
ATOM      7  O   LIG    1       -0.212   2.784   5.651  0.00  0.00    -0.530 OA
ATOM      8  N   LIG    1       -0.242   1.246   2.466  0.00  0.00    -0.620 N 
ATOM      9  C   LIG    1       -0.718   1.572   1.248  0.00  0.00    +0.540 C 
ATOM     10  O   LIG    1       -1.714   2.256   1.150  0.00  0.00    -0.470 OA
ENDROOT
BRANCH   1  11
ATOM     11  C   LIG    1       -1.712   0.562   4.305  0.00  0.00    +0.120 C 
BRANCH  11  12
ATOM     12  C   LIG    1       -2.831   0.185   3.370  0.00  0.00    +0.450 C 
ATOM     13  O   LIG    1       -2.968   0.772   2.323  0.00  0.00    -0.470 OA
BRANCH  12  15
ATOM     14  C   LIG    1       -4.731  -1.114   2.751  0.00  0.00    +0.270 C 
ATOM     15  O   LIG    1       -3.676  -0.804   3.700  0.00  0.00    -0.360 OA
ENDBRANCH  12  15
ENDBRANCH  11  12
ENDBRANCH   1  11
BRANCH   9  16
ATOM     16  C   LIG    1       -0.013   1.086   0.008  0.00  0.00    +0.080 C 
BRANCH  16  17
ATOM     17  S   LIG    1       -0.888   1.685  -1.458  0.00  0.00    +0.170 S 
BRANCH  17  18
ATOM     18  C   LIG    1        0.122   0.990  -2.724  0.00  0.00    +0.200 A 
ATOM     19  N   LIG    1       -0.083   1.129  -4.009  0.00  0.00    -0.450 NA
ATOM     20  C   LIG    1        0.892   0.459  -4.682  0.00  0.00    +0.030 A 
ATOM     21  C   LIG    1        1.170   0.267  -6.035  0.00  0.00    +0.080 A 
ATOM     22  C   LIG    1        2.264  -0.485  -6.408  0.00  0.00    +0.020 A 
ATOM     23  C   LIG    1        3.087  -1.049  -5.447  0.00  0.00    +0.050 A 
ATOM     24  C   LIG    1        2.823  -0.867  -4.104  0.00  0.00    +0.050 A 
ATOM     25  C   LIG    1        1.728  -0.115  -3.712  0.00  0.00    +0.010 A 
ATOM     26  O   LIG    1        1.220   0.243  -2.510  0.00  0.00    -0.220 OA
ENDBRANCH  17  18
ENDBRANCH  16  17
ENDBRANCH   9  16
TORSDOF 6
