REMARK  Name = ZINCkj000005mdeD.1
REMARK                            x       y       z     vdW  Elec       q    Type
REMARK                         _______ _______ _______ _____ _____    ______ ____
ROOT
ATOM      1  O   LIG    1        0.132   2.847   2.972  0.00  0.00    -0.470 OA
ATOM      2  C   LIG    1        0.342   2.313   1.900  0.00  0.00    +0.640 C 
ATOM      3  O   LIG    1       -0.576   1.582   1.257  0.00  0.00    -0.320 OA
ATOM      4  C   LIG    1       -0.013   1.086   0.008  0.00  0.00    +0.190 C 
ATOM      5  C   LIG    1        1.423   1.646  -0.003  0.00  0.00    +0.300 C 
ATOM      6  N   LIG    1        1.513   2.404   1.254  0.00  0.00    -0.560 N 
ENDROOT
BRANCH   6   7
ATOM      7  C   LIG    1        2.637   3.106   1.703  0.00  0.00    +0.160 A 
ATOM      8  C   LIG    1        3.799   3.119   0.942  0.00  0.00    -0.020 A 
ATOM      9  C   LIG    1        4.905   3.817   1.385  0.00  0.00    +0.040 A 
ATOM     10  C   LIG    1        4.861   4.493   2.590  0.00  0.00    +0.000 A 
ATOM     11  C   LIG    1        3.708   4.477   3.353  0.00  0.00    +0.040 A 
ATOM     12  C   LIG    1        2.596   3.785   2.913  0.00  0.00    +0.010 A 
ENDBRANCH   6   7
BRANCH   4  13
ATOM     13  C   LIG    1       -0.804   1.617  -1.189  0.00  0.00    +0.290 C 
BRANCH  13  14
ATOM     14  N   LIG    1       -2.181   1.106  -1.131  0.00  0.00    -0.390 N 
ATOM     15  C   LIG    1       -2.192  -0.356  -1.351  0.00  0.00    +0.250 C 
ATOM     16  C   LIG    1       -3.470  -0.683  -2.146  0.00  0.00    +0.090 C 
ATOM     17  C   LIG    1       -4.157   0.681  -2.385  0.00  0.00    +0.000 C 
ATOM     18  C   LIG    1       -2.990   1.689  -2.232  0.00  0.00    +0.280 C 
ATOM     19  H   LIG    1       -2.597   1.327  -0.238  0.00  0.00    +0.440 HD
BRANCH  17  20
ATOM     20  C   LIG    1       -4.753   0.747  -3.793  0.00  0.00    +0.210 C 
BRANCH  20  21
ATOM     21  O   LIG    1       -5.825  -0.192  -3.900  0.00  0.00    -0.570 OA
ATOM     22  H   LIG    1       -6.251  -0.204  -4.768  0.00  0.00    +0.400 HD
ENDBRANCH  20  21
ENDBRANCH  17  20
ENDBRANCH  13  14
ENDBRANCH   4  13
TORSDOF 5
