REMARK  Name = ZINCkj000005mdeD.0
REMARK                            x       y       z     vdW  Elec       q    Type
REMARK                         _______ _______ _______ _____ _____    ______ ____
ROOT
ATOM      1  O   LIG    1       -4.771   0.369   6.453  0.00  0.00    -0.470 OA
ATOM      2  C   LIG    1       -3.593   0.080   6.386  0.00  0.00    +0.640 C 
ATOM      3  O   LIG    1       -2.986  -0.253   5.238  0.00  0.00    -0.320 OA
ATOM      4  C   LIG    1       -1.581  -0.538   5.500  0.00  0.00    +0.190 C 
ATOM      5  C   LIG    1       -1.431  -0.325   7.019  0.00  0.00    +0.300 C 
ATOM      6  N   LIG    1       -2.782   0.064   7.453  0.00  0.00    -0.560 N 
ENDROOT
BRANCH   6   7
ATOM      7  C   LIG    1       -3.159   0.367   8.766  0.00  0.00    +0.160 A 
ATOM      8  C   LIG    1       -2.222   0.308   9.790  0.00  0.00    -0.020 A 
ATOM      9  C   LIG    1       -2.596   0.613  11.084  0.00  0.00    +0.040 A 
ATOM     10  C   LIG    1       -3.904   0.967  11.363  0.00  0.00    +0.000 A 
ATOM     11  C   LIG    1       -4.840   1.021  10.346  0.00  0.00    +0.040 A 
ATOM     12  C   LIG    1       -4.471   0.722   9.049  0.00  0.00    +0.010 A 
ENDBRANCH   6   7
BRANCH   4  13
ATOM     13  C   LIG    1       -0.684   0.433   4.731  0.00  0.00    +0.290 C 
BRANCH  13  14
ATOM     14  N   LIG    1       -0.879   0.241   3.287  0.00  0.00    -0.390 N 
ATOM     15  C   LIG    1       -2.254   0.645   2.899  0.00  0.00    +0.280 C 
ATOM     16  C   LIG    1       -2.126   0.926   1.380  0.00  0.00    +0.090 C 
ATOM     17  C   LIG    1       -0.729   1.579   1.267  0.00  0.00    +0.010 C 
ATOM     18  C   LIG    1        0.031   1.125   2.527  0.00  0.00    +0.280 C 
ATOM     19  H   LIG    1       -0.716  -0.723   3.039  0.00  0.00    +0.430 HD
BRANCH  17  20
ATOM     20  C   LIG    1       -0.013   1.086   0.008  0.00  0.00    +0.190 C 
BRANCH  20  21
ATOM     21  O   LIG    1       -0.704   1.559  -1.150  0.00  0.00    -0.570 OA
ATOM     22  H   LIG    1       -0.304   1.284  -1.986  0.00  0.00    +0.400 HD
ENDBRANCH  20  21
ENDBRANCH  17  20
ENDBRANCH  13  14
ENDBRANCH   4  13
TORSDOF 5
