REMARK  Name = ZINCrg000000o1R1.0
REMARK                            x       y       z     vdW  Elec       q    Type
REMARK                         _______ _______ _______ _____ _____    ______ ____
ROOT
ATOM      1  N   LIG    1       -0.016   1.344   0.009  0.00  0.00    -0.650 N 
ATOM      2  H   LIG    1        0.187   0.533   0.503  0.00  0.00    +0.420 HD
ATOM      3  C   LIG    1        0.932   1.925  -0.751  0.00  0.00    +0.590 C 
ATOM      4  O   LIG    1        0.652   2.886  -1.442  0.00  0.00    -0.500 OA
ENDROOT
BRANCH   3   5
ATOM      5  C   LIG    1        2.312   1.395  -0.746  0.00  0.00    +0.010 A 
ATOM      6  N   LIG    1        2.614   0.360   0.006  0.00  0.00    -0.160 NA
ATOM      7  N   LIG    1        3.796  -0.139   0.042  0.00  0.00    -0.330 N 
ATOM      8  C   LIG    1        4.806   0.375  -0.684  0.00  0.00    +0.480 A 
ATOM      9  C   LIG    1        4.568   1.492  -1.515  0.00  0.00    -0.020 A 
ATOM     10  O   LIG    1        5.919  -0.120  -0.624  0.00  0.00    -0.520 OA
ATOM     11  C   LIG    1        3.307   2.008  -1.546  0.00  0.00    +0.140 A 
BRANCH   7  12
ATOM     12  C   LIG    1        4.053  -1.298   0.901  0.00  0.00    +0.360 C 
BRANCH  12  13
ATOM     13  C   LIG    1        4.477  -0.818   2.291  0.00  0.00    +0.180 C 
BRANCH  13  14
ATOM     14  O   LIG    1        3.389  -0.125   2.907  0.00  0.00    -0.380 OA
ATOM     15  C   LIG    1        3.682   0.367   4.216  0.00  0.00    +0.210 C 
ENDBRANCH  13  14
ENDBRANCH  12  13
ENDBRANCH   7  12
ENDBRANCH   3   5
BRANCH   1  20
ATOM     16  C   LIG    1       -2.710   3.848   0.113  0.00  0.00    +0.150 A 
ATOM     17  C   LIG    1       -3.821   3.029   0.258  0.00  0.00    -0.090 A 
ATOM     18  C   LIG    1       -3.667   1.657   0.320  0.00  0.00    +0.070 A 
ATOM     19  C   LIG    1       -2.408   1.096   0.232  0.00  0.00    -0.040 A 
ATOM     20  C   LIG    1       -1.292   1.911   0.092  0.00  0.00    +0.190 A 
ATOM     21  C   LIG    1       -1.444   3.289   0.030  0.00  0.00    +0.000 A 
BRANCH  16  22
ATOM     22  O   LIG    1       -2.863   5.197   0.052  0.00  0.00    -0.290 OA
BRANCH  22  23
ATOM     23  C   LIG    1       -4.197   5.703   0.143  0.00  0.00    +0.290 C 
BRANCH  23  24
ATOM     24  C   LIG    1       -4.169   7.207   0.058  0.00  0.00    +0.460 C 
ATOM     25  O   LIG    1       -3.116   7.786  -0.069  0.00  0.00    -0.480 OA
BRANCH  24  26
ATOM     26  O   LIG    1       -5.315   7.904   0.122  0.00  0.00    -0.360 OA
BRANCH  26  28
ATOM     27  C   LIG    1       -6.611   9.966   0.124  0.00  0.00    +0.070 C 
ATOM     28  C   LIG    1       -5.213   9.350   0.033  0.00  0.00    +0.200 C 
ENDBRANCH  26  28
ENDBRANCH  24  26
ENDBRANCH  23  24
ENDBRANCH  22  23
ENDBRANCH  16  22
ENDBRANCH   1  20
TORSDOF 10
