REMARK  Name = ZINCkj00000GeNoZ.0
REMARK                            x       y       z     vdW  Elec       q    Type
REMARK                         _______ _______ _______ _____ _____    ______ ____
ROOT
ATOM      1  C   LIG    1       -1.439  -0.516   0.001  0.00  0.00    +0.220 C 
ATOM      2  C   LIG    1       -2.214  -0.208   1.284  0.00  0.00    +0.220 C 
ATOM      3  N   LIG    1       -1.498  -0.765   2.438  0.00  0.00    -0.500 N 
ATOM      4  C   LIG    1       -0.188  -0.117   2.572  0.00  0.00    +0.280 C 
ATOM      5  C   LIG    1        0.665  -0.422   1.339  0.00  0.00    +0.050 C 
ATOM      6  H   LIG    1       -1.370  -1.757   2.306  0.00  0.00    +0.430 HD
ATOM      7  H   LIG    1       -2.038  -0.607   3.276  0.00  0.00    +0.430 HD
ATOM      8  C   LIG    1       -0.044   0.110   0.090  0.00  0.00    +0.190 C 
ENDROOT
BRANCH   1  14
ATOM      9  C   LIG    1       -3.713   3.434  -1.847  0.00  0.00    +0.020 C 
ATOM     10  C   LIG    1       -3.221   2.016  -2.142  0.00  0.00    -0.010 C 
ATOM     11  C   LIG    1       -4.399   1.150  -2.595  0.00  0.00    +0.010 C 
ATOM     12  C   LIG    1       -3.910  -0.282  -2.831  0.00  0.00    +0.020 C 
ATOM     13  C   LIG    1       -3.278  -0.818  -1.544  0.00  0.00    +0.160 C 
ATOM     14  N   LIG    1       -2.156   0.044  -1.152  0.00  0.00    -0.490 NA
ATOM     15  C   LIG    1       -2.609   1.413  -0.875  0.00  0.00    +0.190 C 
ENDBRANCH   1  14
BRANCH   8  16
ATOM     16  C   LIG    1        0.751  -0.254  -1.137  0.00  0.00    +0.100 A 
ATOM     17  C   LIG    1        2.002   0.301  -1.329  0.00  0.00    -0.040 A 
ATOM     18  C   LIG    1        2.726  -0.041  -2.462  0.00  0.00    +0.070 A 
ATOM     19  C   LIG    1        2.161  -0.932  -3.362  0.00  0.00    -0.020 A 
ATOM     20  C   LIG    1        0.905  -1.446  -3.102  0.00  0.00    +0.270 A 
ATOM     21  N   LIG    1        0.247  -1.103  -2.012  0.00  0.00    -0.440 NA
ENDBRANCH   8  16
BRANCH   8  22
ATOM     22  O   LIG    1       -0.164   1.531   0.178  0.00  0.00    -0.540 OA
ATOM     23  H   LIG    1        0.683   1.994   0.237  0.00  0.00    +0.380 HD
ENDBRANCH   8  22
TORSDOF 3
