REMARK  Name = ZINCqH00000099ey.0
REMARK                            x       y       z     vdW  Elec       q    Type
REMARK                         _______ _______ _______ _____ _____    ______ ____
ROOT
ATOM      1  N   LIG    1        3.447   3.513  -0.595  0.00  0.00    -0.730 N 
ATOM      2  H   LIG    1        2.583   3.942  -0.499  0.00  0.00    +0.400 HD
ATOM      3  C   LIG    1        4.441   4.140  -1.256  0.00  0.00    +0.510 C 
ATOM      4  O   LIG    1        5.522   3.604  -1.376  0.00  0.00    -0.490 OA
ENDROOT
BRANCH   1   6
ATOM      5  C   LIG    1        4.256   2.329   1.387  0.00  0.00    +0.040 C 
ATOM      6  C   LIG    1        3.674   2.184  -0.021  0.00  0.00    +0.300 C 
BRANCH   6   7
ATOM      7  C   LIG    1        2.366   1.439   0.051  0.00  0.00    -0.050 A 
ATOM      8  C   LIG    1        1.178   2.137   0.161  0.00  0.00    +0.020 A 
ATOM      9  C   LIG    1       -0.023   1.452   0.227  0.00  0.00    +0.130 A 
ATOM     10  C   LIG    1       -0.034   0.068   0.182  0.00  0.00    -0.070 A 
ATOM     11  C   LIG    1        1.155  -0.629   0.071  0.00  0.00    +0.090 A 
ATOM     12 CL   LIG    1       -1.540  -0.792   0.265  0.00  0.00    -0.030 Cl
ATOM     13  F   LIG    1       -1.185   2.134   0.330  0.00  0.00    -0.120 F 
ATOM     14  C   LIG    1        2.355   0.056   0.005  0.00  0.00    -0.030 A 
ATOM     15 CL   LIG    1        3.848  -0.819  -0.134  0.00  0.00    -0.030 Cl
ENDBRANCH   6   7
ENDBRANCH   1   6
BRANCH   3  16
ATOM     16  C   LIG    1        4.208   5.507  -1.846  0.00  0.00    +0.160 C 
BRANCH  16  17
ATOM     17  C   LIG    1        5.466   5.981  -2.527  0.00  0.00    +0.120 A 
ATOM     18  N   LIG    1        6.525   5.228  -2.532  0.00  0.00    -0.160 NA
ATOM     19  N   LIG    1        7.719   5.610  -3.144  0.00  0.00    -0.540 N 
ATOM     20  H   LIG    1        8.478   5.007  -3.117  0.00  0.00    +0.440 HD
ATOM     21  C   LIG    1        7.846   6.797  -3.773  0.00  0.00    +0.530 A 
ATOM     22  C   LIG    1        6.692   7.704  -3.810  0.00  0.00    -0.130 A 
ATOM     23  C   LIG    1        6.749   8.946  -4.440  0.00  0.00    +0.090 A 
ATOM     24  C   LIG    1        5.636   9.757  -4.444  0.00  0.00    +0.030 A 
ATOM     25  C   LIG    1        4.460   9.351  -3.827  0.00  0.00    +0.050 A 
ATOM     26  C   LIG    1        4.380   8.129  -3.197  0.00  0.00    +0.040 A 
ATOM     27  O   LIG    1        8.898   7.111  -4.301  0.00  0.00    -0.520 OA
ATOM     28  C   LIG    1        5.493   7.287  -3.186  0.00  0.00    -0.050 A 
ENDBRANCH  16  17
ENDBRANCH   3  16
TORSDOF 4
