REMARK  Name = ZINCrH00000tj1hv.0
REMARK                            x       y       z     vdW  Elec       q    Type
REMARK                         _______ _______ _______ _____ _____    ______ ____
ROOT
ATOM      1  N   LIG    1       -1.092   3.549   0.027  0.00  0.00    -0.660 N 
ATOM      2  H   LIG    1       -0.214   3.956   0.099  0.00  0.00    +0.420 HD
ATOM      3  C   LIG    1       -1.214   2.207   0.018  0.00  0.00    +0.610 C 
ATOM      4  O   LIG    1       -2.319   1.696   0.012  0.00  0.00    -0.500 OA
ENDROOT
BRANCH   1   9
ATOM      5  C   LIG    1       -5.710   6.820  -0.361  0.00  0.00    +0.110 C 
ATOM      6  C   LIG    1       -4.483   5.951  -0.258  0.00  0.00    +0.010 A 
ATOM      7  C   LIG    1       -4.542   4.753   0.430  0.00  0.00    +0.020 A 
ATOM      8  C   LIG    1       -3.419   3.954   0.526  0.00  0.00    +0.090 A 
ATOM      9  C   LIG    1       -2.230   4.355  -0.069  0.00  0.00    +0.120 A 
ATOM     10  C   LIG    1       -2.173   5.562  -0.754  0.00  0.00    +0.110 A 
ATOM     11  C   LIG    1       -3.300   6.354  -0.851  0.00  0.00    -0.660 A 
BRANCH  11  12
ATOM     12  S   LIG    1       -3.230   7.882  -1.726  0.00  0.00    +2.700 S 
ATOM     13  O   LIG    1       -1.910   7.990  -2.239  0.00  0.00    -0.960 OA
ATOM     14  O   LIG    1       -3.816   8.858  -0.875  0.00  0.00    -0.960 OA
BRANCH  12  15
ATOM     15  N   LIG    1       -4.232   7.743  -3.037  0.00  0.00    -1.250 NA
ATOM     16  H   LIG    1       -4.333   8.486  -3.651  0.00  0.00    +0.420 HD
ATOM     17  H   LIG    1       -4.718   6.917  -3.191  0.00  0.00    +0.420 HD
ENDBRANCH  12  15
ENDBRANCH  11  12
ENDBRANCH   1   9
BRANCH   3  18
ATOM     18  C   LIG    1       -0.016   1.361   0.016  0.00  0.00    -0.080 A 
ATOM     19  C   LIG    1        0.003  -0.004   0.008  0.00  0.00    +0.070 A 
ATOM     20  C   LIG    1        1.352  -0.389   0.003  0.00  0.00    -0.020 A 
ATOM     21  C   LIG    1        2.089   0.744   0.008  0.00  0.00    +0.030 A 
ATOM     22  O   LIG    1        1.261   1.796   0.016  0.00  0.00    -0.160 OA
BRANCH  21  23
ATOM     23  C   LIG    1        3.595   0.811   0.006  0.00  0.00    +0.190 C 
BRANCH  23  24
ATOM     24  S   LIG    1        4.196   0.849  -1.705  0.00  0.00    -0.090 S 
BRANCH  24  25
ATOM     25  C   LIG    1        5.945   0.926  -1.509  0.00  0.00    -0.090 A 
ATOM     26  C   LIG    1        6.503   0.950  -0.236  0.00  0.00    -0.020 A 
ATOM     27  C   LIG    1        7.875   1.005  -0.086  0.00  0.00    +0.030 A 
ATOM     28  C   LIG    1        8.692   1.048  -1.201  0.00  0.00    +0.010 A 
ATOM     29  C   LIG    1        8.141   1.031  -2.469  0.00  0.00    +0.030 A 
ATOM     30  C   LIG    1        6.770   0.970  -2.626  0.00  0.00    +0.030 A 
ENDBRANCH  24  25
ENDBRANCH  23  24
ENDBRANCH  21  23
ENDBRANCH   3  18
TORSDOF 7
