REMARK  Name = ZINCrg00000b5xzw.0
REMARK                            x       y       z     vdW  Elec       q    Type
REMARK                         _______ _______ _______ _____ _____    ______ ____
ROOT
ATOM      1  C   LIG    1        6.889  -0.960  -0.936  0.00  0.00    +0.270 C 
ENDROOT
BRANCH   1   6
ATOM      2  C   LIG    1        4.733   1.191  -0.038  0.00  0.00    +0.600 C 
ATOM      3  N   LIG    1        4.686  -0.156  -0.044  0.00  0.00    -0.630 N 
ATOM      4  C   LIG    1        3.629  -1.179  -0.033  0.00  0.00    +0.290 C 
ATOM      5  C   LIG    1        4.610  -2.119  -0.753  0.00  0.00    +0.050 C 
ATOM      6  C   LIG    1        5.669  -1.250  -0.060  0.00  0.00    +0.230 C 
ATOM      7  O   LIG    1        5.806   1.761  -0.045  0.00  0.00    -0.510 OA
BRANCH   2  12
ATOM      8  C   LIG    1        1.183   2.057   0.002  0.00  0.00    +0.270 A 
ATOM      9  C   LIG    1        1.237   3.450   0.003  0.00  0.00    +0.250 A 
ATOM     10  N   LIG    1        2.404   4.068   0.000  0.00  0.00    -0.400 NA
ATOM     11  C   LIG    1        3.525   3.368  -0.015  0.00  0.00    +0.260 A 
ATOM     12  C   LIG    1        3.477   1.976  -0.021  0.00  0.00    +0.080 A 
ATOM     13  N   LIG    1        2.301   1.353  -0.013  0.00  0.00    -0.470 NA
BRANCH   8  15
ATOM     14  C   LIG    1        0.002  -0.004   0.002  0.00  0.00    +0.250 C 
ATOM     15  O   LIG    1       -0.017   1.425   0.010  0.00  0.00    -0.300 OA
ENDBRANCH   8  15
ENDBRANCH   2  12
ENDBRANCH   1   6
BRANCH   1  16
ATOM     16  N   LIG    1        7.759   0.004  -0.259  0.00  0.00    -0.710 N 
ATOM     17  H   LIG    1        7.512   0.351   0.613  0.00  0.00    +0.400 HD
ATOM     18  C   LIG    1        8.901   0.411  -0.847  0.00  0.00    +0.600 C 
ATOM     19  O   LIG    1        9.211  -0.024  -1.941  0.00  0.00    -0.580 OA
BRANCH  18  20
ATOM     20  C   LIG    1        9.770   1.375  -0.170  0.00  0.00    -0.320 A 
ATOM     21  C   LIG    1       10.989   1.897  -0.646  0.00  0.00    +0.110 A 
ATOM     22  N   LIG    1       11.719   1.713  -1.782  0.00  0.00    -0.480 N 
ATOM     23  H   LIG    1       11.399   1.104  -2.466  0.00  0.00    +0.430 HD
ATOM     24  C   LIG    1       12.878   2.368  -1.964  0.00  0.00    +0.310 A 
ATOM     25  C   LIG    1       13.359   3.231  -1.026  0.00  0.00    -0.040 A 
ATOM     26  C   LIG    1       12.657   3.456   0.151  0.00  0.00    +0.190 A 
ATOM     27  C   LIG    1       11.448   2.783   0.356  0.00  0.00    +0.020 A 
ATOM     28  N   LIG    1       10.551   2.780   1.359  0.00  0.00    -0.510 NA
ATOM     29  C   LIG    1        9.554   1.974   1.086  0.00  0.00    +0.320 A 
ENDBRANCH  18  20
ENDBRANCH   1  16
TORSDOF 5
