REMARK  Name = ZINCrH00000tj1hz.0
REMARK                            x       y       z     vdW  Elec       q    Type
REMARK                         _______ _______ _______ _____ _____    ______ ____
ROOT
ATOM      1  C   LIG    1        1.447  -2.063  -0.490  0.00  0.00    +0.520 C 
ATOM      2  O   LIG    1        2.554  -2.557  -0.577  0.00  0.00    -0.490 OA
ENDROOT
BRANCH   1  14
ATOM      3  C   LIG    1        3.795  -0.474   0.053  0.00  0.00    +0.150 C 
ATOM      4  C   LIG    1        2.435   0.175   0.023  0.00  0.00    +0.230 A 
ATOM      5  N   LIG    1        2.336   1.460   0.245  0.00  0.00    -0.480 NA
ATOM      6  C   LIG    1        1.153   2.088   0.231  0.00  0.00    +0.190 A 
ATOM      7  C   LIG    1        1.069   3.468   0.472  0.00  0.00    +0.000 A 
ATOM      8  C   LIG    1       -0.147   4.087   0.452  0.00  0.00    +0.140 A 
ATOM      9  C   LIG    1       -1.316   3.369   0.195  0.00  0.00    -0.010 A 
ATOM     10  C   LIG    1       -1.273   2.029  -0.038  0.00  0.00    +0.110 A 
ATOM     11  F   LIG    1       -0.220   5.416   0.685  0.00  0.00    -0.130 F 
ATOM     12  C   LIG    1       -0.037   1.361  -0.030  0.00  0.00    -0.140 A 
ATOM     13  C   LIG    1        0.045  -0.021  -0.272  0.00  0.00    +0.190 A 
ATOM     14  C   LIG    1        1.302  -0.615  -0.243  0.00  0.00    -0.190 A 
ENDBRANCH   1  14
BRANCH   1  15
ATOM     15  O   LIG    1        0.352  -2.837  -0.620  0.00  0.00    -0.330 OA
BRANCH  15  16
ATOM     16  C   LIG    1        0.569  -4.252  -0.861  0.00  0.00    +0.270 C 
BRANCH  16  17
ATOM     17  C   LIG    1       -0.760  -4.952  -0.977  0.00  0.00    +0.520 C 
ATOM     18  N   LIG    1       -0.805  -6.280  -1.204  0.00  0.00    -0.720 N 
ATOM     19  H   LIG    1        0.018  -6.785  -1.292  0.00  0.00    +0.400 HD
ATOM     20  O   LIG    1       -1.790  -4.320  -0.867  0.00  0.00    -0.510 OA
BRANCH  18  21
ATOM     21  C   LIG    1       -2.098  -6.960  -1.317  0.00  0.00    +0.250 C 
ATOM     22  C   LIG    1       -2.603  -7.329   0.080  0.00  0.00    +0.000 C 
ATOM     23  C   LIG    1       -3.953  -8.040  -0.038  0.00  0.00    +0.020 C 
ATOM     24  C   LIG    1       -3.789  -9.311  -0.874  0.00  0.00    +0.010 C 
ATOM     25  C   LIG    1       -3.283  -8.942  -2.270  0.00  0.00    +0.000 C 
ATOM     26  C   LIG    1       -4.292  -8.012  -2.948  0.00  0.00    +0.020 C 
ATOM     27  C   LIG    1       -1.933  -8.231  -2.152  0.00  0.00    -0.010 C 
ATOM     28  C   LIG    1       -1.428  -7.862  -3.548  0.00  0.00    +0.020 C 
ENDBRANCH  18  21
ENDBRANCH  16  17
ENDBRANCH  15  16
ENDBRANCH   1  15
TORSDOF 5
