REMARK  Name = ZINCrD0000074rkA.0
REMARK                            x       y       z     vdW  Elec       q    Type
REMARK                         _______ _______ _______ _____ _____    ______ ____
ROOT
ATOM      1  N   LIG    1        2.166   2.842   2.170  0.00  0.00    -0.720 N 
ATOM      2  H   LIG    1        1.656   3.650   2.005  0.00  0.00    +0.400 HD
ATOM      3  C   LIG    1        3.513   2.882   2.156  0.00  0.00    +0.590 C 
ATOM      4  O   LIG    1        4.154   1.868   2.362  0.00  0.00    -0.550 OA
ENDROOT
BRANCH   3   5
ATOM      5  C   LIG    1        4.210   4.152   1.890  0.00  0.00    -0.230 A 
ATOM      6  C   LIG    1        5.562   4.354   1.848  0.00  0.00    +0.110 A 
ATOM      7  N   LIG    1        5.789   5.653   1.573  0.00  0.00    -0.430 N 
ATOM      8  C   LIG    1        4.607   6.322   1.440  0.00  0.00    +0.020 A 
ATOM      9  C   LIG    1        4.460   7.791   1.138  0.00  0.00    +0.120 C 
ATOM     10  C   LIG    1        6.618   3.302   2.068  0.00  0.00    +0.140 C 
ATOM     11  C   LIG    1        3.594   5.456   1.624  0.00  0.00    -0.030 A 
BRANCH   7  12
ATOM     12  C   LIG    1        7.115   6.261   1.441  0.00  0.00    +0.340 C 
BRANCH  12  13
ATOM     13  C   LIG    1        7.576   6.758   2.787  0.00  0.00    -0.120 A 
ATOM     14  C   LIG    1        7.283   8.049   3.185  0.00  0.00    +0.020 A 
ATOM     15  C   LIG    1        7.702   8.502   4.422  0.00  0.00    +0.010 A 
ATOM     16  C   LIG    1        8.422   7.668   5.257  0.00  0.00    +0.010 A 
ATOM     17  C   LIG    1        8.719   6.378   4.856  0.00  0.00    +0.010 A 
ATOM     18  C   LIG    1        8.296   5.923   3.622  0.00  0.00    +0.030 A 
ENDBRANCH  12  13
ENDBRANCH   7  12
ENDBRANCH   3   5
BRANCH   1  19
ATOM     19  C   LIG    1        1.473   1.579   2.434  0.00  0.00    +0.350 C 
BRANCH  19  24
ATOM     20  C   LIG    1       -4.217   2.457   2.334  0.00  0.00    +0.150 C 
ATOM     21  C   LIG    1       -2.728   2.226   2.355  0.00  0.00    +0.180 A 
ATOM     22  C   LIG    1       -2.102   1.795   1.234  0.00  0.00    -0.090 A 
ATOM     23  C   LIG    1       -0.718   1.572   1.248  0.00  0.00    +0.050 A 
ATOM     24  C   LIG    1       -0.016   1.805   2.394  0.00  0.00    -0.250 A 
ATOM     25  C   LIG    1       -0.697   2.258   3.537  0.00  0.00    +0.530 A 
ATOM     26  O   LIG    1       -0.081   2.470   4.569  0.00  0.00    -0.540 OA
ATOM     27  C   LIG    1       -0.013   1.086   0.008  0.00  0.00    +0.120 C 
ATOM     28  N   LIG    1       -2.028   2.457   3.494  0.00  0.00    -0.610 N 
ATOM     29  H   LIG    1       -2.491   2.769   4.287  0.00  0.00    +0.410 HD
ENDBRANCH  19  24
ENDBRANCH   1  19
TORSDOF 5
