REMARK  Name = ZINCvU0000000AgJ.0
REMARK                            x       y       z     vdW  Elec       q    Type
REMARK                         _______ _______ _______ _____ _____    ______ ____
ROOT
ATOM      1  N   LIG    1        2.296   5.553  -0.816  0.00  0.00    -0.510 NA
ATOM      2  C   LIG    1        2.356   4.292  -0.057  0.00  0.00    +0.480 C 
ATOM      3  N   LIG    1        3.422   3.463  -0.640  0.00  0.00    -0.720 N 
ATOM      4  H   LIG    1        4.052   2.990  -0.074  0.00  0.00    +0.420 HD
ATOM      5  C   LIG    1        3.501   3.374  -2.036  0.00  0.00    +0.240 A 
ATOM      6  C   LIG    1        4.305   2.408  -2.623  0.00  0.00    -0.050 A 
ATOM      7  C   LIG    1        4.384   2.321  -4.000  0.00  0.00    +0.100 A 
ATOM      8  C   LIG    1        3.663   3.199  -4.789  0.00  0.00    -0.140 A 
ATOM      9  C   LIG    1        2.861   4.163  -4.205  0.00  0.00    +0.110 A 
ATOM     10 BR   LIG    1        3.773   3.081  -6.673  0.00  0.00    -0.050 Br
ATOM     11  C   LIG    1        2.776   4.254  -2.828  0.00  0.00    -0.150 A 
ATOM     12  C   LIG    1        1.895   5.306  -2.206  0.00  0.00    +0.250 C 
ENDROOT
BRANCH   2  13
ATOM     13  C   LIG    1        1.036   3.572  -0.160  0.00  0.00    -0.150 A 
ATOM     14  C   LIG    1        0.744   2.822  -1.283  0.00  0.00    +0.100 A 
ATOM     15  C   LIG    1       -0.467   2.161  -1.378  0.00  0.00    +0.040 A 
ATOM     16  C   LIG    1       -1.383   2.246  -0.346  0.00  0.00    +0.120 A 
ATOM     17  C   LIG    1       -1.093   3.001   0.775  0.00  0.00    -0.040 A 
ATOM     18  C   LIG    1        0.117   3.662   0.869  0.00  0.00    +0.110 A 
BRANCH  17  19
ATOM     19  N   LIG    1       -2.076   3.097   1.877  0.00  0.00    +0.030 N 
ATOM     20  O   LIG    1       -3.143   2.515   1.794  0.00  0.00    -0.150 OA
ATOM     21  O   LIG    1       -1.819   3.758   2.867  0.00  0.00    -0.160 OA
ENDBRANCH  17  19
ENDBRANCH   2  13
BRANCH  12  22
ATOM     22  C   LIG    1        2.018   6.586  -2.991  0.00  0.00    -0.090 A 
ATOM     23  C   LIG    1        3.099   7.423  -2.784  0.00  0.00    +0.050 A 
ATOM     24  C   LIG    1        3.213   8.595  -3.507  0.00  0.00    +0.000 A 
ATOM     25  C   LIG    1        2.243   8.935  -4.431  0.00  0.00    +0.010 A 
ATOM     26  C   LIG    1        1.159   8.101  -4.633  0.00  0.00    +0.000 A 
ATOM     27  C   LIG    1        1.047   6.927  -3.913  0.00  0.00    +0.010 A 
ENDBRANCH  12  22
BRANCH   1  28
ATOM     28  C   LIG    1        1.391   6.513  -0.170  0.00  0.00    +0.270 C 
BRANCH  28  29
ATOM     29  C   LIG    1        2.068   7.106   1.039  0.00  0.00    +0.460 C 
ATOM     30  O   LIG    1        3.189   6.763   1.333  0.00  0.00    -0.480 OA
BRANCH  29  32
ATOM     31  C   LIG    1        2.139   8.542   2.939  0.00  0.00    +0.280 C 
ATOM     32  O   LIG    1        1.426   8.014   1.790  0.00  0.00    -0.360 OA
ENDBRANCH  29  32
ENDBRANCH  28  29
ENDBRANCH   1  28
TORSDOF 6
