REMARK  Name = ZINCtV000002zcgr.0
REMARK                            x       y       z     vdW  Elec       q    Type
REMARK                         _______ _______ _______ _____ _____    ______ ____
ROOT
ATOM      1  C   LIG    1       -4.025   1.701   0.517  0.00  0.00    +0.280 C 
ATOM      2  N   LIG    1       -3.358   2.879   1.077  0.00  0.00    -0.620 N 
ATOM      3  C   LIG    1       -3.929   3.560   2.089  0.00  0.00    +0.710 C 
ATOM      4  N   LIG    1       -5.116   3.158   2.587  0.00  0.00    -0.680 N 
ATOM      5  H   LIG    1       -5.519   2.334   2.272  0.00  0.00    +0.410 HD
ATOM      6  O   LIG    1       -3.375   4.538   2.553  0.00  0.00    -0.550 OA
ENDROOT
BRANCH   4   7
ATOM      7  C   LIG    1       -5.765   3.930   3.557  0.00  0.00    +0.170 A 
ATOM      8  C   LIG    1       -5.316   5.212   3.841  0.00  0.00    +0.020 A 
ATOM      9  C   LIG    1       -5.963   5.973   4.795  0.00  0.00    +0.020 A 
ATOM     10  C   LIG    1       -7.048   5.455   5.476  0.00  0.00    -0.020 A 
ATOM     11  C   LIG    1       -7.495   4.175   5.199  0.00  0.00    +0.030 A 
ATOM     12  C   LIG    1       -6.856   3.411   4.242  0.00  0.00    -0.110 A 
BRANCH  12  13
ATOM     13  C   LIG    1       -7.343   2.017   3.942  0.00  0.00    -0.030 C 
ATOM     14  C   LIG    1       -6.195   1.024   4.136  0.00  0.00    +0.030 C 
ATOM     15  C   LIG    1       -7.836   1.949   2.496  0.00  0.00    +0.040 C 
ATOM     16  C   LIG    1       -8.490   1.662   4.890  0.00  0.00    +0.040 C 
ENDBRANCH  12  13
ENDBRANCH   4   7
BRANCH   2  17
ATOM     17  C   LIG    1       -2.068   3.316   0.535  0.00  0.00    +0.360 C 
BRANCH  17  18
ATOM     18  C   LIG    1       -1.016   3.226   1.611  0.00  0.00    -0.080 A 
ATOM     19  C   LIG    1       -1.054   2.195   2.530  0.00  0.00    +0.030 A 
ATOM     20  C   LIG    1       -0.092   2.115   3.520  0.00  0.00    +0.020 A 
ATOM     21  C   LIG    1        0.915   3.062   3.583  0.00  0.00    -0.030 A 
ATOM     22  C   LIG    1        0.956   4.090   2.659  0.00  0.00    +0.030 A 
ATOM     23 CL   LIG    1        2.127   2.958   4.821  0.00  0.00    -0.070 Cl
ATOM     24  C   LIG    1       -0.010   4.172   1.673  0.00  0.00    +0.040 A 
ENDBRANCH  17  18
BRANCH  17  25
ATOM     25  C   LIG    1       -1.682   2.429  -0.620  0.00  0.00    -0.150 A 
ATOM     26  C   LIG    1       -1.389   2.979  -1.859  0.00  0.00    +0.090 A 
ATOM     27  C   LIG    1       -1.038   2.124  -2.893  0.00  0.00    -0.030 A 
ATOM     28  C   LIG    1       -0.992   0.764  -2.657  0.00  0.00    +0.270 A 
ATOM     29  N   LIG    1       -1.277   0.276  -1.465  0.00  0.00    -0.480 NA
ATOM     30  C   LIG    1       -1.610   1.058  -0.458  0.00  0.00    +0.270 A 
ENDBRANCH  17  25
ENDBRANCH   2  17
TORSDOF 5
