REMARK  Name = ZINCtV000002B1XE.0
REMARK                            x       y       z     vdW  Elec       q    Type
REMARK                         _______ _______ _______ _____ _____    ______ ____
ROOT
ATOM      1  C   LIG    1       -0.650  -2.660  -0.012  0.00  0.00    +0.030 C 
ENDROOT
BRANCH   1   2
ATOM      2  C   LIG    1        0.132  -2.858   1.261  0.00  0.00    -0.110 A 
ATOM      3  C   LIG    1       -0.514  -2.809   2.483  0.00  0.00    +0.050 A 
ATOM      4  C   LIG    1        0.202  -2.995   3.651  0.00  0.00    +0.020 A 
ATOM      5  C   LIG    1        1.565  -3.222   3.598  0.00  0.00    +0.030 A 
ATOM      6  C   LIG    1        2.211  -3.265   2.376  0.00  0.00    +0.020 A 
ATOM      7  C   LIG    1        1.494  -3.083   1.208  0.00  0.00    +0.040 A 
ENDBRANCH   1   2
BRANCH   1  10
ATOM      8  N   LIG    1       -1.381  -4.960  -0.556  0.00  0.00    -0.660 N 
ATOM      9  H   LIG    1       -0.478  -5.143  -0.859  0.00  0.00    +0.420 HD
ATOM     10  C   LIG    1       -1.709  -3.726  -0.123  0.00  0.00    +0.550 C 
ATOM     11  O   LIG    1       -2.857  -3.474   0.178  0.00  0.00    -0.490 OA
BRANCH   8  15
ATOM     12  C   LIG    1       -4.246  -7.990  -0.589  0.00  0.00    +0.130 A 
ATOM     13  C   LIG    1       -2.923  -8.290  -0.301  0.00  0.00    -0.040 A 
ATOM     14  C   LIG    1       -1.973  -7.287  -0.295  0.00  0.00    +0.050 A 
ATOM     15  C   LIG    1       -2.344  -5.978  -0.567  0.00  0.00    +0.110 A 
ATOM     16  C   LIG    1       -3.669  -5.677  -0.855  0.00  0.00    +0.090 A 
ATOM     17  C   LIG    1       -4.617  -6.681  -0.866  0.00  0.00    -0.050 A 
ATOM     18 CL   LIG    1       -6.274  -6.306  -1.226  0.00  0.00    -0.050 Cl
BRANCH  12  20
ATOM     19  C   LIG    1       -4.728 -10.302  -0.307  0.00  0.00    +0.240 C 
ATOM     20  O   LIG    1       -5.180  -8.979  -0.601  0.00  0.00    -0.300 OA
ENDBRANCH  12  20
ENDBRANCH   8  15
ENDBRANCH   1  10
BRANCH   1  21
ATOM     21  S   LIG    1       -1.435  -1.030   0.009  0.00  0.00    +0.120 S 
BRANCH  21  22
ATOM     22  C   LIG    1       -0.004  -0.001  -0.011  0.00  0.00    +0.070 A 
ATOM     23  N   LIG    1       -0.025   1.289  -0.004  0.00  0.00    -0.440 NA
ATOM     24  C   LIG    1        1.157   1.937  -0.021  0.00  0.00    +0.090 A 
ATOM     25  C   LIG    1        1.401   3.327  -0.018  0.00  0.00    +0.080 A 
ATOM     26  C   LIG    1        2.687   3.807  -0.038  0.00  0.00    +0.030 A 
ATOM     27  C   LIG    1        3.765   2.935  -0.060  0.00  0.00    +0.040 A 
ATOM     28  C   LIG    1        3.550   1.574  -0.063  0.00  0.00    +0.060 A 
ATOM     29  C   LIG    1        2.253   1.070  -0.043  0.00  0.00    -0.180 A 
ATOM     30  S   LIG    1        1.653  -0.587  -0.041  0.00  0.00    +0.070 S 
ENDBRANCH  21  22
ENDBRANCH   1  21
TORSDOF 6
