REMARK  Name = ZINCvU00000007fr.2
REMARK                            x       y       z     vdW  Elec       q    Type
REMARK                         _______ _______ _______ _____ _____    ______ ____
ROOT
ATOM      1  C   LIG    1        5.778   4.055  -0.274  0.00  0.00    -0.430 A 
ATOM      2  C   LIG    1        5.847   2.724  -0.271  0.00  0.00    -0.130 A 
ATOM      3  S   LIG    1        4.210   2.086  -0.135  0.00  0.00    +0.170 S 
ATOM      4  C   LIG    1        3.577   3.729  -0.095  0.00  0.00    +0.340 A 
ATOM      5 CL   LIG    1        7.300   1.781  -0.381  0.00  0.00    +0.050 Cl
ATOM      6  N   LIG    1        4.565   4.568  -0.185  0.00  0.00    -0.450 NA
ENDROOT
BRANCH   4   7
ATOM      7  N   LIG    1        2.236   4.073   0.010  0.00  0.00    -0.500 N 
ATOM      8  C   LIG    1        1.182   3.178   0.227  0.00  0.00    +0.140 A 
ATOM      9  C   LIG    1        1.218   1.806   0.475  0.00  0.00    -0.030 A 
ATOM     10  C   LIG    1        0.047   1.105   0.670  0.00  0.00    +0.050 A 
ATOM     11  C   LIG    1       -1.173   1.754   0.614  0.00  0.00    -0.100 A 
ATOM     12  C   LIG    1       -1.217   3.115   0.368  0.00  0.00    +0.070 A 
ATOM     13  C   LIG    1       -2.450   0.983   0.827  0.00  0.00    +0.100 C 
ATOM     14  C   LIG    1       -0.047   3.818   0.169  0.00  0.00    -0.120 A 
ATOM     15  C   LIG    1        0.193   5.290  -0.134  0.00  0.00    +0.070 C 
ATOM     16  C   LIG    1       -0.453   5.608  -1.469  0.00  0.00    +0.190 C 
ATOM     17  N   LIG    1        0.236   6.671  -2.195  0.00  0.00    -0.530 NA
ATOM     18  C   LIG    1        1.629   6.271  -2.458  0.00  0.00    +0.160 C 
ATOM     19  C   LIG    1        2.371   6.274  -1.125  0.00  0.00    +0.060 C 
ATOM     20  C   LIG    1       -0.464   6.995  -3.445  0.00  0.00    +0.190 C 
ATOM     21  C   LIG    1        1.698   5.426  -0.088  0.00  0.00    +0.240 C 
ENDBRANCH   4   7
BRANCH   1  22
ATOM     22  S   LIG    1        7.215   5.067  -0.398  0.00  0.00    +2.600 S 
ATOM     23  O   LIG    1        8.302   4.279   0.067  0.00  0.00    -0.910 OA
ATOM     24  O   LIG    1        6.870   6.325   0.168  0.00  0.00    -0.910 OA
BRANCH  22  29
ATOM     25  C   LIG    1        8.208   6.051  -6.267  0.00  0.00    +0.090 C 
ATOM     26  C   LIG    1        7.960   5.806  -4.801  0.00  0.00    -0.020 A 
ATOM     27  C   LIG    1        7.160   6.673  -4.080  0.00  0.00    +0.000 A 
ATOM     28  C   LIG    1        6.933   6.447  -2.736  0.00  0.00    +0.140 A 
ATOM     29  C   LIG    1        7.505   5.355  -2.111  0.00  0.00    -0.660 A 
ATOM     30  C   LIG    1        8.309   4.491  -2.831  0.00  0.00    +0.130 A 
ATOM     31  C   LIG    1        8.533   4.714  -4.177  0.00  0.00    +0.000 A 
ENDBRANCH  22  29
ENDBRANCH   1  22
TORSDOF 3
