REMARK  Name = ZINCvU00000009R1.1
REMARK                            x       y       z     vdW  Elec       q    Type
REMARK                         _______ _______ _______ _____ _____    ______ ____
ROOT
ATOM      1  C   LIG    1        2.132   0.307  -5.197  0.00  0.00    +0.160 A 
ATOM      2  C   LIG    1        3.376   0.344  -4.588  0.00  0.00    -0.060 A 
ATOM      3  C   LIG    1        3.486   0.127  -3.226  0.00  0.00    +0.160 A 
ATOM      4  C   LIG    1        2.357  -0.127  -2.470  0.00  0.00    -0.690 A 
ATOM      5  C   LIG    1        1.113  -0.171  -3.071  0.00  0.00    +0.180 A 
ATOM      6  C   LIG    1        0.994   0.052  -4.435  0.00  0.00    +0.100 A 
ENDROOT
BRANCH   6   7
ATOM      7  N   LIG    1       -0.266   0.013  -5.045  0.00  0.00    -0.650 N 
ATOM      8  H   LIG    1       -0.415   0.487  -5.879  0.00  0.00    +0.420 HD
ATOM      9  C   LIG    1       -1.270  -0.682  -4.475  0.00  0.00    +0.560 C 
ATOM     10  O   LIG    1       -1.058  -1.355  -3.486  0.00  0.00    -0.500 OA
BRANCH   9  11
ATOM     11  C   LIG    1       -2.629  -0.625  -5.054  0.00  0.00    -0.110 A 
ATOM     12  C   LIG    1       -2.877   0.151  -6.187  0.00  0.00    +0.070 A 
ATOM     13  C   LIG    1       -4.147   0.195  -6.726  0.00  0.00    -0.030 A 
ATOM     14  C   LIG    1       -5.177  -0.520  -6.138  0.00  0.00    +0.080 A 
ATOM     15  C   LIG    1       -4.939  -1.288  -5.011  0.00  0.00    -0.030 A 
ATOM     16 CL   LIG    1       -6.236  -2.180  -4.281  0.00  0.00    -0.040 Cl
ATOM     17 CL   LIG    1       -4.455   1.153  -8.141  0.00  0.00    -0.040 Cl
ATOM     18  C   LIG    1       -3.671  -1.344  -4.466  0.00  0.00    +0.120 A 
ENDBRANCH   9  11
ENDBRANCH   6   7
BRANCH   4  19
ATOM     19  S   LIG    1        2.505  -0.404  -0.736  0.00  0.00    +2.690 S 
ATOM     20  O   LIG    1        1.361  -1.153  -0.349  0.00  0.00    -0.940 OA
ATOM     21  O   LIG    1        3.836  -0.848  -0.512  0.00  0.00    -0.950 OA
BRANCH  19  22
ATOM     22  N   LIG    1        2.373   1.070   0.009  0.00  0.00    -1.050 N 
ATOM     23  H   LIG    1        3.103   1.406   0.552  0.00  0.00    +0.430 HD
BRANCH  22  24
ATOM     24  C   LIG    1        1.207   1.829  -0.146  0.00  0.00    +0.130 A 
ATOM     25  C   LIG    1       -0.026   1.202  -0.228  0.00  0.00    +0.030 A 
ATOM     26  C   LIG    1       -1.175   1.954  -0.385  0.00  0.00    +0.010 A 
ATOM     27  C   LIG    1       -1.099   3.333  -0.450  0.00  0.00    +0.040 A 
ATOM     28  C   LIG    1        0.128   3.966  -0.369  0.00  0.00    -0.060 A 
ATOM     29  C   LIG    1        1.284   3.219  -0.217  0.00  0.00    +0.110 A 
BRANCH  29  30
ATOM     30  O   LIG    1        2.491   3.841  -0.136  0.00  0.00    -0.310 OA
ATOM     31  C   LIG    1        2.493   5.267  -0.216  0.00  0.00    +0.250 C 
ENDBRANCH  29  30
ENDBRANCH  22  24
ENDBRANCH  19  22
ENDBRANCH   4  19
BRANCH   1  33
ATOM     32  C   LIG    1        3.232   0.776  -7.253  0.00  0.00    +0.250 C 
ATOM     33  O   LIG    1        2.023   0.520  -6.535  0.00  0.00    -0.310 OA
ENDBRANCH   1  33
TORSDOF 7
