REMARK  Name = ZINCtV000002x36T.0
REMARK                            x       y       z     vdW  Elec       q    Type
REMARK                         _______ _______ _______ _____ _____    ______ ____
ROOT
ATOM      1  C   LIG    1        5.979   0.936  -0.049  0.00  0.00    +0.600 C 
ATOM      2  N   LIG    1        6.566   2.150  -0.048  0.00  0.00    -0.620 N 
ATOM      3  H   LIG    1        6.020   2.952  -0.038  0.00  0.00    +0.430 HD
ATOM      4  O   LIG    1        6.662  -0.070  -0.061  0.00  0.00    -0.440 OA
ENDROOT
BRANCH   1  10
ATOM      5  C   LIG    1        0.002  -0.004   0.002  0.00  0.00    +0.120 A 
ATOM      6  C   LIG    1       -0.017   1.388   0.010  0.00  0.00    -0.010 A 
ATOM      7  C   LIG    1        1.158   2.108   0.002  0.00  0.00    +0.070 A 
ATOM      8  C   LIG    1        2.380   1.446  -0.013  0.00  0.00    +0.050 A 
ATOM      9  O   LIG    1        3.659   1.873  -0.022  0.00  0.00    -0.190 OA
ATOM     10  C   LIG    1        4.514   0.829  -0.036  0.00  0.00    -0.040 A 
ATOM     11  C   LIG    1        3.815  -0.337  -0.036  0.00  0.00    -0.060 A 
ATOM     12  C   LIG    1        4.382  -1.733  -0.049  0.00  0.00    +0.150 C 
ATOM     13  C   LIG    1        2.402   0.038  -0.021  0.00  0.00    -0.100 A 
ATOM     14  C   LIG    1        1.205  -0.682  -0.014  0.00  0.00    +0.040 A 
BRANCH   5  15
ATOM     15  O   LIG    1       -1.167  -0.698   0.009  0.00  0.00    -0.310 OA
BRANCH  15  17
ATOM     16  C   LIG    1       -3.577  -0.881   0.031  0.00  0.00    +0.070 C 
ATOM     17  C   LIG    1       -2.375   0.066   0.025  0.00  0.00    +0.170 C 
ENDBRANCH  15  17
ENDBRANCH   5  15
ENDBRANCH   1  10
BRANCH   2  18
ATOM     18  C   LIG    1        7.946   2.251  -0.060  0.00  0.00    +0.340 A 
ATOM     19  N   LIG    1        8.756   1.250  -0.067  0.00  0.00    -0.460 NA
ATOM     20  C   LIG    1       10.080   1.510  -0.082  0.00  0.00    +0.120 A 
ATOM     21  C   LIG    1       11.157   0.599  -0.097  0.00  0.00    +0.110 A 
ATOM     22  C   LIG    1       12.444   1.044  -0.105  0.00  0.00    +0.030 A 
ATOM     23  C   LIG    1       12.723   2.409  -0.100  0.00  0.00    -0.090 A 
ATOM     24  C   LIG    1       11.684   3.324  -0.087  0.00  0.00    +0.110 A 
ATOM     25  C   LIG    1       10.365   2.879  -0.078  0.00  0.00    -0.170 A 
ATOM     26  S   LIG    1        8.841   3.764  -0.059  0.00  0.00    +0.090 S 
BRANCH  23  27
ATOM     27  S   LIG    1       14.393   2.969  -0.112  0.00  0.00    -0.080 S 
BRANCH  27  28
ATOM     28  C   LIG    1       15.342   1.423  -0.129  0.00  0.00    +0.430 C 
ATOM     29  F   LIG    1       15.014   0.687  -1.272  0.00  0.00    -0.180 F 
ATOM     30  F   LIG    1       15.034   0.675   1.012  0.00  0.00    -0.180 F 
ENDBRANCH  27  28
ENDBRANCH  23  27
ENDBRANCH   2  18
TORSDOF 6
