REMARK  Name = ZINCrD0000035oXo.0
REMARK                            x       y       z     vdW  Elec       q    Type
REMARK                         _______ _______ _______ _____ _____    ______ ____
ROOT
ATOM      1  C   LIG    1       -0.786   1.455   1.450  0.00  0.00    +0.260 C 
ATOM      2  C   LIG    1       -1.795   0.568   2.171  0.00  0.00    +0.010 C 
ATOM      3  C   LIG    1       -3.149   0.605   1.596  0.00  0.00    +0.010 C 
ATOM      4  C   LIG    1       -3.131   0.067   0.144  0.00  0.00    +0.270 C 
ATOM      5  N   LIG    1       -2.476   1.024  -0.720  0.00  0.00    -0.610 N 
ATOM      6  C   LIG    1       -1.026   0.991  -0.991  0.00  0.00    +0.280 C 
ATOM      7  C   LIG    1       -3.221   1.985  -1.300  0.00  0.00    +0.510 C 
ATOM      8  O   LIG    1       -2.697   2.801  -2.029  0.00  0.00    -0.520 OA
ATOM      9  C   LIG    1       -0.204   0.704   0.279  0.00  0.00    +0.010 C 
ENDROOT
BRANCH   1  11
ATOM     10  C   LIG    1        1.106   0.776   2.999  0.00  0.00    +0.310 C 
ATOM     11  N   LIG    1        0.287   1.820   2.379  0.00  0.00    -0.610 N 
ATOM     12  C   LIG    1        0.521   3.117   2.661  0.00  0.00    +0.590 C 
ATOM     13  O   LIG    1       -0.227   3.978   2.236  0.00  0.00    -0.520 OA
BRANCH  12  14
ATOM     14  C   LIG    1        1.676   3.491   3.481  0.00  0.00    -0.250 A 
ATOM     15  C   LIG    1        1.927   4.726   3.930  0.00  0.00    +0.140 A 
ATOM     16  C   LIG    1        3.096   4.865   4.709  0.00  0.00    -0.110 A 
ATOM     17  C   LIG    1        3.780   3.683   4.856  0.00  0.00    -0.270 A 
ATOM     18  S   LIG    1        5.229   3.938   5.834  0.00  0.00    +0.170 S 
ATOM     19  C   LIG    1        4.879   5.643   6.023  0.00  0.00    -0.040 A 
ATOM     20  C   LIG    1        3.770   5.973   5.402  0.00  0.00    +0.060 A 
ATOM     21  S   LIG    1        2.931   2.385   4.007  0.00  0.00    +0.230 S 
ENDBRANCH  12  14
ENDBRANCH   1  11
BRANCH   7  22
ATOM     22  C   LIG    1       -4.705   2.047  -1.044  0.00  0.00    +0.160 C 
BRANCH  22  23
ATOM     23  C   LIG    1       -5.298   3.205  -1.805  0.00  0.00    +0.080 A 
ATOM     24  N   LIG    1       -4.914   4.453  -1.725  0.00  0.00    -0.260 NA
ATOM     25  N   LIG    1       -5.713   5.213  -2.589  0.00  0.00    -0.480 N 
ATOM     26  H   LIG    1       -5.647   6.170  -2.733  0.00  0.00    +0.440 HD
ATOM     27  C   LIG    1       -6.593   4.379  -3.182  0.00  0.00    +0.240 A 
ATOM     28  C   LIG    1       -6.358   3.131  -2.715  0.00  0.00    -0.120 A 
ENDBRANCH  22  23
ENDBRANCH   7  22
TORSDOF 4
