REMARK  Name = ZINCrD0000035oXo.1
REMARK                            x       y       z     vdW  Elec       q    Type
REMARK                         _______ _______ _______ _____ _____    ______ ____
ROOT
ATOM      1  C   LIG    1       -0.223   1.185   0.065  0.00  0.00    +0.250 C 
ATOM      2  C   LIG    1       -1.286   1.558   1.093  0.00  0.00    +0.020 C 
ATOM      3  C   LIG    1       -1.127   0.689   2.316  0.00  0.00    +0.030 C 
ATOM      4  C   LIG    1       -0.210   1.380   3.341  0.00  0.00    +0.260 C 
ATOM      5  N   LIG    1        0.939   2.048   2.698  0.00  0.00    -0.610 N 
ATOM      6  C   LIG    1        1.690   1.445   1.621  0.00  0.00    +0.290 C 
ATOM      7  C   LIG    1        1.302   3.271   3.134  0.00  0.00    +0.510 C 
ATOM      8  O   LIG    1        2.242   3.842   2.623  0.00  0.00    -0.520 OA
ATOM      9  C   LIG    1        1.071   1.857   0.262  0.00  0.00    +0.000 C 
ENDROOT
BRANCH   1  11
ATOM     10  C   LIG    1       -1.028   2.922  -1.599  0.00  0.00    +0.300 C 
ATOM     11  N   LIG    1       -0.727   1.528  -1.267  0.00  0.00    -0.610 N 
ATOM     12  C   LIG    1       -0.913   0.560  -2.186  0.00  0.00    +0.590 C 
ATOM     13  O   LIG    1       -0.770  -0.608  -1.877  0.00  0.00    -0.520 OA
BRANCH  12  14
ATOM     14  C   LIG    1       -1.287   0.915  -3.557  0.00  0.00    -0.250 A 
ATOM     15  C   LIG    1       -1.624   0.037  -4.509  0.00  0.00    +0.140 A 
ATOM     16  C   LIG    1       -1.955   0.596  -5.763  0.00  0.00    -0.110 A 
ATOM     17  C   LIG    1       -1.858   1.966  -5.776  0.00  0.00    -0.270 A 
ATOM     18  S   LIG    1       -2.280   2.588  -7.375  0.00  0.00    +0.170 S 
ATOM     19  C   LIG    1       -2.579   0.977  -7.994  0.00  0.00    -0.040 A 
ATOM     20  C   LIG    1       -2.376   0.068  -7.069  0.00  0.00    +0.060 A 
ATOM     21  S   LIG    1       -1.351   2.550  -4.187  0.00  0.00    +0.230 S 
ENDBRANCH  12  14
ENDBRANCH   1  11
BRANCH   7  22
ATOM     22  C   LIG    1        0.540   3.928   4.256  0.00  0.00    +0.150 C 
BRANCH  22  23
ATOM     23  C   LIG    1        1.143   5.277   4.550  0.00  0.00    +0.100 A 
ATOM     24  C   LIG    1        0.855   6.436   3.912  0.00  0.00    -0.100 A 
ATOM     25  C   LIG    1        1.629   7.448   4.488  0.00  0.00    +0.230 A 
ATOM     26  N   LIG    1        2.355   6.917   5.438  0.00  0.00    -0.290 NA
ATOM     27  N   LIG    1        2.062   5.548   5.499  0.00  0.00    -0.470 N 
ATOM     28  H   LIG    1        2.453   4.908   6.114  0.00  0.00    +0.440 HD
ENDBRANCH  22  23
ENDBRANCH   7  22
TORSDOF 4
