REMARK  Name = ZINCvU0000000Ayx.0
REMARK                            x       y       z     vdW  Elec       q    Type
REMARK                         _______ _______ _______ _____ _____    ______ ____
ROOT
ATOM      1  C   LIG    1       -3.684   3.122   0.057  0.00  0.00    +0.290 C 
ATOM      2  C   LIG    1       -2.521   3.870   0.049  0.00  0.00    -0.090 C 
ENDROOT
BRANCH   2   3
ATOM      3  C   LIG    1       -1.215   3.197   0.032  0.00  0.00    +0.510 A 
ATOM      4  N   LIG    1       -1.176   1.879   0.018  0.00  0.00    -0.580 NA
ATOM      5  C   LIG    1       -0.015   1.217   0.009  0.00  0.00    +0.550 A 
ATOM      6  C   LIG    1        1.250   1.984   0.001  0.00  0.00    -0.220 A 
ATOM      7  C   LIG    1        1.163   3.361   0.009  0.00  0.00    +0.060 A 
ATOM      8  S   LIG    1        2.773   4.059  -0.003  0.00  0.00    +0.170 S 
ATOM      9  C   LIG    1        3.537   2.478  -0.019  0.00  0.00    -0.190 A 
ATOM     10  C   LIG    1        5.038   2.249  -0.035  0.00  0.00    +0.120 C 
ATOM     11  C   LIG    1        5.319   0.799   0.369  0.00  0.00    -0.010 C 
ATOM     12  C   LIG    1        6.793   0.475   0.118  0.00  0.00    +0.030 C 
ATOM     13  C   LIG    1        4.438  -0.131  -0.469  0.00  0.00    +0.020 C 
ATOM     14  C   LIG    1        2.982   0.023  -0.025  0.00  0.00    +0.110 C 
ATOM     15  C   LIG    1        2.625   1.503  -0.015  0.00  0.00    -0.030 A 
ATOM     16  O   LIG    1        0.002  -0.004   0.002  0.00  0.00    -0.480 OA
ATOM     17  N   LIG    1       -0.085   3.954   0.024  0.00  0.00    -0.590 N 
ATOM     18  H   LIG    1       -0.156   4.921   0.030  0.00  0.00    +0.420 HD
ENDBRANCH   2   3
BRANCH   1  20
ATOM     19  C   LIG    1       -5.214   4.781   1.005  0.00  0.00    +0.180 A 
ATOM     20  C   LIG    1       -4.941   3.769   0.073  0.00  0.00    -0.170 A 
ATOM     21  C   LIG    1       -5.986   3.402  -0.887  0.00  0.00    +0.020 A 
ATOM     22  C   LIG    1       -5.782   2.400  -1.839  0.00  0.00    +0.020 A 
ATOM     23  C   LIG    1       -6.782   2.084  -2.711  0.00  0.00    +0.040 A 
ATOM     24  C   LIG    1       -8.006   2.744  -2.663  0.00  0.00    +0.000 A 
ATOM     25  C   LIG    1       -8.239   3.723  -1.744  0.00  0.00    +0.040 A 
ATOM     26  C   LIG    1       -7.231   4.073  -0.831  0.00  0.00    -0.090 A 
ATOM     27  C   LIG    1       -7.436   5.079   0.132  0.00  0.00    +0.110 A 
ATOM     28  C   LIG    1       -6.457   5.413   1.013  0.00  0.00    -0.060 A 
BRANCH  19  30
ATOM     29  C   LIG    1       -4.610   6.183   2.823  0.00  0.00    +0.240 C 
ATOM     30  O   LIG    1       -4.266   5.146   1.902  0.00  0.00    -0.310 OA
ENDBRANCH  19  30
ENDBRANCH   1  20
BRANCH   2  31
ATOM     31  C   LIG    1       -2.590   5.300   0.058  0.00  0.00    +0.250 C 
ATOM     32  N   LIG    1       -2.644   6.435   0.065  0.00  0.00    -0.400 NA
ENDBRANCH   2  31
TORSDOF 4
