REMARK  Name = ZINCrg00001JduN7.0
REMARK                            x       y       z     vdW  Elec       q    Type
REMARK                         _______ _______ _______ _____ _____    ______ ____
ROOT
ATOM      1  C   LIG    1        2.091   0.808   0.457  0.00  0.00    +0.260 A 
ATOM      2  N   LIG    1        1.234   1.811   0.426  0.00  0.00    -0.290 NA
ATOM      3  N   LIG    1        0.054   1.387   0.722  0.00  0.00    -0.280 NA
ATOM      4  C   LIG    1        0.087   0.107   0.956  0.00  0.00    +0.190 A 
ATOM      5  C   LIG    1       -1.057  -0.796   1.339  0.00  0.00    +0.180 C 
ATOM      6  C   LIG    1       -0.632  -2.251   1.101  0.00  0.00    +0.070 C 
ATOM      7  C   LIG    1        0.761  -2.473   1.686  0.00  0.00    -0.120 C 
ATOM      8  C   LIG    1        1.849  -1.678   0.963  0.00  0.00    +0.330 C 
ATOM      9  C   LIG    1        1.116  -3.951   1.892  0.00  0.00    +0.310 C 
ATOM     10  N   LIG    1        1.691  -3.525   3.184  0.00  0.00    -0.650 N 
ATOM     11  C   LIG    1        2.636  -4.022   4.007  0.00  0.00    +0.540 C 
ATOM     12  O   LIG    1        2.911  -3.441   5.035  0.00  0.00    -0.530 OA
ATOM     13  C   LIG    1        0.816  -2.336   3.213  0.00  0.00    +0.300 C 
ATOM     14  N   LIG    1        1.378  -0.302   0.795  0.00  0.00    -0.460 N 
ENDROOT
BRANCH   1  20
ATOM     15  C   LIG    1        3.748   3.371  -0.245  0.00  0.00    +0.340 C 
ATOM     16  N   LIG    1        4.265   2.005  -0.129  0.00  0.00    -0.440 N 
ATOM     17  C   LIG    1        5.545   1.615  -0.301  0.00  0.00    +0.430 A 
ATOM     18  N   LIG    1        5.625   0.323  -0.123  0.00  0.00    -0.490 NA
ATOM     19  C   LIG    1        4.416  -0.164   0.173  0.00  0.00    +0.180 A 
ATOM     20  C   LIG    1        3.536   0.877   0.180  0.00  0.00    +0.030 A 
ENDBRANCH   1  20
BRANCH  11  21
ATOM     21  C   LIG    1        3.350  -5.300   3.649  0.00  0.00    +0.070 C 
BRANCH  21  22
ATOM     22  C   LIG    1        4.364  -5.641   4.743  0.00  0.00    +0.150 C 
BRANCH  22  23
ATOM     23  C   LIG    1        5.078  -6.918   4.385  0.00  0.00    -0.200 A 
ATOM     24  C   LIG    1        4.731  -8.187   4.709  0.00  0.00    +0.170 A 
ATOM     25  O   LIG    1        5.663  -8.985   4.170  0.00  0.00    +0.100 OA
ATOM     26  N   LIG    1        6.508  -8.349   3.584  0.00  0.00    -0.360 NA
ATOM     27  C   LIG    1        6.270  -7.070   3.639  0.00  0.00    +0.180 A 
ENDBRANCH  22  23
ENDBRANCH  21  22
ENDBRANCH  11  21
TORSDOF 4
