REMARK  Name = ZINCqH0000038Sff.0
REMARK                            x       y       z     vdW  Elec       q    Type
REMARK                         _______ _______ _______ _____ _____    ______ ____
ROOT
ATOM      1  C   LIG    1        5.999   2.258  -0.153  0.00  0.00    +0.280 C 
ENDROOT
BRANCH   1  13
ATOM      2  C   LIG    1        6.793  -0.411   0.142  0.00  0.00    +0.320 C 
ATOM      3  N   LIG    1        6.743   0.442   1.332  0.00  0.00    -0.550 N 
ATOM      4  C   LIG    1        7.078  -0.072   2.539  0.00  0.00    +0.550 A 
ATOM      5  C   LIG    1        7.011   0.829   3.700  0.00  0.00    -0.200 A 
ATOM      6  C   LIG    1        7.334   0.399   4.985  0.00  0.00    +0.100 A 
ATOM      7  C   LIG    1        7.253   1.285   6.037  0.00  0.00    -0.010 A 
ATOM      8  C   LIG    1        6.852   2.598   5.826  0.00  0.00    +0.060 A 
ATOM      9  C   LIG    1        6.528   3.042   4.563  0.00  0.00    +0.030 A 
ATOM     10  C   LIG    1        6.603   2.163   3.481  0.00  0.00    +0.150 A 
ATOM     11  N   LIG    1        6.293   2.558   2.221  0.00  0.00    -0.490 NA
ATOM     12  O   LIG    1        7.421  -1.233   2.659  0.00  0.00    -0.510 OA
ATOM     13  C   LIG    1        6.361   1.740   1.215  0.00  0.00    +0.390 A 
ENDBRANCH   1  13
BRANCH   1  14
ATOM     14  N   LIG    1        5.527   3.644  -0.043  0.00  0.00    -0.510 NA
BRANCH  14  15
ATOM     15  C   LIG    1        4.728   4.023  -1.216  0.00  0.00    +0.180 C 
BRANCH  15  16
ATOM     16  C   LIG    1        3.338   3.392  -1.111  0.00  0.00    +0.000 C 
ATOM     17  C   LIG    1        3.256   1.981  -1.716  0.00  0.00    -0.010 C 
ATOM     18  C   LIG    1        1.878   2.386  -2.271  0.00  0.00    +0.010 C 
ATOM     19  C   LIG    1        2.372   3.841  -2.220  0.00  0.00    +0.010 C 
ENDBRANCH  15  16
ENDBRANCH  14  15
BRANCH  14  20
ATOM     20  C   LIG    1        6.652   4.569   0.148  0.00  0.00    +0.230 C 
BRANCH  20  21
ATOM     21  C   LIG    1        6.125   5.936   0.500  0.00  0.00    -0.070 A 
ATOM     22  C   LIG    1        5.851   6.850  -0.500  0.00  0.00    +0.000 A 
ATOM     23  C   LIG    1        5.362   8.102  -0.177  0.00  0.00    +0.000 A 
ATOM     24  C   LIG    1        5.157   8.444   1.146  0.00  0.00    +0.000 A 
ATOM     25  C   LIG    1        5.436   7.532   2.147  0.00  0.00    +0.000 A 
ATOM     26  C   LIG    1        5.919   6.278   1.824  0.00  0.00    +0.040 A 
ENDBRANCH  20  21
ENDBRANCH  14  20
ENDBRANCH   1  14
TORSDOF 6
