REMARK  Name = ZINCpe00000VVH32.0
REMARK                            x       y       z     vdW  Elec       q    Type
REMARK                         _______ _______ _______ _____ _____    ______ ____
ROOT
ATOM      1  N   LIG    1       -0.365  -1.124   6.164  0.00  0.00    -0.540 NA
ATOM      2  C   LIG    1       -0.848  -2.387   6.744  0.00  0.00    +0.240 C 
ATOM      3  C   LIG    1        0.360  -3.263   7.075  0.00  0.00    +0.050 C 
ATOM      4  C   LIG    1        1.365  -2.473   7.874  0.00  0.00    -0.080 A 
ATOM      5  C   LIG    1        2.349  -3.164   8.566  0.00  0.00    -0.030 A 
ATOM      6  C   LIG    1        3.293  -2.479   9.310  0.00  0.00    +0.100 A 
ATOM      7  C   LIG    1        3.255  -1.089   9.361  0.00  0.00    +0.100 A 
ATOM      8  C   LIG    1        2.272  -0.405   8.670  0.00  0.00    -0.020 A 
ATOM      9  C   LIG    1        1.325  -1.095   7.927  0.00  0.00    -0.110 A 
ATOM     10  C   LIG    1        0.272  -0.302   7.198  0.00  0.00    +0.280 C 
ENDROOT
BRANCH   7  11
ATOM     11  O   LIG    1        4.180  -0.407  10.088  0.00  0.00    -0.310 OA
ATOM     12  C   LIG    1        4.078   1.018  10.094  0.00  0.00    +0.250 C 
ENDBRANCH   7  11
BRANCH   6  13
ATOM     13  O   LIG    1        4.255  -3.162   9.987  0.00  0.00    -0.310 OA
ATOM     14  C   LIG    1        4.231  -4.587   9.887  0.00  0.00    +0.240 C 
ENDBRANCH   6  13
BRANCH   1  15
ATOM     15  C   LIG    1        0.558  -1.376   5.049  0.00  0.00    +0.490 C 
BRANCH  15  19
ATOM     16  N   LIG    1       -0.020   1.094   2.454  0.00  0.00    -0.570 N 
ATOM     17  C   LIG    1        0.981   1.740   3.089  0.00  0.00    +0.510 C 
ATOM     18  C   LIG    1        1.370   0.848   4.231  0.00  0.00    +0.510 C 
ATOM     19  N   LIG    1        0.554  -0.225   4.142  0.00  0.00    -0.570 N 
ATOM     20  O   LIG    1        2.234   1.048   5.059  0.00  0.00    -0.410 OA
ATOM     21  O   LIG    1        1.465   2.813   2.799  0.00  0.00    -0.410 OA
ATOM     22  C   LIG    1       -0.265  -0.063   3.091  0.00  0.00    +0.710 C 
ATOM     23  O   LIG    1       -1.116  -0.862   2.756  0.00  0.00    -0.480 OA
BRANCH  16  25
ATOM     24  C   LIG    1       -0.013   1.086   0.008  0.00  0.00    +0.040 C 
ATOM     25  C   LIG    1       -0.729   1.579   1.267  0.00  0.00    +0.320 C 
ENDBRANCH  16  25
ENDBRANCH  15  19
ENDBRANCH   1  15
TORSDOF 5
