REMARK  Name = ZINCvU0000000IQS.0
REMARK                            x       y       z     vdW  Elec       q    Type
REMARK                         _______ _______ _______ _____ _____    ______ ____
ROOT
ATOM      1  N   LIG    1        0.133   2.070   1.038  0.00  0.00    -0.730 N 
ATOM      2  H   LIG    1       -0.343   2.913   0.991  0.00  0.00    +0.410 HD
ENDROOT
BRANCH   1   3
ATOM      3  C   LIG    1        0.389   1.480   2.278  0.00  0.00    +0.220 A 
ATOM      4  C   LIG    1        1.065   0.269   2.347  0.00  0.00    -0.080 A 
ATOM      5  C   LIG    1        1.321  -0.308   3.575  0.00  0.00    +0.070 A 
ATOM      6  C   LIG    1        0.896   0.313   4.735  0.00  0.00    -0.150 A 
ATOM      7  C   LIG    1        0.218   1.516   4.670  0.00  0.00    +0.060 A 
ATOM      8  C   LIG    1       -0.037   2.102   3.446  0.00  0.00    -0.070 A 
BRANCH   6   9
ATOM      9  C   LIG    1        1.172  -0.323   6.073  0.00  0.00    +0.200 C 
BRANCH   9  10
ATOM     10  C   LIG    1        0.030  -1.235   6.442  0.00  0.00    +0.110 A 
ATOM     11  N   LIG    1       -0.031  -2.474   6.130  0.00  0.00    -0.470 NA
ATOM     12  C   LIG    1       -1.112  -3.171   6.530  0.00  0.00    +0.080 A 
ATOM     13  C   LIG    1       -1.431  -4.529   6.332  0.00  0.00    +0.060 A 
ATOM     14  C   LIG    1       -2.594  -5.043   6.820  0.00  0.00    +0.030 A 
ATOM     15  C   LIG    1       -3.485  -4.242   7.520  0.00  0.00    +0.040 A 
ATOM     16  C   LIG    1       -3.199  -2.911   7.729  0.00  0.00    +0.060 A 
ATOM     17  C   LIG    1       -2.015  -2.369   7.237  0.00  0.00    -0.180 A 
ATOM     18  S   LIG    1       -1.347  -0.742   7.321  0.00  0.00    +0.100 S 
ENDBRANCH   9  10
ENDBRANCH   6   9
ENDBRANCH   1   3
BRANCH   1  19
ATOM     19  C   LIG    1        0.583   1.413  -0.192  0.00  0.00    +0.210 C 
ATOM     20  C   LIG    1        2.037   1.799  -0.473  0.00  0.00    +0.060 C 
BRANCH  19  21
ATOM     21  C   LIG    1       -0.285   1.852  -1.342  0.00  0.00    +0.420 C 
ATOM     22  O   LIG    1       -0.934   2.875  -1.257  0.00  0.00    -0.440 OA
BRANCH  21  27
ATOM     23  C   LIG    1       -0.852   0.319  -4.571  0.00  0.00    -0.260 A 
ATOM     24  C   LIG    1        0.040  -0.562  -3.974  0.00  0.00    +0.120 A 
ATOM     25  N   LIG    1        0.339  -0.105  -2.751  0.00  0.00    -0.520 N 
ATOM     26  H   LIG    1        0.941  -0.535  -2.123  0.00  0.00    +0.420 HD
ATOM     27  C   LIG    1       -0.344   1.073  -2.523  0.00  0.00    -0.100 A 
ATOM     28  C   LIG    1        0.581  -1.822  -4.599  0.00  0.00    +0.160 C 
ATOM     29  C   LIG    1       -1.097   1.355  -3.641  0.00  0.00    -0.010 A 
ATOM     30  C   LIG    1       -2.005   2.541  -3.837  0.00  0.00    +0.140 C 
BRANCH  23  32
ATOM     31  C   LIG    1       -0.779   0.878  -7.083  0.00  0.00    +0.070 C 
ATOM     32  C   LIG    1       -1.434   0.195  -5.911  0.00  0.00    +0.430 C 
ATOM     33  O   LIG    1       -2.443  -0.458  -6.076  0.00  0.00    -0.450 OA
ENDBRANCH  23  32
ENDBRANCH  21  27
ENDBRANCH  19  21
ENDBRANCH   1  19
TORSDOF 7
