REMARK  Name = ZINCrH00000tj19L.0
REMARK                            x       y       z     vdW  Elec       q    Type
REMARK                         _______ _______ _______ _____ _____    ______ ____
ROOT
ATOM      1  C   LIG    1        0.062   1.203   2.485  0.00  0.00    +0.510 C 
ATOM      2  N   LIG    1        0.315  -0.094   2.748  0.00  0.00    -0.660 N 
ATOM      3  H   LIG    1       -0.076  -0.787   2.193  0.00  0.00    +0.420 HD
ATOM      4  O   LIG    1        0.473   2.065   3.232  0.00  0.00    -0.450 OA
ENDROOT
BRANCH   1  10
ATOM      5  C   LIG    1       -1.127   0.719  -2.140  0.00  0.00    +0.650 C 
ATOM      6  N   LIG    1       -0.724   1.575  -1.180  0.00  0.00    -0.590 N 
ATOM      7  C   LIG    1       -0.991   3.014  -1.300  0.00  0.00    +0.290 C 
ATOM      8  C   LIG    1       -1.707   3.490  -0.032  0.00  0.00    +0.020 C 
ATOM      9  C   LIG    1       -0.875   3.105   1.194  0.00  0.00    +0.060 C 
ATOM     10  C   LIG    1       -0.733   1.583   1.262  0.00  0.00    -0.010 C 
ATOM     11  C   LIG    1       -0.009   1.085   0.007  0.00  0.00    +0.320 C 
ATOM     12  O   LIG    1       -0.900  -0.470  -2.029  0.00  0.00    -0.570 OA
BRANCH   5  13
ATOM     13  O   LIG    1       -1.780   1.181  -3.222  0.00  0.00    -0.370 OA
BRANCH  13  15
ATOM     14  C   LIG    1       -2.908   0.910  -5.364  0.00  0.00    +0.070 C 
ATOM     15  C   LIG    1       -2.185   0.203  -4.216  0.00  0.00    +0.220 C 
ENDBRANCH  13  15
ENDBRANCH   5  13
ENDBRANCH   1  10
BRANCH   2  16
ATOM     16  C   LIG    1        1.136  -0.440   3.817  0.00  0.00    +0.410 A 
ATOM     17  C   LIG    1        1.488  -1.769   4.035  0.00  0.00    -0.100 A 
ATOM     18  C   LIG    1        2.314  -2.062   5.119  0.00  0.00    +0.240 A 
ATOM     19  N   LIG    1        2.732  -1.066   5.900  0.00  0.00    -0.540 NA
ATOM     20  C   LIG    1        2.374   0.177   5.658  0.00  0.00    +0.540 A 
ATOM     21  N   LIG    1        1.600   0.495   4.641  0.00  0.00    -0.520 NA
BRANCH  18  22
ATOM     22  C   LIG    1        2.722  -3.461   5.399  0.00  0.00    -0.050 A 
ATOM     23  C   LIG    1        2.276  -4.496   4.579  0.00  0.00    +0.050 A 
ATOM     24  C   LIG    1        2.662  -5.795   4.841  0.00  0.00    +0.040 A 
ATOM     25  C   LIG    1        3.482  -6.071   5.921  0.00  0.00    -0.070 A 
ATOM     26  C   LIG    1        3.924  -5.047   6.741  0.00  0.00    +0.040 A 
ATOM     27 BR   LIG    1        4.002  -7.854   6.277  0.00  0.00    -0.040 Br
ATOM     28  C   LIG    1        3.548  -3.744   6.485  0.00  0.00    +0.090 A 
ENDBRANCH  18  22
ENDBRANCH   2  16
TORSDOF 5
