REMARK  Name = ZINCpe000000UwKj.0
REMARK                            x       y       z     vdW  Elec       q    Type
REMARK                         _______ _______ _______ _____ _____    ______ ____
ROOT
ATOM      1  C   LIG    1        4.456  -0.330   1.996  0.00  0.00    +0.560 C 
ATOM      2  N   LIG    1        3.116  -0.333   2.138  0.00  0.00    -0.720 N 
ATOM      3  H   LIG    1        2.716  -0.659   2.960  0.00  0.00    +0.400 HD
ATOM      4  O   LIG    1        4.957   0.080   0.967  0.00  0.00    -0.520 OA
ENDROOT
BRANCH   1   8
ATOM      5  C   LIG    1        6.928  -1.748   5.144  0.00  0.00    +0.180 A 
ATOM      6  C   LIG    1        5.545  -1.752   5.292  0.00  0.00    -0.010 A 
ATOM      7  C   LIG    1        4.741  -1.288   4.276  0.00  0.00    +0.110 A 
ATOM      8  C   LIG    1        5.315  -0.822   3.090  0.00  0.00    -0.140 A 
ATOM      9  C   LIG    1        6.705  -0.819   2.944  0.00  0.00    +0.180 A 
ATOM     10  C   LIG    1        7.504  -1.280   3.965  0.00  0.00    -0.030 A 
BRANCH   5  12
ATOM     11  C   LIG    1        7.534  -1.429   7.399  0.00  0.00    +0.230 C 
ATOM     12  N   LIG    1        7.738  -2.213   6.174  0.00  0.00    -0.510 N 
ATOM     13  C   LIG    1        7.508  -3.643   6.420  0.00  0.00    +0.230 C 
ENDBRANCH   5  12
BRANCH  10  14
ATOM     14  N   LIG    1        8.976  -1.277   3.812  0.00  0.00    +0.030 N 
ATOM     15  O   LIG    1        9.684  -1.684   4.716  0.00  0.00    -0.090 OA
ATOM     16  O   LIG    1        9.480  -0.868   2.781  0.00  0.00    -0.180 OA
ENDBRANCH  10  14
ENDBRANCH   1   8
BRANCH   2  17
ATOM     17  C   LIG    1        2.263   0.156   1.052  0.00  0.00    +0.250 C 
ATOM     18  C   LIG    1        0.880  -0.492   1.159  0.00  0.00    +0.020 C 
ATOM     19  C   LIG    1        0.002  -0.004   0.002  0.00  0.00    +0.300 C 
ATOM     20  N   LIG    1       -0.018   1.465   0.010  0.00  0.00    -1.000 NA
ATOM     21  C   LIG    1        1.261   2.189   0.002  0.00  0.00    +0.300 C 
ATOM     22  C   LIG    1        2.125   1.677   1.158  0.00  0.00    +0.000 C 
BRANCH  20  23
ATOM     23  S   LIG    1       -1.454   2.289   0.021  0.00  0.00    +2.610 S 
ATOM     24  O   LIG    1       -2.377   1.394  -0.584  0.00  0.00    -0.950 OA
ATOM     25  O   LIG    1       -1.145   3.540  -0.579  0.00  0.00    -0.950 OA
ATOM     26  C   LIG    1       -1.838   2.505   1.781  0.00  0.00    -0.280 C 
ENDBRANCH  20  23
ENDBRANCH   2  17
TORSDOF 5
