REMARK  Name = ZINCpe00000VVGd5.0
REMARK                            x       y       z     vdW  Elec       q    Type
REMARK                         _______ _______ _______ _____ _____    ______ ____
ROOT
ATOM      1  N   LIG    1        0.397   4.124   4.091  0.00  0.00    -0.390 N 
ATOM      2  C   LIG    1       -0.561   3.295   3.634  0.00  0.00    +0.300 A 
ATOM      3  N   LIG    1       -0.607   2.220   4.379  0.00  0.00    -0.490 NA
ATOM      4  C   LIG    1        0.318   2.295   5.339  0.00  0.00    +0.320 A 
ATOM      5  N   LIG    1        0.699   1.457   6.374  0.00  0.00    -0.510 N 
ATOM      6  C   LIG    1        0.022   0.171   6.561  0.00  0.00    +0.350 C 
ATOM      7  C   LIG    1        1.692   1.821   7.208  0.00  0.00    +0.710 A 
ATOM      8  O   LIG    1        2.012   1.072   8.111  0.00  0.00    -0.530 OA
ATOM      9  N   LIG    1        2.337   2.992   7.068  0.00  0.00    -0.650 N 
ATOM     10  H   LIG    1        3.047   3.223   7.687  0.00  0.00    +0.440 HD
ATOM     11  C   LIG    1        2.011   3.851   6.080  0.00  0.00    +0.600 A 
ATOM     12  O   LIG    1        2.603   4.909   5.963  0.00  0.00    -0.510 OA
ATOM     13  C   LIG    1        0.976   3.509   5.183  0.00  0.00    -0.150 A 
ENDROOT
BRANCH   1  14
ATOM     14  C   LIG    1        0.757   5.431   3.535  0.00  0.00    +0.320 C 
BRANCH  14  15
ATOM     15  C   LIG    1       -0.080   6.520   4.210  0.00  0.00    +0.010 C 
BRANCH  15  16
ATOM     16  C   LIG    1        0.295   7.885   3.629  0.00  0.00    +0.020 C 
BRANCH  16  17
ATOM     17  C   LIG    1       -0.541   8.974   4.304  0.00  0.00    +0.000 C 
BRANCH  17  19
ATOM     18  C   LIG    1       -1.003  11.428   4.398  0.00  0.00    +0.000 C 
ATOM     19  C   LIG    1       -0.166  10.339   3.723  0.00  0.00    -0.010 C 
ENDBRANCH  17  19
ENDBRANCH  16  17
ENDBRANCH  15  16
ENDBRANCH  14  15
ENDBRANCH   1  14
BRANCH   2  20
ATOM     20  C   LIG    1       -1.451   3.568   2.449  0.00  0.00    +0.310 C 
BRANCH  20  21
ATOM     21  N   LIG    1       -0.817   3.048   1.230  0.00  0.00    -0.540 NA
ATOM     22  C   LIG    1       -0.731   1.580   1.266  0.00  0.00    +0.160 C 
ATOM     23  C   LIG    1       -0.013   1.086   0.008  0.00  0.00    +0.220 C 
ATOM     24  O   LIG    1       -0.706   1.560  -1.149  0.00  0.00    -0.380 OA
ATOM     25  C   LIG    1       -0.807   2.985  -1.216  0.00  0.00    +0.220 C 
ATOM     26  C   LIG    1       -1.534   3.499   0.029  0.00  0.00    +0.160 C 
ENDBRANCH  20  21
ENDBRANCH   2  20
TORSDOF 7
