REMARK  Name = ZINCrH000004q5pf.0
REMARK                            x       y       z     vdW  Elec       q    Type
REMARK                         _______ _______ _______ _____ _____    ______ ____
ROOT
ATOM      1  C   LIG    1        0.060   1.408  -0.051  0.00  0.00    +0.120 C 
ATOM      2  C   LIG    1       -0.686   1.714   1.222  0.00  0.00    -0.040 A 
ATOM      3  C   LIG    1       -0.102   1.726   2.429  0.00  0.00    -0.220 A 
ATOM      4  S   LIG    1       -1.282   2.122   3.668  0.00  0.00    +0.330 S 
ATOM      5  C   LIG    1       -2.533   2.259   2.516  0.00  0.00    +0.040 A 
ATOM      6  C   LIG    1       -2.050   2.016   1.254  0.00  0.00    -0.200 A 
ENDROOT
BRANCH   6   7
ATOM      7  C   LIG    1       -2.888   2.066   0.051  0.00  0.00    +0.590 C 
ATOM      8  N   LIG    1       -3.025   3.223  -0.627  0.00  0.00    -0.610 N 
ATOM      9  C   LIG    1       -2.348   4.449  -0.178  0.00  0.00    +0.250 C 
ATOM     10  C   LIG    1       -1.596   5.049  -1.377  0.00  0.00    +0.220 C 
ATOM     11  O   LIG    1       -2.501   5.190  -2.475  0.00  0.00    -0.380 OA
ATOM     12  C   LIG    1       -3.040   3.954  -2.952  0.00  0.00    +0.220 C 
ATOM     13  C   LIG    1       -3.861   3.297  -1.836  0.00  0.00    +0.250 C 
ATOM     14  O   LIG    1       -3.461   1.064  -0.334  0.00  0.00    -0.530 OA
ENDBRANCH   6   7
BRANCH   3  15
ATOM     15  C   LIG    1        1.328   1.448   2.680  0.00  0.00    -0.010 A 
ATOM     16  C   LIG    1        1.935   0.329   2.107  0.00  0.00    +0.020 A 
ATOM     17  C   LIG    1        3.271   0.077   2.342  0.00  0.00    +0.010 A 
ATOM     18  C   LIG    1        4.006   0.926   3.151  0.00  0.00    +0.000 A 
ATOM     19  C   LIG    1        3.409   2.034   3.725  0.00  0.00    +0.010 A 
ATOM     20  C   LIG    1        2.075   2.300   3.495  0.00  0.00    +0.010 A 
ENDBRANCH   3  15
BRANCH   5  21
ATOM     21  N   LIG    1       -3.848   2.575   2.812  0.00  0.00    -0.630 N 
ATOM     22  H   LIG    1       -4.504   2.635   2.100  0.00  0.00    +0.420 HD
ATOM     23  C   LIG    1       -4.216   2.801   4.089  0.00  0.00    +0.540 C 
ATOM     24  O   LIG    1       -3.396   2.727   4.979  0.00  0.00    -0.490 OA
BRANCH  23  25
ATOM     25  C   LIG    1       -5.648   3.145   4.411  0.00  0.00    -0.070 C 
ATOM     26  C   LIG    1       -6.467   2.109   5.183  0.00  0.00    +0.060 C 
ATOM     27  C   LIG    1       -6.003   3.389   5.879  0.00  0.00    +0.010 C 
ATOM     28  C   LIG    1       -4.877   3.266   6.908  0.00  0.00    +0.070 C 
ENDBRANCH  23  25
ENDBRANCH   5  21
TORSDOF 4
