REMARK  Name = ZINCqH0000003XUL.0
REMARK                            x       y       z     vdW  Elec       q    Type
REMARK                         _______ _______ _______ _____ _____    ______ ____
ROOT
ATOM      1  N   LIG    1        4.451   0.153  -1.420  0.00  0.00    -0.590 N 
ATOM      2  C   LIG    1        4.544  -1.143  -1.777  0.00  0.00    +0.600 C 
ATOM      3  O   LIG    1        3.540  -1.767  -2.070  0.00  0.00    -0.510 OA
ENDROOT
BRANCH   2   4
ATOM      4  C   LIG    1        5.853  -1.803  -1.811  0.00  0.00    -0.010 A 
ATOM      5  C   LIG    1        6.646  -2.004  -2.912  0.00  0.00    +0.050 A 
ATOM      6  N   LIG    1        7.752  -2.636  -2.509  0.00  0.00    -0.450 NA
ATOM      7  C   LIG    1        7.693  -2.849  -1.226  0.00  0.00    +0.200 A 
ATOM      8  C   LIG    1        8.713  -3.533  -0.345  0.00  0.00    +0.380 C 
ATOM      9  O   LIG    1        8.386  -3.233   1.019  0.00  0.00    -0.360 OA
ATOM     10  C   LIG    1        7.015  -3.463   1.354  0.00  0.00    +0.250 C 
ATOM     11  C   LIG    1        6.133  -2.417   0.659  0.00  0.00    +0.270 C 
ATOM     12 BR   LIG    1        6.247  -1.476  -4.683  0.00  0.00    +0.040 Br
ATOM     13  N   LIG    1        6.530  -2.349  -0.749  0.00  0.00    -0.430 N 
ENDBRANCH   2   4
BRANCH   1  14
ATOM     14  C   LIG    1        5.641   0.872  -0.958  0.00  0.00    +0.220 C 
ATOM     15  C   LIG    1        5.460   1.266   0.510  0.00  0.00    +0.030 C 
BRANCH  14  17
ATOM     16  C   LIG    1        6.103   1.735  -3.256  0.00  0.00    +0.030 C 
ATOM     17  C   LIG    1        5.836   2.132  -1.803  0.00  0.00    +0.020 C 
ENDBRANCH  14  17
ENDBRANCH   1  14
BRANCH   1  18
ATOM     18  C   LIG    1        3.161   0.843  -1.496  0.00  0.00    +0.300 C 
BRANCH  18  19
ATOM     19  C   LIG    1        2.422   0.690  -0.165  0.00  0.00    +0.060 C 
BRANCH  19  20
ATOM     20  C   LIG    1        1.095   1.400  -0.242  0.00  0.00    -0.120 A 
ATOM     21  C   LIG    1       -0.061   0.680  -0.476  0.00  0.00    +0.050 A 
ATOM     22  C   LIG    1       -1.278   1.332  -0.554  0.00  0.00    +0.000 A 
ATOM     23  C   LIG    1       -1.341   2.703  -0.385  0.00  0.00    +0.040 A 
ATOM     24  C   LIG    1       -0.186   3.424  -0.150  0.00  0.00    -0.010 A 
ATOM     25  C   LIG    1        1.034   2.773  -0.078  0.00  0.00    +0.100 A 
ATOM     26  F   LIG    1        2.164   3.478   0.152  0.00  0.00    -0.140 F 
ENDBRANCH  19  20
ENDBRANCH  18  19
ENDBRANCH   1  18
TORSDOF 6
