REMARK  Name = ZINCrD00000l3KPe.0
REMARK                            x       y       z     vdW  Elec       q    Type
REMARK                         _______ _______ _______ _____ _____    ______ ____
ROOT
ATOM      1  C   LIG    1        3.609   5.889  -0.002  0.00  0.00    +0.300 A 
ATOM      2  N   LIG    1        3.894   7.167   0.003  0.00  0.00    -0.510 NA
ATOM      3  C   LIG    1        5.220   7.335  -0.010  0.00  0.00    +0.200 A 
ATOM      4  N   LIG    1        5.795   6.155  -0.022  0.00  0.00    -0.310 NA
ATOM      5  N   LIG    1        4.763   5.202  -0.011  0.00  0.00    -0.460 N 
ATOM      6  H   LIG    1        4.864   4.237  -0.013  0.00  0.00    +0.450 HD
ENDROOT
BRANCH   1   7
ATOM      7  C   LIG    1        2.225   5.292   0.009  0.00  0.00    +0.360 C 
BRANCH   7   8
ATOM      8  O   LIG    1        2.322   3.866   0.000  0.00  0.00    -0.320 OA
BRANCH   8  13
ATOM      9  C   LIG    1       -2.513   0.977   0.019  0.00  0.00    +0.100 C 
ATOM     10  C   LIG    1       -1.220   1.750   0.017  0.00  0.00    -0.120 A 
ATOM     11  C   LIG    1       -0.013   1.076   0.008  0.00  0.00    +0.050 A 
ATOM     12  C   LIG    1        1.175   1.782   0.000  0.00  0.00    -0.010 A 
ATOM     13  C   LIG    1        1.155   3.169   0.008  0.00  0.00    +0.120 A 
ATOM     14  C   LIG    1       -0.057   3.844   0.023  0.00  0.00    -0.070 A 
ATOM     15  C   LIG    1       -1.242   3.133   0.031  0.00  0.00    +0.050 A 
ENDBRANCH   8  13
ENDBRANCH   7   8
ENDBRANCH   1   7
BRANCH   3  16
ATOM     16  S   LIG    1        6.058   8.884  -0.009  0.00  0.00    +0.100 S 
BRANCH  16  17
ATOM     17  C   LIG    1        7.807   8.403  -0.029  0.00  0.00    +0.080 C 
BRANCH  17  18
ATOM     18  C   LIG    1        8.668   9.639  -0.031  0.00  0.00    +0.420 C 
ATOM     19  O   LIG    1        8.153  10.737  -0.019  0.00  0.00    -0.430 OA
BRANCH  18  20
ATOM     20  C   LIG    1       10.132   9.514  -0.046  0.00  0.00    -0.160 A 
ATOM     21  C   LIG    1       10.728   8.248  -0.060  0.00  0.00    +0.090 A 
ATOM     22  C   LIG    1       12.100   8.135  -0.075  0.00  0.00    +0.040 A 
ATOM     23  C   LIG    1       12.897   9.273  -0.077  0.00  0.00    +0.070 A 
ATOM     24  O   LIG    1       14.252   9.423  -0.091  0.00  0.00    -0.300 OA
ATOM     25  C   LIG    1       14.494  10.779   0.328  0.00  0.00    +0.440 C 
ATOM     26  O   LIG    1       13.300  11.479  -0.068  0.00  0.00    -0.300 OA
ATOM     27  C   LIG    1       12.309  10.539  -0.063  0.00  0.00    +0.020 A 
ATOM     28  C   LIG    1       10.934  10.662  -0.053  0.00  0.00    +0.110 A 
ENDBRANCH  18  20
ENDBRANCH  17  18
ENDBRANCH  16  17
ENDBRANCH   3  16
TORSDOF 7
