REMARK  Name = ZINCrg000000oy2G.0
REMARK                            x       y       z     vdW  Elec       q    Type
REMARK                         _______ _______ _______ _____ _____    ______ ____
ROOT
ATOM      1  C   LIG    1        1.347   2.093  -0.138  0.00  0.00    +0.150 A 
ATOM      2  C   LIG    1        2.577   1.450  -0.083  0.00  0.00    +0.010 A 
ATOM      3  C   LIG    1        2.635   0.071  -0.019  0.00  0.00    +0.060 A 
ATOM      4  C   LIG    1        1.471  -0.673  -0.009  0.00  0.00    +0.030 A 
ATOM      5  C   LIG    1        0.238  -0.035  -0.064  0.00  0.00    +0.180 A 
ATOM      6  C   LIG    1        0.176   1.349  -0.128  0.00  0.00    -0.020 A 
ENDROOT
BRANCH   1  11
ATOM      7  C   LIG    1        0.568   5.659  -0.250  0.00  0.00    +0.240 C 
ATOM      8  N   LIG    1        2.034   5.588  -0.369  0.00  0.00    -0.720 N 
ATOM      9  H   LIG    1        2.646   6.336  -0.457  0.00  0.00    +0.440 HD
ATOM     10  C   LIG    1        2.361   4.284  -0.326  0.00  0.00    +0.700 C 
ATOM     11  N   LIG    1        1.290   3.492  -0.203  0.00  0.00    -0.520 N 
ATOM     12  O   LIG    1        3.502   3.870  -0.396  0.00  0.00    -0.520 OA
ATOM     13  C   LIG    1        0.148   4.206  -0.143  0.00  0.00    +0.520 C 
ATOM     14  O   LIG    1       -0.979   3.776  -0.028  0.00  0.00    -0.450 OA
BRANCH   7  16
ATOM     15  C   LIG    1        0.488   7.913   0.824  0.00  0.00    +0.040 C 
ATOM     16  C   LIG    1        0.166   6.429   1.010  0.00  0.00    +0.050 C 
ENDBRANCH   7  16
ENDBRANCH   1  11
BRANCH   5  17
ATOM     17  N   LIG    1       -0.942  -0.789  -0.054  0.00  0.00    -0.680 N 
ATOM     18  H   LIG    1       -1.730  -0.450   0.398  0.00  0.00    +0.410 HD
ATOM     19  C   LIG    1       -0.982  -1.985  -0.673  0.00  0.00    +0.710 C 
ATOM     20  N   LIG    1       -2.140  -2.671  -0.741  0.00  0.00    -0.720 N 
ATOM     21  H   LIG    1       -2.945  -2.303  -0.344  0.00  0.00    +0.410 HD
ATOM     22  O   LIG    1        0.027  -2.447  -1.171  0.00  0.00    -0.570 OA
BRANCH  20  23
ATOM     23  CA  LIG    1       -2.184  -3.971  -1.414  0.00  0.00    +0.370 C 
BRANCH  23  24
ATOM     24  C   LIG    1       -3.324  -4.786  -0.860  0.00  0.00    +0.180 A 
ATOM     25  N   LIG    1       -4.591  -4.492  -0.967  0.00  0.00    -0.440 NA
ATOM     26  C   LIG    1       -5.318  -5.440  -0.357  0.00  0.00    +0.140 A 
ATOM     27  C   LIG    1       -4.468  -6.352   0.154  0.00  0.00    +0.140 A 
ATOM     28  N   LIG    1       -3.204  -5.937  -0.165  0.00  0.00    -0.560 N 
ATOM     29  H   LIG    1       -2.375  -6.387   0.065  0.00  0.00    +0.420 HD
ENDBRANCH  23  24
BRANCH  23  30
ATOM     30  C   LIG    1       -2.390  -3.761  -2.916  0.00  0.00    +0.180 C 
BRANCH  30  31
ATOM     31  O   LIG    1       -3.673  -3.175  -3.143  0.00  0.00    -0.540 OA
ATOM     32  H   LIG    1       -3.872  -3.013  -4.076  0.00  0.00    +0.380 HD
ENDBRANCH  30  31
ENDBRANCH  23  30
ENDBRANCH  20  23
ENDBRANCH   5  17
TORSDOF 7
