REMARK  Name = ZINCrH00000No4CR.0
REMARK                            x       y       z     vdW  Elec       q    Type
REMARK                         _______ _______ _______ _____ _____    ______ ____
ROOT
ATOM      1  O   LIG    1        3.407   5.256  -1.754  0.00  0.00    -0.530 OA
ATOM      2  C   LIG    1        2.385   5.872  -1.975  0.00  0.00    +0.530 C 
ATOM      3  N   LIG    1        1.972   6.057  -3.244  0.00  0.00    -0.600 N 
ENDROOT
BRANCH   2   4
ATOM      4  C   LIG    1        1.579   6.428  -0.830  0.00  0.00    -0.030 C 
ATOM      5  C   LIG    1        2.438   6.927   0.344  0.00  0.00    +0.070 C 
ATOM      6  C   LIG    1        1.381   6.311   1.276  0.00  0.00    +0.050 C 
ATOM      7  C   LIG    1        1.039   5.351   0.125  0.00  0.00    +0.260 C 
BRANCH   7   8
ATOM      8  N   LIG    1       -0.397   5.100  -0.024  0.00  0.00    -0.450 N 
ATOM      9  C   LIG    1       -0.987   3.898  -0.306  0.00  0.00    +0.120 A 
ATOM     10  C   LIG    1       -2.315   4.117  -0.353  0.00  0.00    +0.140 A 
ATOM     11  N   LIG    1       -2.530   5.419  -0.112  0.00  0.00    -0.490 NA
ATOM     12  C   LIG    1       -1.386   6.013   0.091  0.00  0.00    +0.380 A 
ENDBRANCH   7   8
ENDBRANCH   2   4
BRANCH   3  13
ATOM     13  C   LIG    1        0.794   6.884  -3.517  0.00  0.00    +0.270 C 
BRANCH  13  14
ATOM     14  C   LIG    1        1.238   8.307  -3.864  0.00  0.00    -0.020 C 
ATOM     15  C   LIG    1        0.023   9.178  -4.267  0.00  0.00    +0.030 C 
ATOM     16  C   LIG    1        0.485  10.624  -3.987  0.00  0.00    +0.010 C 
ATOM     17  C   LIG    1        1.601  10.532  -2.932  0.00  0.00    +0.180 C 
ATOM     18  F   LIG    1        2.792  11.055  -3.448  0.00  0.00    -0.210 F 
ATOM     19  C   LIG    1        1.779   9.034  -2.608  0.00  0.00    +0.010 C 
ENDBRANCH  13  14
ENDBRANCH   3  13
BRANCH   3  20
ATOM     20  C   LIG    1        2.700   5.432  -4.351  0.00  0.00    +0.340 C 
BRANCH  20  21
ATOM     21  C   LIG    1        2.119   4.069  -4.628  0.00  0.00    -0.090 A 
ATOM     22  C   LIG    1        1.085   3.930  -5.534  0.00  0.00    +0.000 A 
ATOM     23  C   LIG    1        0.551   2.681  -5.791  0.00  0.00    +0.030 A 
ATOM     24  C   LIG    1        1.050   1.568  -5.142  0.00  0.00    -0.010 A 
ATOM     25  C   LIG    1        2.088   1.705  -4.231  0.00  0.00    +0.100 A 
ATOM     26  C   LIG    1        2.625   2.959  -3.979  0.00  0.00    +0.010 A 
BRANCH  25  27
ATOM     27  O   LIG    1        2.580   0.612  -3.592  0.00  0.00    -0.500 OA
ATOM     28  H   LIG    1        3.309   0.179  -4.057  0.00  0.00    +0.390 HD
ENDBRANCH  25  27
ENDBRANCH  20  21
ENDBRANCH   3  20
TORSDOF 7
