REMARK  Name = ZINCbw0000000Hly.0
REMARK                            x       y       z     vdW  Elec       q    Type
REMARK                         _______ _______ _______ _____ _____    ______ ____
ROOT
ATOM      1  C   LIG    1        2.578   5.941   0.009  0.00  0.00    +0.140 C 
ATOM      2  C   LIG    1        2.387   4.446   0.003  0.00  0.00    -0.090 A 
ATOM      3  C   LIG    1        3.410   3.607  -0.011  0.00  0.00    +0.030 A 
ATOM      4  S   LIG    1        2.852   1.942  -0.014  0.00  0.00    +0.180 S 
ATOM      5  C   LIG    1        1.172   2.457   0.004  0.00  0.00    -0.260 A 
ATOM      6  C   LIG    1       -0.021   1.732   0.012  0.00  0.00    +0.280 A 
ATOM      7  N   LIG    1       -1.170   2.387   0.021  0.00  0.00    -0.500 NA
ATOM      8  C   LIG    1       -1.197   3.708   0.033  0.00  0.00    +0.530 A 
ATOM      9  N   LIG    1       -0.107   4.434   0.026  0.00  0.00    -0.480 NA
ATOM     10 CL   LIG    1        0.002  -0.004   0.002  0.00  0.00    +0.000 Cl
ATOM     11  C   LIG    1        1.113   3.856   0.012  0.00  0.00    +0.190 A 
ENDROOT
TORSDOF 0
