REMARK  Name = ZINCAx00000008w3.0
REMARK                            x       y       z     vdW  Elec       q    Type
REMARK                         _______ _______ _______ _____ _____    ______ ____
ROOT
ATOM      1  C   LIG    1       -2.141  -6.513   0.092  0.00  0.00    +0.500 C 
ATOM      2  N   LIG    1       -1.230  -6.517   1.085  0.00  0.00    -0.670 N 
ATOM      3  H   LIG    1       -0.765  -7.338   1.313  0.00  0.00    +0.420 HD
ATOM      4  O   LIG    1       -2.651  -5.470  -0.258  0.00  0.00    -0.500 OA
ENDROOT
BRANCH   2   5
ATOM      5  C   LIG    1       -0.954  -5.339   1.786  0.00  0.00    +0.210 A 
ATOM      6  C   LIG    1       -1.960  -4.407   2.006  0.00  0.00    -0.010 A 
ATOM      7  C   LIG    1       -1.684  -3.244   2.698  0.00  0.00    +0.140 A 
ATOM      8  C   LIG    1       -0.407  -3.007   3.173  0.00  0.00    -0.690 A 
ATOM      9  C   LIG    1        0.598  -3.930   2.951  0.00  0.00    +0.190 A 
ATOM     10  C   LIG    1        0.328  -5.097   2.264  0.00  0.00    -0.030 A 
BRANCH   8  11
ATOM     11  S   LIG    1       -0.059  -1.522   4.055  0.00  0.00    +2.690 S 
ATOM     12  O   LIG    1        1.337  -1.295   3.923  0.00  0.00    -0.930 OA
ATOM     13  O   LIG    1       -1.042  -0.577   3.653  0.00  0.00    -0.950 OA
BRANCH  11  14
ATOM     14  N   LIG    1       -0.334  -1.829   5.659  0.00  0.00    -1.030 N 
ATOM     15  H   LIG    1       -1.047  -1.367   6.126  0.00  0.00    +0.430 HD
BRANCH  14  16
ATOM     16  C   LIG    1        0.447  -2.736   6.326  0.00  0.00    +0.400 C 
ATOM     17  N   LIG    1        1.385  -3.343   5.706  0.00  0.00    -0.580 NA
ATOM     18  C   LIG    1        2.233  -4.322   6.405  0.00  0.00    +0.220 C 
ATOM     19  C   LIG    1        3.176  -3.573   7.348  0.00  0.00    +0.000 C 
ATOM     20  C   LIG    1        2.510  -3.329   8.693  0.00  0.00    +0.010 C 
ATOM     21  C   LIG    1        1.322  -2.385   8.611  0.00  0.00    +0.030 C 
ATOM     22  C   LIG    1        0.192  -3.013   7.792  0.00  0.00    +0.070 C 
ENDBRANCH  14  16
ENDBRANCH  11  14
ENDBRANCH   8  11
ENDBRANCH   2   5
BRANCH   1  23
ATOM     23  C   LIG    1       -2.525  -7.804  -0.584  0.00  0.00    +0.370 C 
BRANCH  23  28
ATOM     24  C   LIG    1       -5.485  -7.215  -2.748  0.00  0.00    +0.170 C 
ATOM     25  N   LIG    1       -4.327  -7.043  -3.643  0.00  0.00    -0.710 N 
ATOM     26  H   LIG    1       -4.352  -6.824  -4.587  0.00  0.00    +0.440 HD
ATOM     27  C   LIG    1       -3.229  -7.249  -2.893  0.00  0.00    +0.710 C 
ATOM     28  N   LIG    1       -3.525  -7.534  -1.620  0.00  0.00    -0.560 N 
ATOM     29  O   LIG    1       -2.095  -7.183  -3.325  0.00  0.00    -0.530 OA
ATOM     30  C   LIG    1       -4.856  -7.548  -1.410  0.00  0.00    +0.540 C 
ATOM     31  O   LIG    1       -5.431  -7.777  -0.368  0.00  0.00    -0.450 OA
BRANCH  24  32
ATOM     32  C   LIG    1       -6.284  -5.940  -2.664  0.00  0.00    -0.100 A 
ATOM     33  C   LIG    1       -7.646  -5.991  -2.431  0.00  0.00    +0.040 A 
ATOM     34  C   LIG    1       -8.378  -4.821  -2.350  0.00  0.00    +0.010 A 
ATOM     35  C   LIG    1       -7.750  -3.600  -2.511  0.00  0.00    +0.030 A 
ATOM     36  C   LIG    1       -6.389  -3.549  -2.749  0.00  0.00    +0.010 A 
ATOM     37  C   LIG    1       -5.656  -4.719  -2.826  0.00  0.00    +0.030 A 
ENDBRANCH  24  32
BRANCH  24  39
ATOM     38  C   LIG    1       -5.547  -9.661  -3.252  0.00  0.00    +0.020 C 
ATOM     39  C   LIG    1       -6.367  -8.370  -3.226  0.00  0.00    +0.060 C 
ENDBRANCH  24  39
ENDBRANCH  23  28
ENDBRANCH   1  23
TORSDOF 8
