REMARK  Name = ZINCqH0000008qTK.0
REMARK                            x       y       z     vdW  Elec       q    Type
REMARK                         _______ _______ _______ _____ _____    ______ ____
ROOT
ATOM      1  C   LIG    1       -1.301   1.931   0.019  0.00  0.00    -0.280 A 
ATOM      2  C   LIG    1       -2.559   1.362   0.016  0.00  0.00    +0.330 A 
ATOM      3  N   LIG    1       -3.454   2.366   0.032  0.00  0.00    -0.320 N 
ATOM      4  N   LIG    1       -2.759   3.580   0.034  0.00  0.00    -0.280 NA
ATOM      5  C   LIG    1       -1.478   3.334   0.027  0.00  0.00    +0.300 A 
ENDROOT
BRANCH   3   6
ATOM      6  C   LIG    1       -4.848   2.220   0.037  0.00  0.00    +0.190 A 
ATOM      7  C   LIG    1       -5.415   0.952   0.028  0.00  0.00    +0.010 A 
ATOM      8  C   LIG    1       -6.789   0.812   0.039  0.00  0.00    +0.110 A 
ATOM      9  C   LIG    1       -7.600   1.931   0.048  0.00  0.00    -0.190 A 
ATOM     10  C   LIG    1       -7.038   3.195   0.053  0.00  0.00    +0.110 A 
ATOM     11  C   LIG    1       -5.665   3.342   0.047  0.00  0.00    +0.030 A 
BRANCH   9  12
ATOM     12  C   LIG    1       -9.099   1.775   0.054  0.00  0.00    +0.510 C 
ATOM     13  F   LIG    1       -9.678   2.858   0.723  0.00  0.00    -0.170 F 
ATOM     14  F   LIG    1       -9.441   0.586   0.709  0.00  0.00    -0.170 F 
ATOM     15  F   LIG    1       -9.569   1.734  -1.263  0.00  0.00    -0.170 F 
ENDBRANCH   9  12
ENDBRANCH   3   6
BRANCH   1  18
ATOM     16  N   LIG    1        1.143   1.902   0.001  0.00  0.00    -0.710 N 
ATOM     17  H   LIG    1        1.130   2.872   0.007  0.00  0.00    +0.410 HD
ATOM     18  C   LIG    1       -0.014   1.212   0.009  0.00  0.00    +0.600 C 
ATOM     19  O   LIG    1        0.002  -0.004   0.002  0.00  0.00    -0.550 OA
BRANCH  16  21
ATOM     20  C   LIG    1        2.819   0.820   1.417  0.00  0.00    +0.040 C 
ATOM     21  C   LIG    1        2.422   1.186  -0.015  0.00  0.00    +0.310 C 
BRANCH  21  22
ATOM     22  C   LIG    1        3.483   2.068  -0.621  0.00  0.00    +0.120 A 
ATOM     23  C   LIG    1        4.592   1.494  -1.213  0.00  0.00    -0.020 A 
ATOM     24  C   LIG    1        5.562   2.314  -1.768  0.00  0.00    +0.070 A 
ATOM     25  C   LIG    1        5.381   3.687  -1.705  0.00  0.00    -0.030 A 
ATOM     26  C   LIG    1        4.246   4.189  -1.096  0.00  0.00    +0.270 A 
ATOM     27  N   LIG    1        3.341   3.379  -0.584  0.00  0.00    -0.480 NA
ENDBRANCH  21  22
ENDBRANCH  16  21
ENDBRANCH   1  18
TORSDOF 5
