REMARK  Name = ZINCvU0000000A6g.0
REMARK                            x       y       z     vdW  Elec       q    Type
REMARK                         _______ _______ _______ _____ _____    ______ ____
ROOT
ATOM      1  S   LIG    1       -2.311   2.537   3.741  0.00  0.00    +2.700 S 
ATOM      2  O   LIG    1       -2.816   2.623   5.066  0.00  0.00    -0.960 OA
ATOM      3  O   LIG    1       -3.085   2.073   2.643  0.00  0.00    -0.940 OA
ENDROOT
BRANCH   1  10
ATOM      4  C   LIG    1       -0.148   1.253   2.669  0.00  0.00    +0.230 A 
ATOM      5  C   LIG    1        0.971   0.435   2.731  0.00  0.00    -0.090 A 
ATOM      6  C   LIG    1        1.354  -0.119   3.938  0.00  0.00    +0.010 A 
ATOM      7  C   LIG    1        0.616   0.132   5.080  0.00  0.00    -0.130 A 
ATOM      8  C   LIG    1       -0.502   0.944   5.020  0.00  0.00    +0.170 A 
ATOM      9  C   LIG    1        2.572  -1.003   4.008  0.00  0.00    +0.100 C 
ATOM     10  C   LIG    1       -0.886   1.504   3.817  0.00  0.00    -0.710 A 
BRANCH   7  11
ATOM     11  C   LIG    1        1.033  -0.478   6.394  0.00  0.00    +0.020 C 
ATOM     12  C   LIG    1       -0.147  -1.244   6.996  0.00  0.00    +0.030 C 
ATOM     13  C   LIG    1        1.467   0.629   7.356  0.00  0.00    +0.030 C 
ENDBRANCH   7  11
BRANCH   4  14
ATOM     14  O   LIG    1       -0.523   1.803   1.485  0.00  0.00    -0.310 OA
BRANCH  14  15
ATOM     15  C   LIG    1        0.283   1.501   0.344  0.00  0.00    +0.200 C 
BRANCH  15  17
ATOM     16  C   LIG    1        0.572   1.881  -2.108  0.00  0.00    +0.040 C 
ATOM     17  C   LIG    1       -0.291   2.204  -0.887  0.00  0.00    +0.030 C 
ENDBRANCH  15  17
ENDBRANCH  14  15
ENDBRANCH   4  14
ENDBRANCH   1  10
BRANCH   1  18
ATOM     18  N   LIG    1       -1.793   4.058   3.338  0.00  0.00    -1.000 NA
ATOM     19  C   LIG    1       -1.427   5.031   4.378  0.00  0.00    +0.320 C 
ATOM     20  C   LIG    1       -0.035   5.592   4.045  0.00  0.00    +0.180 C 
ATOM     21  N   LIG    1       -0.042   6.121   2.675  0.00  0.00    -0.480 N 
ATOM     22  C   LIG    1       -0.296   5.058   1.694  0.00  0.00    +0.190 C 
ATOM     23  C   LIG    1       -1.693   4.473   1.931  0.00  0.00    +0.320 C 
BRANCH  21  24
ATOM     24  C   LIG    1        1.152   6.790   2.391  0.00  0.00    +0.130 A 
ATOM     25  C   LIG    1        2.233   6.682   3.256  0.00  0.00    +0.000 A 
ATOM     26  C   LIG    1        3.413   7.345   2.971  0.00  0.00    -0.010 A 
ATOM     27  C   LIG    1        3.518   8.113   1.826  0.00  0.00    +0.020 A 
ATOM     28  C   LIG    1        2.443   8.222   0.962  0.00  0.00    +0.080 A 
ATOM     29 CL   LIG    1        4.764   7.211   4.053  0.00  0.00    -0.060 Cl
ATOM     30  C   LIG    1        1.263   7.559   1.238  0.00  0.00    -0.050 A 
ATOM     31 CL   LIG    1       -0.083   7.690   0.149  0.00  0.00    -0.050 Cl
ENDBRANCH  21  24
ENDBRANCH   1  18
TORSDOF 7
