REMARK  Name = ZINCc70000001n7H.0
REMARK                            x       y       z     vdW  Elec       q    Type
REMARK                         _______ _______ _______ _____ _____    ______ ____
ROOT
ATOM      1  C   LIG    1       -2.156   1.845  -0.736  0.00  0.00    +0.260 C 
ATOM      2  C   LIG    1       -2.256   1.496   0.763  0.00  0.00    +0.060 C 
ATOM      3  C   LIG    1       -0.783   1.608   1.247  0.00  0.00    +0.050 C 
ATOM      4  C   LIG    1       -0.013   1.086   0.008  0.00  0.00    +0.270 C 
ATOM      5  N   LIG    1       -0.768   1.595  -1.151  0.00  0.00    -0.610 N 
ATOM      6  C   LIG    1       -0.269   1.798  -2.386  0.00  0.00    +0.530 C 
ATOM      7  O   LIG    1       -0.985   2.223  -3.268  0.00  0.00    -0.540 OA
ATOM      8  C   LIG    1        1.180   1.497  -2.672  0.00  0.00    +0.110 C 
ENDROOT
BRANCH   1   9
ATOM      9  C   LIG    1       -3.094   0.974  -1.532  0.00  0.00    +0.460 C 
ATOM     10  O   LIG    1       -2.671  -0.000  -2.108  0.00  0.00    -0.490 OA
BRANCH   9  12
ATOM     11  C   LIG    1       -5.243   0.398  -2.386  0.00  0.00    +0.260 C 
ATOM     12  O   LIG    1       -4.399   1.281  -1.602  0.00  0.00    -0.360 OA
ENDBRANCH   9  12
ENDBRANCH   1   9
TORSDOF 2
