REMARK  Name = ZINCrg000000pCqm.0
REMARK                            x       y       z     vdW  Elec       q    Type
REMARK                         _______ _______ _______ _____ _____    ______ ____
ROOT
ATOM      1  C   LIG    1       -0.616   2.641   1.458  0.00  0.00    +0.010 C 
ATOM      2  C   LIG    1       -0.344   1.144   1.292  0.00  0.00    +0.040 C 
ATOM      3  C   LIG    1        0.242   0.887  -0.100  0.00  0.00    +0.300 C 
ATOM      4  N   LIG    1       -0.662   1.456  -1.109  0.00  0.00    -0.990 NA
ATOM      5  C   LIG    1       -1.057   2.866  -0.990  0.00  0.00    +0.290 C 
ATOM      6  C   LIG    1       -1.633   3.099   0.410  0.00  0.00    +0.060 C 
ENDROOT
BRANCH   1   9
ATOM      7  N   LIG    1       -0.438   2.575   3.925  0.00  0.00    -0.710 N 
ATOM      8  H   LIG    1        0.439   2.173   3.819  0.00  0.00    +0.410 HD
ATOM      9  C   LIG    1       -1.165   2.901   2.837  0.00  0.00    +0.530 C 
ATOM     10  O   LIG    1       -2.261   3.403   2.969  0.00  0.00    -0.530 OA
BRANCH   7  11
ATOM     11  CA  LIG    1       -0.971   2.828   5.265  0.00  0.00    +0.300 C 
BRANCH  11  12
ATOM     12  C   LIG    1       -0.331   1.881   6.247  0.00  0.00    +0.470 C 
ATOM     13  O   LIG    1        0.486   1.077   5.867  0.00  0.00    -0.500 OA
BRANCH  12  15
ATOM     14  C   LIG    1       -0.013   0.988   8.434  0.00  0.00    +0.290 C 
ATOM     15  O   LIG    1       -0.670   1.930   7.545  0.00  0.00    -0.350 OA
ENDBRANCH  12  15
ENDBRANCH  11  12
BRANCH  11  16
ATOM     16  C   LIG    1       -0.664   4.270   5.673  0.00  0.00    +0.210 C 
BRANCH  16  17
ATOM     17  O   LIG    1        0.750   4.441   5.790  0.00  0.00    -0.570 OA
ATOM     18  H   LIG    1        1.019   5.334   6.047  0.00  0.00    +0.390 HD
ENDBRANCH  16  17
ENDBRANCH  11  16
ENDBRANCH   7  11
ENDBRANCH   1   9
BRANCH   4  19
ATOM     19  S   LIG    1       -1.225   0.524  -2.357  0.00  0.00    +2.690 S 
ATOM     20  O   LIG    1       -2.334   1.220  -2.909  0.00  0.00    -0.930 OA
ATOM     21  O   LIG    1       -1.310  -0.804  -1.860  0.00  0.00    -0.940 OA
BRANCH  19  22
ATOM     22  C   LIG    1        0.023   0.510  -3.602  0.00  0.00    -0.670 A 
ATOM     23  C   LIG    1        0.673  -0.668  -3.915  0.00  0.00    +0.160 A 
ATOM     24  C   LIG    1        1.652  -0.679  -4.893  0.00  0.00    -0.050 A 
ATOM     25  C   LIG    1        1.980   0.490  -5.556  0.00  0.00    +0.110 A 
ATOM     26  C   LIG    1        1.330   1.668  -5.243  0.00  0.00    +0.050 A 
ATOM     27 CL   LIG    1        2.470  -2.159  -5.286  0.00  0.00    -0.040 Cl
ATOM     28  C   LIG    1        0.347   1.678  -4.270  0.00  0.00    +0.060 A 
ATOM     29 CL   LIG    1       -0.475   3.157  -3.881  0.00  0.00    -0.030 Cl
ENDBRANCH  19  22
ENDBRANCH   4  19
TORSDOF 8
