REMARK  Name = ZINCvU0000000GPU.0
REMARK                            x       y       z     vdW  Elec       q    Type
REMARK                         _______ _______ _______ _____ _____    ______ ____
ROOT
ATOM      1  C   LIG    1        4.511   0.800  -0.133  0.00  0.00    -0.040 A 
ATOM      2  C   LIG    1        3.794  -0.326   0.124  0.00  0.00    -0.050 A 
ATOM      3  C   LIG    1        2.392   0.031  -0.083  0.00  0.00    -0.140 A 
ATOM      4  C   LIG    1        1.185  -0.666   0.016  0.00  0.00    +0.080 A 
ATOM      5  C   LIG    1        0.009  -0.025  -0.253  0.00  0.00    -0.010 A 
ATOM      6  C   LIG    1        0.005   1.313  -0.623  0.00  0.00    +0.060 A 
ATOM      7  C   LIG    1        1.185   2.018  -0.727  0.00  0.00    +0.030 A 
ATOM      8  C   LIG    1        2.394   1.388  -0.459  0.00  0.00    +0.080 A 
ATOM      9  O   LIG    1        3.675   1.804  -0.475  0.00  0.00    -0.130 OA
ENDROOT
BRANCH   1  18
ATOM     10  C   LIG    1        9.309   4.523  -0.481  0.00  0.00    +0.300 A 
ATOM     11  C   LIG    1        9.201   5.914  -0.533  0.00  0.00    -0.030 A 
ATOM     12  C   LIG    1        7.966   6.521  -0.458  0.00  0.00    +0.110 A 
ATOM     13  C   LIG    1        6.811   5.760  -0.330  0.00  0.00    +0.050 A 
ATOM     14  C   LIG    1        6.896   4.380  -0.277  0.00  0.00    -0.090 A 
ATOM     15  C   LIG    1        5.907   3.289  -0.154  0.00  0.00    +0.560 C 
ATOM     16  O   LIG    1        4.704   3.428  -0.067  0.00  0.00    -0.400 OA
ATOM     17  N   LIG    1        6.565   2.115  -0.151  0.00  0.00    -0.550 N 
ATOM     18  C   LIG    1        5.972   0.909  -0.050  0.00  0.00    +0.610 C 
ATOM     19  O   LIG    1        6.648  -0.089   0.111  0.00  0.00    -0.410 OA
ATOM     20  C   LIG    1        7.892   2.304  -0.268  0.00  0.00    +0.580 C 
ATOM     21  O   LIG    1        8.732   1.427  -0.298  0.00  0.00    -0.430 OA
ATOM     22  C   LIG    1        8.157   3.749  -0.352  0.00  0.00    -0.250 A 
BRANCH  10  23
ATOM     23  N   LIG    1       10.554   3.916  -0.557  0.00  0.00    -0.850 N 
ATOM     24  H   LIG    1       11.354   4.458  -0.646  0.00  0.00    +0.410 HD
ATOM     25  H   LIG    1       10.625   2.949  -0.521  0.00  0.00    +0.410 HD
ENDBRANCH  10  23
ENDBRANCH   1  18
BRANCH   2  26
ATOM     26  C   LIG    1        4.336  -1.669   0.539  0.00  0.00    +0.180 C 
BRANCH  26  27
ATOM     27  S   LIG    1        4.680  -2.665  -0.938  0.00  0.00    -0.230 S 
BRANCH  27  28
ATOM     28  C   LIG    1        5.313  -4.217  -0.245  0.00  0.00    +0.040 C 
ATOM     29  C   LIG    1        6.637  -3.953   0.475  0.00  0.00    +0.030 C 
ATOM     30  C   LIG    1        7.170  -5.262   1.059  0.00  0.00    +0.010 C 
ATOM     31  C   LIG    1        7.396  -6.270  -0.070  0.00  0.00    +0.000 C 
ATOM     32  C   LIG    1        6.072  -6.535  -0.789  0.00  0.00    +0.020 C 
ATOM     33  C   LIG    1        5.538  -5.225  -1.373  0.00  0.00    +0.040 C 
ENDBRANCH  27  28
ENDBRANCH  26  27
ENDBRANCH   2  26
TORSDOF 5
