REMARK  Name = ZINCrD000000fBdY.1
REMARK                            x       y       z     vdW  Elec       q    Type
REMARK                         _______ _______ _______ _____ _____    ______ ____
ROOT
ATOM      1  S   LIG    1       -1.242  -0.868   1.215  0.00  0.00    +2.690 S 
ATOM      2  O   LIG    1       -1.215  -0.214   2.476  0.00  0.00    -0.940 OA
ATOM      3  O   LIG    1       -1.108  -2.274   1.066  0.00  0.00    -0.940 OA
ENDROOT
BRANCH   1  13
ATOM      4  C   LIG    1       -5.197  -3.937  -3.243  0.00  0.00    +0.100 C 
ATOM      5  C   LIG    1       -4.501  -2.901  -2.398  0.00  0.00    +0.510 C 
ATOM      6  N   LIG    1       -5.194  -1.855  -1.907  0.00  0.00    -0.560 N 
ATOM      7  C   LIG    1       -6.593  -1.635  -2.301  0.00  0.00    +0.270 C 
ATOM      8  C   LIG    1       -6.762  -0.142  -2.612  0.00  0.00    +0.020 C 
ATOM      9  C   LIG    1       -6.500   0.662  -1.339  0.00  0.00    +0.090 C 
ATOM     10  C   LIG    1       -5.187   0.260  -0.722  0.00  0.00    -0.060 A 
ATOM     11  C   LIG    1       -4.566   1.130   0.158  0.00  0.00    +0.020 A 
ATOM     12  C   LIG    1       -3.367   0.784   0.751  0.00  0.00    +0.100 A 
ATOM     13  C   LIG    1       -2.773  -0.431   0.460  0.00  0.00    -0.660 A 
ATOM     14  C   LIG    1       -3.385  -1.303  -0.418  0.00  0.00    +0.130 A 
ATOM     15  C   LIG    1       -4.593  -0.959  -1.012  0.00  0.00    +0.140 A 
ATOM     16  O   LIG    1       -3.317  -3.009  -2.160  0.00  0.00    -0.510 OA
ENDBRANCH   1  13
BRANCH   1  17
ATOM     17  N   LIG    1       -0.036  -0.185   0.308  0.00  0.00    -1.050 N 
ATOM     18  H   LIG    1        0.522   0.511   0.689  0.00  0.00    +0.430 HD
BRANCH  17  19
ATOM     19  C   LIG    1        0.176  -0.610  -1.006  0.00  0.00    +0.090 A 
ATOM     20  C   LIG    1        0.344   0.316  -2.017  0.00  0.00    +0.070 A 
ATOM     21  C   LIG    1        0.556  -0.163  -3.323  0.00  0.00    -0.090 A 
ATOM     22  C   LIG    1        0.735   0.718  -4.402  0.00  0.00    +0.030 A 
ATOM     23  C   LIG    1        0.938   0.217  -5.652  0.00  0.00    +0.020 A 
ATOM     24  C   LIG    1        0.969  -1.158  -5.875  0.00  0.00    +0.030 A 
ATOM     25  C   LIG    1        0.798  -2.039  -4.852  0.00  0.00    +0.050 A 
ATOM     26  C   LIG    1        0.587  -1.562  -3.547  0.00  0.00    +0.120 A 
ATOM     27  N   LIG    1        0.417  -2.408  -2.526  0.00  0.00    -0.440 NA
ATOM     28  C   LIG    1        0.226  -1.978  -1.304  0.00  0.00    +0.310 A 
ENDBRANCH  17  19
ENDBRANCH   1  17
TORSDOF 3
