REMARK  Name = ZINCpe00000MCit9.0
REMARK                            x       y       z     vdW  Elec       q    Type
REMARK                         _______ _______ _______ _____ _____    ______ ____
ROOT
ATOM      1  C   LIG    1        2.980  -2.748   3.310  0.00  0.00    +0.280 C 
ATOM      2  N   LIG    1        3.784  -2.413   2.132  0.00  0.00    -0.610 N 
ATOM      3  C   LIG    1        3.249  -1.678   1.137  0.00  0.00    +0.520 C 
ATOM      4  O   LIG    1        3.914  -1.401   0.162  0.00  0.00    -0.540 OA
ENDROOT
BRANCH   2   5
ATOM      5  C   LIG    1        5.170  -2.878   2.035  0.00  0.00    +0.240 C 
ATOM      6  C   LIG    1        5.201  -4.408   2.084  0.00  0.00    +0.030 C 
ATOM      7  C   LIG    1        6.655  -4.886   2.045  0.00  0.00    +0.200 C 
ATOM      8  N   LIG    1        7.387  -4.325   3.188  0.00  0.00    -0.490 N 
ATOM      9  C   LIG    1        7.411  -2.858   3.135  0.00  0.00    +0.190 C 
ATOM     10  C   LIG    1        5.980  -2.320   3.208  0.00  0.00    +0.030 C 
BRANCH   8  11
ATOM     11  C   LIG    1        8.682  -4.845   3.256  0.00  0.00    +0.140 A 
ATOM     12  C   LIG    1        8.878  -6.218   3.314  0.00  0.00    -0.020 A 
ATOM     13  C   LIG    1       10.159  -6.731   3.381  0.00  0.00    +0.080 A 
ATOM     14  C   LIG    1       11.247  -5.878   3.392  0.00  0.00    -0.040 A 
ATOM     15  C   LIG    1       11.056  -4.506   3.335  0.00  0.00    +0.130 A 
ATOM     16  F   LIG    1       12.121  -3.675   3.345  0.00  0.00    -0.140 F 
ATOM     17  C   LIG    1        9.776  -3.989   3.261  0.00  0.00    -0.070 A 
ENDBRANCH   8  11
ENDBRANCH   2   5
BRANCH   3  18
ATOM     18  C   LIG    1        1.823  -1.200   1.237  0.00  0.00    +0.090 C 
BRANCH  18  19
ATOM     19  C   LIG    1        1.467  -0.394  -0.014  0.00  0.00    +0.250 C 
ATOM     20  N   LIG    1        2.170   0.901  -0.014  0.00  0.00    -0.710 N 
ATOM     21  H   LIG    1        3.130   1.039  -0.022  0.00  0.00    +0.450 HD
ATOM     22  C   LIG    1        1.220   1.854   0.000  0.00  0.00    +0.700 C 
ATOM     23  N   LIG    1       -0.016   1.343   0.009  0.00  0.00    -0.680 N 
ATOM     24  H   LIG    1       -0.826   1.877   0.016  0.00  0.00    +0.440 HD
ATOM     25  O   LIG    1        1.460   3.045   0.004  0.00  0.00    -0.540 OA
ATOM     26  C   LIG    1        0.002  -0.004   0.002  0.00  0.00    +0.530 C 
ATOM     27  O   LIG    1       -0.954  -0.749   0.008  0.00  0.00    -0.460 OA
ENDBRANCH  18  19
ENDBRANCH   3  18
TORSDOF 4
