REMARK  Name = ZINCrg000000nGue.0
REMARK                            x       y       z     vdW  Elec       q    Type
REMARK                         _______ _______ _______ _____ _____    ______ ____
ROOT
ATOM      1  C   LIG    1        1.283  -1.916   3.039  0.00  0.00    -0.160 A 
ATOM      2  C   LIG    1        2.572  -1.399   3.187  0.00  0.00    +0.150 A 
ATOM      3  C   LIG    1        3.403  -1.896   4.168  0.00  0.00    -0.010 A 
ATOM      4  C   LIG    1        2.965  -2.914   5.001  0.00  0.00    +0.220 A 
ATOM      5  C   LIG    1        1.688  -3.435   4.855  0.00  0.00    -0.720 A 
ATOM      6  F   LIG    1        3.785  -3.401   5.957  0.00  0.00    -0.110 F 
ATOM      7  C   LIG    1        0.847  -2.942   3.881  0.00  0.00    +0.220 A 
ENDROOT
BRANCH   1  13
ATOM      8  N   LIG    1       -0.162   2.635   1.605  0.00  0.00    -0.540 NA
ATOM      9  C   LIG    1       -1.111   1.679   1.018  0.00  0.00    +0.170 C 
ATOM     10  C   LIG    1       -0.349   0.442   0.530  0.00  0.00    +0.300 C 
ATOM     11  N   LIG    1        0.452  -0.083   1.646  0.00  0.00    -0.610 N 
ATOM     12  C   LIG    1        1.327   0.849   2.374  0.00  0.00    +0.280 C 
ATOM     13  C   LIG    1        0.386  -1.384   1.993  0.00  0.00    +0.560 C 
ATOM     14  O   LIG    1       -0.411  -2.120   1.444  0.00  0.00    -0.520 OA
ATOM     15  C   LIG    1        0.499   2.070   2.789  0.00  0.00    +0.170 C 
BRANCH   8  16
ATOM     16  C   LIG    1       -0.825   3.904   1.929  0.00  0.00    +0.170 C 
BRANCH  16  18
ATOM     17  C   LIG    1       -0.572   6.099   3.095  0.00  0.00    +0.020 C 
ATOM     18  C   LIG    1        0.119   4.777   2.758  0.00  0.00    +0.000 C 
ENDBRANCH  16  18
ENDBRANCH   8  16
ENDBRANCH   1  13
BRANCH   5  19
ATOM     19  S   LIG    1        1.139  -4.729   5.917  0.00  0.00    +2.690 S 
ATOM     20  O   LIG    1       -0.177  -5.062   5.498  0.00  0.00    -0.940 OA
ATOM     21  O   LIG    1        1.454  -4.322   7.242  0.00  0.00    -0.940 OA
BRANCH  19  22
ATOM     22  N   LIG    1        2.080  -6.055   5.601  0.00  0.00    -1.000 NA
ATOM     23  C   LIG    1        1.684  -7.038   4.580  0.00  0.00    +0.270 C 
ATOM     24  C   LIG    1        2.882  -7.266   3.644  0.00  0.00    +0.220 C 
ATOM     25  O   LIG    1        4.033  -7.593   4.427  0.00  0.00    -0.370 OA
ATOM     26  C   LIG    1        4.448  -6.555   5.318  0.00  0.00    +0.210 C 
ATOM     27  C   LIG    1        3.333  -6.288   6.336  0.00  0.00    +0.270 C 
ENDBRANCH  19  22
ENDBRANCH   5  19
TORSDOF 5
