REMARK  Name = ZINCqH0000006qE1.1
REMARK                            x       y       z     vdW  Elec       q    Type
REMARK                         _______ _______ _______ _____ _____    ______ ____
ROOT
ATOM      1  C   LIG    1        0.471  -2.674   0.372  0.00  0.00    +0.380 A 
ATOM      2  N   LIG    1       -0.779  -2.249   0.400  0.00  0.00    -0.570 NA
ATOM      3  C   LIG    1       -1.079  -0.983   0.150  0.00  0.00    +0.500 A 
ATOM      4  C   LIG    1       -0.033  -0.076  -0.151  0.00  0.00    -0.220 A 
ATOM      5  C   LIG    1       -0.077   1.347  -0.460  0.00  0.00    -0.020 A 
ATOM      6  C   LIG    1        1.113   1.897  -0.697  0.00  0.00    -0.020 A 
ATOM      7  S   LIG    1        2.399   0.713  -0.561  0.00  0.00    +0.190 S 
ATOM      8  C   LIG    1        1.271  -0.575  -0.168  0.00  0.00    +0.120 A 
ATOM      9  N   LIG    1        1.474  -1.872   0.098  0.00  0.00    -0.510 NA
ENDROOT
BRANCH   5  10
ATOM     10  C   LIG    1       -1.342   2.118  -0.513  0.00  0.00    -0.050 A 
ATOM     11  C   LIG    1       -2.359   1.736  -1.387  0.00  0.00    +0.000 A 
ATOM     12  C   LIG    1       -3.536   2.454  -1.428  0.00  0.00    +0.030 A 
ATOM     13  C   LIG    1       -3.705   3.558  -0.612  0.00  0.00    +0.020 A 
ATOM     14  C   LIG    1       -2.698   3.945   0.254  0.00  0.00    +0.020 A 
ATOM     15  C   LIG    1       -1.518   3.232   0.308  0.00  0.00    +0.020 A 
ENDBRANCH   5  10
BRANCH   3  16
ATOM     16  N   LIG    1       -2.393  -0.552   0.183  0.00  0.00    -0.690 N 
ATOM     17  H   LIG    1       -2.598   0.391   0.083  0.00  0.00    +0.430 HD
BRANCH  16  18
ATOM     18  C   LIG    1       -3.477  -1.521   0.368  0.00  0.00    +0.350 C 
ATOM     19  C   LIG    1       -3.861  -2.121  -0.986  0.00  0.00    +0.060 C 
BRANCH  18  20
ATOM     20  C   LIG    1       -4.673  -0.828   0.968  0.00  0.00    +0.160 A 
ATOM     21  N   LIG    1       -4.959   0.442   0.874  0.00  0.00    -0.270 NA
ATOM     22  N   LIG    1       -6.052   0.688   1.504  0.00  0.00    -0.290 NA
ATOM     23  C   LIG    1       -6.514  -0.415   2.029  0.00  0.00    +0.390 A 
ATOM     24  N   LIG    1       -5.655  -1.409   1.699  0.00  0.00    -0.570 N 
ATOM     25  H   LIG    1       -5.726  -2.346   1.939  0.00  0.00    +0.430 HD
ENDBRANCH  18  20
ENDBRANCH  16  18
ENDBRANCH   3  16
BRANCH   1  26
ATOM     26  C   LIG    1        0.755  -4.124   0.664  0.00  0.00    +0.300 C 
BRANCH  26  28
ATOM     27  C   LIG    1        0.976  -6.267  -0.387  0.00  0.00    +0.210 C 
ATOM     28  O   LIG    1        0.718  -4.872  -0.553  0.00  0.00    -0.380 OA
ENDBRANCH  26  28
ENDBRANCH   1  26
TORSDOF 6
