REMARK  Name = ZINCqH0000006qE1.0
REMARK                            x       y       z     vdW  Elec       q    Type
REMARK                         _______ _______ _______ _____ _____    ______ ____
ROOT
ATOM      1  C   LIG    1       -4.315  -2.360   2.464  0.00  0.00    +0.380 A 
ATOM      2  N   LIG    1       -3.253  -1.737   1.987  0.00  0.00    -0.570 NA
ATOM      3  C   LIG    1       -2.050  -2.291   2.045  0.00  0.00    +0.500 A 
ATOM      4  C   LIG    1       -1.911  -3.569   2.642  0.00  0.00    -0.220 A 
ATOM      5  C   LIG    1       -0.726  -4.393   2.840  0.00  0.00    -0.020 A 
ATOM      6  C   LIG    1       -0.960  -5.557   3.444  0.00  0.00    -0.020 A 
ATOM      7  S   LIG    1       -2.661  -5.746   3.825  0.00  0.00    +0.180 S 
ATOM      8  C   LIG    1       -3.064  -4.182   3.135  0.00  0.00    +0.120 A 
ATOM      9  N   LIG    1       -4.237  -3.544   3.025  0.00  0.00    -0.510 NA
ENDROOT
BRANCH   5  10
ATOM     10  C   LIG    1        0.627  -3.972   2.406  0.00  0.00    -0.050 A 
ATOM     11  C   LIG    1        0.871  -3.675   1.065  0.00  0.00    +0.010 A 
ATOM     12  C   LIG    1        2.131  -3.277   0.668  0.00  0.00    +0.040 A 
ATOM     13  C   LIG    1        3.154  -3.185   1.594  0.00  0.00    +0.010 A 
ATOM     14  C   LIG    1        2.920  -3.484   2.924  0.00  0.00    +0.010 A 
ATOM     15  C   LIG    1        1.663  -3.877   3.334  0.00  0.00    +0.020 A 
ENDBRANCH   5  10
BRANCH   3  16
ATOM     16  N   LIG    1       -0.947  -1.630   1.537  0.00  0.00    -0.690 N 
ATOM     17  H   LIG    1       -0.059  -2.000   1.663  0.00  0.00    +0.420 HD
BRANCH  16  18
ATOM     18  C   LIG    1       -1.119  -0.370   0.808  0.00  0.00    +0.360 C 
ATOM     19  C   LIG    1       -1.433  -0.669  -0.659  0.00  0.00    +0.050 C 
BRANCH  18  20
ATOM     20  C   LIG    1        0.149   0.439   0.896  0.00  0.00    +0.220 A 
ATOM     21  N   LIG    1        0.218   1.718   1.156  0.00  0.00    -0.300 NA
ATOM     22  N   LIG    1        1.580   2.062   1.143  0.00  0.00    -0.480 N 
ATOM     23  H   LIG    1        1.959   2.941   1.301  0.00  0.00    +0.440 HD
ATOM     24  C   LIG    1        2.253   0.931   0.868  0.00  0.00    +0.490 A 
ATOM     25  N   LIG    1        1.383  -0.035   0.723  0.00  0.00    -0.530 NA
ENDBRANCH  18  20
ENDBRANCH  16  18
ENDBRANCH   3  16
BRANCH   1  26
ATOM     26  C   LIG    1       -5.660  -1.686   2.366  0.00  0.00    +0.290 C 
BRANCH  26  28
ATOM     27  C   LIG    1       -7.135  -0.207   3.542  0.00  0.00    +0.220 C 
ATOM     28  O   LIG    1       -5.881  -0.893   3.534  0.00  0.00    -0.380 OA
ENDBRANCH  26  28
ENDBRANCH   1  26
TORSDOF 6
