REMARK  Name = ZINCrH00000tj1ai.0
REMARK                            x       y       z     vdW  Elec       q    Type
REMARK                         _______ _______ _______ _____ _____    ______ ____
ROOT
ATOM      1  C   LIG    1        2.533   0.838  -0.220  0.00  0.00    +0.400 C 
ENDROOT
BRANCH   1   2
ATOM      2  N   LIG    1        1.157   1.324  -0.091  0.00  0.00    -0.740 N 
ATOM      3  H   LIG    1        0.991   2.253   0.132  0.00  0.00    +0.400 HD
ATOM      4  C   LIG    1        0.124   0.481  -0.284  0.00  0.00    +0.570 C 
ATOM      5  O   LIG    1        0.333  -0.683  -0.564  0.00  0.00    -0.520 OA
BRANCH   4   6
ATOM      6  C   LIG    1       -1.265   0.974  -0.160  0.00  0.00    -0.140 A 
ATOM      7  C   LIG    1       -1.508   2.308   0.168  0.00  0.00    +0.040 A 
ATOM      8  C   LIG    1       -2.807   2.763   0.277  0.00  0.00    +0.000 A 
ATOM      9  C   LIG    1       -3.866   1.896   0.073  0.00  0.00    +0.040 A 
ATOM     10  C   LIG    1       -3.631   0.571  -0.247  0.00  0.00    +0.000 A 
ATOM     11  C   LIG    1       -2.338   0.105  -0.364  0.00  0.00    +0.080 A 
ENDBRANCH   4   6
ENDBRANCH   1   2
BRANCH   1  13
ATOM     12  C   LIG    1        2.499  -0.412   1.853  0.00  0.00    +0.200 C 
ATOM     13  N   LIG    1        3.128   0.691   1.115  0.00  0.00    -0.510 NA
BRANCH  13  14
ATOM     14  C   LIG    1        3.040   1.948   1.871  0.00  0.00    +0.230 C 
BRANCH  14  15
ATOM     15  C   LIG    1        3.868   1.838   3.125  0.00  0.00    -0.080 A 
ATOM     16  C   LIG    1        3.295   1.371   4.293  0.00  0.00    +0.010 A 
ATOM     17  C   LIG    1        4.055   1.266   5.443  0.00  0.00    +0.000 A 
ATOM     18  C   LIG    1        5.387   1.638   5.427  0.00  0.00    +0.000 A 
ATOM     19  C   LIG    1        5.959   2.110   4.260  0.00  0.00    +0.000 A 
ATOM     20  C   LIG    1        5.199   2.210   3.110  0.00  0.00    +0.040 A 
ENDBRANCH  14  15
ENDBRANCH  13  14
ENDBRANCH   1  13
BRANCH   1  21
ATOM     21  C   LIG    1        3.341   1.823  -1.025  0.00  0.00    +0.400 C 
ATOM     22  O   LIG    1        4.444   2.155  -0.646  0.00  0.00    -0.410 OA
BRANCH  21  23
ATOM     23  C   LIG    1        2.792   2.382  -2.270  0.00  0.00    -0.170 A 
ATOM     24  C   LIG    1        1.585   1.899  -2.785  0.00  0.00    +0.060 A 
ATOM     25  C   LIG    1        1.074   2.431  -3.950  0.00  0.00    +0.000 A 
ATOM     26  C   LIG    1        1.758   3.434  -4.615  0.00  0.00    +0.050 A 
ATOM     27  C   LIG    1        2.955   3.914  -4.114  0.00  0.00    +0.000 A 
ATOM     28  C   LIG    1        3.476   3.396  -2.948  0.00  0.00    +0.070 A 
ENDBRANCH  21  23
ENDBRANCH   1  21
TORSDOF 7
