REMARK  Name = ZINCpk00000ebjZj.0
REMARK                            x       y       z     vdW  Elec       q    Type
REMARK                         _______ _______ _______ _____ _____    ______ ____
ROOT
ATOM      1  C   LIG    1        0.002  -0.004   0.002  0.00  0.00    +0.250 C 
ENDROOT
BRANCH   1   2
ATOM      2  C   LIG    1       -1.147  -0.527   0.825  0.00  0.00    -0.080 A 
ATOM      3  C   LIG    1       -2.340  -0.863   0.212  0.00  0.00    +0.010 A 
ATOM      4  C   LIG    1       -3.392  -1.347   0.967  0.00  0.00    +0.010 A 
ATOM      5  C   LIG    1       -3.255  -1.484   2.335  0.00  0.00    +0.020 A 
ATOM      6  C   LIG    1       -2.065  -1.143   2.949  0.00  0.00    +0.010 A 
ATOM      7  C   LIG    1       -1.010  -0.664   2.194  0.00  0.00    +0.060 A 
ENDBRANCH   1   2
BRANCH   1   8
ATOM      8  C   LIG    1       -0.216   1.457  -0.294  0.00  0.00    -0.120 A 
ATOM      9  C   LIG    1       -1.385   1.872  -0.905  0.00  0.00    +0.050 A 
ATOM     10  C   LIG    1       -1.587   3.213  -1.173  0.00  0.00    +0.010 A 
ATOM     11  C   LIG    1       -0.616   4.138  -0.839  0.00  0.00    +0.020 A 
ATOM     12  C   LIG    1        0.555   3.723  -0.233  0.00  0.00    +0.010 A 
ATOM     13  C   LIG    1        0.755   2.383   0.039  0.00  0.00    +0.030 A 
ENDBRANCH   1   8
BRANCH   1  14
ATOM     14  C   LIG    1        0.083  -0.772  -1.292  0.00  0.00    +0.450 C 
ATOM     15  O   LIG    1       -0.449  -0.339  -2.286  0.00  0.00    -0.490 OA
BRANCH  14  16
ATOM     16  O   LIG    1        0.747  -1.938  -1.340  0.00  0.00    -0.310 OA
BRANCH  16  17
ATOM     17  C   LIG    1        0.784  -2.623  -2.619  0.00  0.00    +0.260 C 
BRANCH  17  20
ATOM     18  N   LIG    1        1.735  -4.710  -3.547  0.00  0.00    -0.730 N 
ATOM     19  H   LIG    1        1.351  -4.466  -4.404  0.00  0.00    +0.410 HD
ATOM     20  C   LIG    1        1.567  -3.904  -2.481  0.00  0.00    +0.520 C 
ATOM     21  O   LIG    1        2.047  -4.208  -1.409  0.00  0.00    -0.500 OA
BRANCH  18  22
ATOM     22  C   LIG    1        2.496  -5.954  -3.413  0.00  0.00    +0.280 C 
BRANCH  22  23
ATOM     23  C   LIG    1        2.535  -6.677  -4.761  0.00  0.00    +0.210 C 
BRANCH  23  25
ATOM     24  N   LIG    1        3.890  -8.892  -4.521  0.00  0.00    -0.420 NA
ATOM     25  C   LIG    1        3.300  -7.927  -4.626  0.00  0.00    +0.200 C 
ENDBRANCH  23  25
ENDBRANCH  22  23
ENDBRANCH  18  22
ENDBRANCH  17  20
ENDBRANCH  16  17
ENDBRANCH  14  16
ENDBRANCH   1  14
BRANCH   1  26
ATOM     26  O   LIG    1        1.221  -0.166   0.730  0.00  0.00    -0.520 OA
ATOM     27  H   LIG    1        2.005   0.150   0.259  0.00  0.00    +0.390 HD
ENDBRANCH   1  26
TORSDOF 10
