REMARK  Name = ZINCnE00000pWCoG.0
REMARK                            x       y       z     vdW  Elec       q    Type
REMARK                         _______ _______ _______ _____ _____    ______ ____
ROOT
ATOM      1  N   LIG    1       -1.585   2.824   4.710  0.00  0.00    -0.250 N 
ATOM      2  C   LIG    1       -1.260   1.637   4.129  0.00  0.00    +0.150 A 
ATOM      3  C   LIG    1       -1.097   1.898   2.811  0.00  0.00    +0.050 A 
ATOM      4  N   LIG    1       -1.319   3.207   2.651  0.00  0.00    -0.260 NA
ATOM      5  N   LIG    1       -1.610   3.725   3.792  0.00  0.00    -0.090 NA
ENDROOT
BRANCH   1  13
ATOM      6  C   LIG    1       -2.287   5.446   5.566  0.00  0.00    +0.110 C 
ATOM      7  C   LIG    1       -2.191   4.293   6.532  0.00  0.00    -0.060 A 
ATOM      8  C   LIG    1       -2.453   4.492   7.873  0.00  0.00    +0.050 A 
ATOM      9  C   LIG    1       -2.360   3.436   8.761  0.00  0.00    +0.030 A 
ATOM     10  C   LIG    1       -2.010   2.176   8.308  0.00  0.00    -0.020 A 
ATOM     11  C   LIG    1       -1.752   1.971   6.966  0.00  0.00    +0.040 A 
ATOM     12 CL   LIG    1       -1.893   0.854   9.427  0.00  0.00    -0.060 Cl
ATOM     13  C   LIG    1       -1.845   3.029   6.073  0.00  0.00    +0.150 A 
ENDBRANCH   1  13
BRANCH   3  14
ATOM     14  C   LIG    1       -0.730   0.908   1.735  0.00  0.00    +0.130 C 
BRANCH  14  15
ATOM     15  C   LIG    1       -1.777   0.955   0.620  0.00  0.00    -0.070 C 
BRANCH  15  16
ATOM     16  C   LIG    1       -3.108   0.502   1.162  0.00  0.00    +0.500 C 
ATOM     17  O   LIG    1       -3.948   0.040   0.408  0.00  0.00    -0.700 OA
ATOM     18  O   LIG    1       -3.345   0.597   2.354  0.00  0.00    -0.680 OA
ENDBRANCH  15  16
BRANCH  15  19
ATOM     19  C   LIG    1       -1.349   0.030  -0.521  0.00  0.00    +0.080 C 
BRANCH  19  20
ATOM     20  C   LIG    1       -0.102   0.600  -1.199  0.00  0.00    +0.450 C 
ATOM     21  F   LIG    1       -0.340   1.925  -1.576  0.00  0.00    -0.180 F 
ATOM     22  F   LIG    1        0.201  -0.161  -2.333  0.00  0.00    -0.190 F 
ATOM     23  F   LIG    1        0.975   0.555  -0.306  0.00  0.00    -0.190 F 
ENDBRANCH  19  20
ENDBRANCH  15  19
ENDBRANCH  14  15
ENDBRANCH   3  14
TORSDOF 6
