REMARK  Name = ZINCrD000000CyxI.0
REMARK                            x       y       z     vdW  Elec       q    Type
REMARK                         _______ _______ _______ _____ _____    ______ ____
ROOT
ATOM      1  C   LIG    1       -0.112  -1.244   0.640  0.00  0.00    -0.150 A 
ATOM      2  C   LIG    1       -1.430  -1.137   1.088  0.00  0.00    +0.060 A 
ATOM      3  C   LIG    1       -2.095  -2.257   1.540  0.00  0.00    -0.090 A 
ATOM      4  C   LIG    1       -1.458  -3.486   1.563  0.00  0.00    +0.060 A 
ATOM      5  C   LIG    1       -0.152  -3.605   1.128  0.00  0.00    +0.000 A 
ATOM      6  C   LIG    1        0.530  -2.490   0.665  0.00  0.00    +0.150 A 
ENDROOT
BRANCH   1   8
ATOM      7  O   LIG    1        1.175  -0.083  -0.924  0.00  0.00    -0.510 OA
ATOM      8  C   LIG    1        0.604  -0.051   0.149  0.00  0.00    +0.560 C 
ATOM      9  N   LIG    1        0.624   1.075   0.890  0.00  0.00    -0.610 N 
ATOM     10  C   LIG    1       -0.137   1.166   2.145  0.00  0.00    +0.280 C 
ATOM     11  C   LIG    1        0.812   1.657   3.250  0.00  0.00    +0.180 C 
ATOM     12  N   LIG    1        1.451   2.908   2.819  0.00  0.00    -0.520 NA
ATOM     13  C   LIG    1        2.287   2.697   1.629  0.00  0.00    +0.180 C 
ATOM     14  C   LIG    1        1.403   2.247   0.462  0.00  0.00    +0.300 C 
BRANCH  12  15
ATOM     15  C   LIG    1        2.232   3.504   3.912  0.00  0.00    +0.270 C 
BRANCH  15  16
ATOM     16  C   LIG    1        3.113   2.431   4.554  0.00  0.00    +0.410 C 
ATOM     17  F   LIG    1        2.303   1.464   5.159  0.00  0.00    -0.180 F 
ATOM     18  F   LIG    1        3.937   3.020   5.519  0.00  0.00    -0.180 F 
ATOM     19  F   LIG    1        3.904   1.827   3.570  0.00  0.00    -0.180 F 
ENDBRANCH  15  16
ENDBRANCH  12  15
ENDBRANCH   1   8
BRANCH   6  20
ATOM     20  O   LIG    1        1.812  -2.605   0.236  0.00  0.00    -0.480 OA
ATOM     21  H   LIG    1        2.472  -2.474   0.931  0.00  0.00    +0.390 HD
ENDBRANCH   6  20
BRANCH   3  22
ATOM     22  C   LIG    1       -3.519  -2.142   2.018  0.00  0.00    +0.140 C 
BRANCH  22  23
ATOM     23  C   LIG    1       -3.531  -1.839   3.494  0.00  0.00    -0.080 A 
ATOM     24  C   LIG    1       -3.557  -2.872   4.412  0.00  0.00    +0.010 A 
ATOM     25  C   LIG    1       -3.563  -2.594   5.766  0.00  0.00    +0.000 A 
ATOM     26  C   LIG    1       -3.554  -1.283   6.202  0.00  0.00    +0.000 A 
ATOM     27  C   LIG    1       -3.534  -0.249   5.285  0.00  0.00    +0.000 A 
ATOM     28  C   LIG    1       -3.522  -0.527   3.931  0.00  0.00    +0.000 A 
ENDBRANCH  22  23
ENDBRANCH   3  22
TORSDOF 6
