REMARK  Name = ZINCvU0000000ITd.0
REMARK                            x       y       z     vdW  Elec       q    Type
REMARK                         _______ _______ _______ _____ _____    ______ ____
ROOT
ATOM      1  N   LIG    1       -2.069   2.388   3.432  0.00  0.00    -0.660 N 
ATOM      2  H   LIG    1       -1.124   2.594   3.354  0.00  0.00    +0.420 HD
ATOM      3  C   LIG    1       -2.781   2.873   4.469  0.00  0.00    +0.560 C 
ATOM      4  O   LIG    1       -3.939   2.534   4.622  0.00  0.00    -0.510 OA
ENDROOT
BRANCH   1  17
ATOM      5  C   LIG    1       -1.935   0.679   1.725  0.00  0.00    +0.090 A 
ATOM      6  C   LIG    1       -2.545  -0.109   0.769  0.00  0.00    +0.010 A 
ATOM      7  C   LIG    1       -3.918  -0.003   0.559  0.00  0.00    -0.100 A 
ATOM      8  C   LIG    1       -4.681   0.905   1.304  0.00  0.00    +0.080 A 
ATOM      9  O   LIG    1       -5.970   0.813   0.905  0.00  0.00    -0.190 OA
ATOM     10  C   LIG    1       -6.121  -0.110  -0.071  0.00  0.00    +0.090 A 
ATOM     11  C   LIG    1       -7.234  -0.548  -0.780  0.00  0.00    +0.030 A 
ATOM     12  C   LIG    1       -7.098  -1.525  -1.744  0.00  0.00    +0.060 A 
ATOM     13  C   LIG    1       -5.859  -2.081  -2.016  0.00  0.00    -0.010 A 
ATOM     14  C   LIG    1       -4.743  -1.659  -1.323  0.00  0.00    +0.070 A 
ATOM     15  C   LIG    1       -4.056   1.697   2.259  0.00  0.00    +0.080 A 
ATOM     16  C   LIG    1       -4.868  -0.674  -0.349  0.00  0.00    -0.120 A 
ATOM     17  C   LIG    1       -2.692   1.586   2.469  0.00  0.00    +0.160 A 
BRANCH   5  19
ATOM     18  C   LIG    1        0.117  -0.371   1.139  0.00  0.00    +0.250 C 
ATOM     19  O   LIG    1       -0.595   0.577   1.937  0.00  0.00    -0.320 OA
ENDBRANCH   5  19
ENDBRANCH   1  17
BRANCH   3  20
ATOM     20  C   LIG    1       -2.156   3.816   5.416  0.00  0.00    -0.180 A 
ATOM     21  C   LIG    1       -0.824   4.202   5.245  0.00  0.00    +0.090 A 
ATOM     22  C   LIG    1       -0.247   5.087   6.128  0.00  0.00    -0.080 A 
ATOM     23  C   LIG    1       -0.983   5.586   7.196  0.00  0.00    +0.170 A 
ATOM     24  C   LIG    1       -2.306   5.199   7.374  0.00  0.00    -0.020 A 
ATOM     25  C   LIG    1       -2.893   4.320   6.492  0.00  0.00    +0.140 A 
BRANCH  23  26
ATOM     26  O   LIG    1       -0.408   6.453   8.068  0.00  0.00    -0.300 OA
BRANCH  26  27
ATOM     27  C   LIG    1        0.955   6.808   7.826  0.00  0.00    +0.210 C 
BRANCH  27  28
ATOM     28  C   LIG    1        1.426   7.786   8.904  0.00  0.00    +0.160 C 
ATOM     29  C   LIG    1        2.928   8.114   8.713  0.00  0.00    +0.020 C 
ATOM     30  C   LIG    1        3.016   9.503   9.404  0.00  0.00    +0.010 C 
ATOM     31  C   LIG    1        1.638  10.119   9.080  0.00  0.00    +0.190 C 
ATOM     32  O   LIG    1        0.745   9.043   8.768  0.00  0.00    -0.370 OA
ENDBRANCH  27  28
ENDBRANCH  26  27
ENDBRANCH  23  26
ENDBRANCH   3  20
TORSDOF 6
