REMARK  Name = ZINCrD000000C1wS.0
REMARK                            x       y       z     vdW  Elec       q    Type
REMARK                         _______ _______ _______ _____ _____    ______ ____
ROOT
ATOM      1  O   LIG    1        1.334   1.869  -2.191  0.00  0.00    -0.510 OA
ATOM      2  C   LIG    1        0.136   1.995  -2.332  0.00  0.00    +0.530 C 
ATOM      3  N   LIG    1       -0.359   2.480  -3.488  0.00  0.00    -0.670 N 
ATOM      4  H   LIG    1       -1.318   2.518  -3.627  0.00  0.00    +0.410 HD
ENDROOT
BRANCH   2   5
ATOM      5  C   LIG    1       -0.799   1.610  -1.214  0.00  0.00    +0.000 C 
ATOM      6  C   LIG    1       -1.499   2.856  -0.625  0.00  0.00    +0.070 C 
ATOM      7  C   LIG    1       -1.583   2.568   0.858  0.00  0.00    +0.520 C 
ATOM      8  N   LIG    1       -0.744   1.568   1.184  0.00  0.00    -0.620 N 
ATOM      9  O   LIG    1       -2.302   3.154   1.640  0.00  0.00    -0.520 OA
ATOM     10  C   LIG    1       -0.013   1.083   0.007  0.00  0.00    +0.300 C 
BRANCH   8  11
ATOM     11  C   LIG    1       -0.581   1.032   2.537  0.00  0.00    +0.300 C 
BRANCH  11  12
ATOM     12  C   LIG    1        0.523   1.804   3.263  0.00  0.00    +0.060 C 
BRANCH  12  13
ATOM     13  C   LIG    1        0.691   1.252   4.655  0.00  0.00    -0.080 A 
ATOM     14  C   LIG    1       -0.041   1.782   5.701  0.00  0.00    +0.010 A 
ATOM     15  C   LIG    1        0.110   1.273   6.977  0.00  0.00    +0.000 A 
ATOM     16  C   LIG    1        1.000   0.240   7.209  0.00  0.00    +0.000 A 
ATOM     17  C   LIG    1        1.735  -0.286   6.163  0.00  0.00    +0.000 A 
ATOM     18  C   LIG    1        1.581   0.221   4.886  0.00  0.00    +0.000 A 
ENDBRANCH  12  13
ENDBRANCH  11  12
ENDBRANCH   8  11
ENDBRANCH   2   5
BRANCH   3  19
ATOM     19  C   LIG    1        0.512   2.928  -4.489  0.00  0.00    +0.120 A 
ATOM     20  C   LIG    1        0.157   4.008  -5.286  0.00  0.00    +0.030 A 
ATOM     21  C   LIG    1        1.019   4.454  -6.269  0.00  0.00    -0.030 A 
ATOM     22  C   LIG    1        2.233   3.814  -6.469  0.00  0.00    +0.090 A 
ATOM     23  C   LIG    1        2.586   2.731  -5.677  0.00  0.00    +0.020 A 
ATOM     24  C   LIG    1        1.728   2.289  -4.690  0.00  0.00    +0.070 A 
BRANCH  22  25
ATOM     25  O   LIG    1        3.079   4.249  -7.441  0.00  0.00    -0.320 OA
BRANCH  25  26
ATOM     26  C   LIG    1        2.651   5.369  -8.219  0.00  0.00    +0.590 C 
ATOM     27  F   LIG    1        2.447   6.469  -7.379  0.00  0.00    -0.200 F 
ATOM     28  F   LIG    1        1.456   5.054  -8.873  0.00  0.00    -0.200 F 
ENDBRANCH  25  26
ENDBRANCH  22  25
ENDBRANCH   3  19
TORSDOF 7
