REMARK  Name = ZINCrg00000A2Pb7.0
REMARK                            x       y       z     vdW  Elec       q    Type
REMARK                         _______ _______ _______ _____ _____    ______ ____
ROOT
ATOM      1  C   LIG    1        0.042   1.801  -2.424  0.00  0.00    +0.050 C 
ATOM      2  C   LIG    1       -0.839   1.637  -1.184  0.00  0.00    +0.160 C 
ATOM      3  C   LIG    1       -0.013   1.086   0.008  0.00  0.00    +0.050 C 
ATOM      4  C   LIG    1       -0.815   1.624   1.219  0.00  0.00    +0.250 C 
ATOM      5  N   LIG    1       -1.274   2.962   0.803  0.00  0.00    -0.620 N 
ATOM      6  C   LIG    1       -1.599   3.973   1.632  0.00  0.00    +0.530 C 
ATOM      7  O   LIG    1       -1.967   5.036   1.177  0.00  0.00    -0.540 OA
ATOM      8  C   LIG    1       -1.319   3.009  -0.666  0.00  0.00    +0.270 C 
ENDROOT
BRANCH   2   9
ATOM      9  N   LIG    1       -1.980   0.764  -1.472  0.00  0.00    -0.720 N 
ATOM     10  H   LIG    1       -2.884   1.107  -1.398  0.00  0.00    +0.400 HD
ATOM     11  C   LIG    1       -1.772  -0.516  -1.839  0.00  0.00    +0.520 C 
ATOM     12  O   LIG    1       -0.641  -0.945  -1.931  0.00  0.00    -0.520 OA
BRANCH  11  13
ATOM     13  C   LIG    1       -2.945  -1.414  -2.136  0.00  0.00    +0.090 C 
BRANCH  13  14
ATOM     14  C   LIG    1       -2.445  -2.783  -2.521  0.00  0.00    -0.090 C 
ATOM     15  C   LIG    1       -2.358  -3.698  -1.601  0.00  0.00    -0.070 C 
ATOM     16  C   LIG    1       -1.870  -5.091  -1.881  0.00  0.00    +0.250 C 
ATOM     17  O   LIG    1       -1.868  -5.339  -3.288  0.00  0.00    -0.380 OA
ATOM     18  C   LIG    1       -1.213  -4.309  -4.038  0.00  0.00    +0.220 C 
ATOM     19  C   LIG    1       -2.060  -3.036  -3.952  0.00  0.00    +0.040 C 
ENDBRANCH  13  14
ENDBRANCH  11  13
ENDBRANCH   2   9
BRANCH   6  20
ATOM     20  C   LIG    1       -1.506   3.784   3.124  0.00  0.00    +0.040 C 
BRANCH  20  21
ATOM     21  C   LIG    1       -1.928   5.075   3.829  0.00  0.00    +0.040 C 
BRANCH  21  22
ATOM     22  C   LIG    1       -1.833   4.883   5.344  0.00  0.00    +0.020 C 
BRANCH  22  23
ATOM     23  C   LIG    1       -2.255   6.173   6.050  0.00  0.00    +0.010 C 
BRANCH  23  24
ATOM     24  C   LIG    1       -2.160   5.981   7.564  0.00  0.00    +0.280 C 
BRANCH  24  25
ATOM     25  N   LIG    1       -2.564   7.217   8.240  0.00  0.00    -0.750 N 
ATOM     26  H   LIG    1       -2.835   7.989   7.718  0.00  0.00    +0.400 HD
ATOM     27  C   LIG    1       -2.559   7.282   9.586  0.00  0.00    +0.700 C 
ATOM     28  O   LIG    1       -2.220   6.315  10.240  0.00  0.00    -0.590 OA
ATOM     29  N   LIG    1       -2.931   8.419  10.207  0.00  0.00    -0.870 N 
ATOM     30  H   LIG    1       -2.928   8.466  11.176  0.00  0.00    +0.420 HD
ATOM     31  H   LIG    1       -3.202   9.190   9.685  0.00  0.00    +0.400 HD
ENDBRANCH  24  25
ENDBRANCH  23  24
ENDBRANCH  22  23
ENDBRANCH  21  22
ENDBRANCH  20  21
ENDBRANCH   6  20
TORSDOF 9
