REMARK  Name = ZINCnE000001MrRX.0
REMARK                            x       y       z     vdW  Elec       q    Type
REMARK                         _______ _______ _______ _____ _____    ______ ____
ROOT
ATOM      1  C   LIG    1        1.759   2.239   1.434  0.00  0.00    +0.040 C 
ATOM      2  C   LIG    1        1.242   2.093   0.001  0.00  0.00    +0.280 C 
ENDROOT
BRANCH   2   3
ATOM      3  C   LIG    1        1.009   3.460  -0.590  0.00  0.00    -0.080 A 
ATOM      4  C   LIG    1       -0.147   4.155  -0.285  0.00  0.00    +0.040 A 
ATOM      5  C   LIG    1       -0.361   5.410  -0.820  0.00  0.00    +0.020 A 
ATOM      6  C   LIG    1        0.581   5.969  -1.675  0.00  0.00    -0.100 A 
ATOM      7  C   LIG    1        1.740   5.265  -1.983  0.00  0.00    +0.040 A 
ATOM      8  C   LIG    1        1.950   4.013  -1.439  0.00  0.00    +0.050 A 
BRANCH   6   9
ATOM      9  S   LIG    1        0.309   7.567  -2.366  0.00  0.00    -0.100 S 
BRANCH   9  10
ATOM     10  C   LIG    1       -1.298   8.043  -1.671  0.00  0.00    +0.430 C 
ATOM     11  F   LIG    1       -1.213   8.069  -0.275  0.00  0.00    -0.180 F 
ATOM     12  F   LIG    1       -2.269   7.115  -2.063  0.00  0.00    -0.180 F 
ENDBRANCH   9  10
ENDBRANCH   6   9
ENDBRANCH   2   3
BRANCH   2  13
ATOM     13  N   LIG    1       -0.016   1.344   0.009  0.00  0.00    -0.720 N 
ATOM     14  H   LIG    1       -0.863   1.817   0.016  0.00  0.00    +0.400 HD
ATOM     15  C   LIG    1        0.002  -0.004   0.002  0.00  0.00    +0.580 C 
ATOM     16  O   LIG    1        1.060  -0.596  -0.011  0.00  0.00    -0.540 OA
BRANCH  15  17
ATOM     17  C   LIG    1       -1.293  -0.775   0.010  0.00  0.00    -0.190 C 
ATOM     18  C   LIG    1       -2.429  -0.765   1.063  0.00  0.00    +0.050 C 
ATOM     19  C   LIG    1       -2.971  -1.792   0.004  0.00  0.00    -0.150 C 
ATOM     20  C   LIG    1       -2.449  -0.754  -1.020  0.00  0.00    +0.050 C 
ATOM     21  C   LIG    1       -1.514  -2.303   0.004  0.00  0.00    +0.060 C 
BRANCH  19  22
ATOM     22  C   LIG    1       -4.254  -2.583   0.012  0.00  0.00    +0.550 C 
ATOM     23  O   LIG    1       -4.294  -3.684  -0.508  0.00  0.00    -0.680 OA
ATOM     24  O   LIG    1       -5.251  -2.120   0.539  0.00  0.00    -0.690 OA
ENDBRANCH  19  22
ENDBRANCH  15  17
ENDBRANCH   2  13
TORSDOF 6
