REMARK  Name = ZINCrH000004vFL1.0
REMARK                            x       y       z     vdW  Elec       q    Type
REMARK                         _______ _______ _______ _____ _____    ______ ____
ROOT
ATOM      1  O   LIG    1       -3.844   0.066   2.079  0.00  0.00    -0.530 OA
ATOM      2  C   LIG    1       -2.706   0.481   2.208  0.00  0.00    +0.620 C 
ATOM      3  N   LIG    1       -2.200   1.350   1.310  0.00  0.00    -0.600 N 
ATOM      4  C   LIG    1       -0.882   1.964   1.524  0.00  0.00    +0.290 C 
ATOM      5  C   LIG    1       -0.017   1.717   0.285  0.00  0.00    +0.030 C 
ATOM      6  C   LIG    1       -0.753   2.225  -0.957  0.00  0.00    +0.020 C 
ATOM      7  C   LIG    1       -2.066   1.456  -1.124  0.00  0.00    +0.260 C 
ATOM      8  C   LIG    1       -2.955   1.700   0.100  0.00  0.00    +0.300 C 
ENDROOT
BRANCH   2   9
ATOM      9  C   LIG    1       -1.890   0.037   3.337  0.00  0.00    -0.060 A 
ATOM     10  C   LIG    1       -2.312  -0.763   4.407  0.00  0.00    +0.110 A 
ATOM     11  C   LIG    1       -3.532  -1.370   4.737  0.00  0.00    +0.090 A 
ATOM     12  C   LIG    1       -3.618  -2.112   5.877  0.00  0.00    +0.060 A 
ATOM     13  C   LIG    1       -2.487  -2.260   6.695  0.00  0.00    +0.040 A 
ATOM     14  C   LIG    1       -1.318  -1.673   6.359  0.00  0.00    +0.230 A 
ATOM     15  N   LIG    1       -1.218  -0.927   5.220  0.00  0.00    -0.340 N 
ATOM     16  C   LIG    1       -0.187  -0.238   4.652  0.00  0.00    +0.150 A 
ATOM     17 BR   LIG    1        1.561  -0.117   5.362  0.00  0.00    +0.080 Br
ATOM     18  N   LIG    1       -0.588   0.324   3.548  0.00  0.00    -0.380 NA
ENDBRANCH   2   9
BRANCH   7  19
ATOM     19  N   LIG    1       -2.755   1.922  -2.330  0.00  0.00    -0.340 N 
ATOM     20  C   LIG    1       -3.579   2.987  -2.412  0.00  0.00    +0.250 A 
ATOM     21  C   LIG    1       -4.005   3.081  -3.693  0.00  0.00    -0.070 A 
ATOM     22  C   LIG    1       -3.430   2.031  -4.416  0.00  0.00    -0.020 A 
ATOM     23  N   LIG    1       -2.680   1.335  -3.600  0.00  0.00    -0.230 NA
BRANCH  22  24
ATOM     24  C   LIG    1       -3.638   1.749  -5.882  0.00  0.00    +0.560 C 
ATOM     25  F   LIG    1       -3.106   2.799  -6.638  0.00  0.00    -0.170 F 
ATOM     26  F   LIG    1       -5.006   1.632  -6.145  0.00  0.00    -0.170 F 
ATOM     27  F   LIG    1       -2.993   0.556  -6.223  0.00  0.00    -0.170 F 
ENDBRANCH  22  24
ENDBRANCH   7  19
TORSDOF 3
