REMARK  Name = ZINCrH000004lVFX.0
REMARK                            x       y       z     vdW  Elec       q    Type
REMARK                         _______ _______ _______ _____ _____    ______ ____
ROOT
ATOM      1  C   LIG    1       -0.132   7.484  -2.780  0.00  0.00    +0.180 A 
ATOM      2  N   LIG    1        1.112   7.868  -2.611  0.00  0.00    -0.290 NA
ATOM      3  N   LIG    1        1.461   8.651  -3.569  0.00  0.00    -0.250 NA
ATOM      4  C   LIG    1        0.467   8.819  -4.394  0.00  0.00    +0.160 A 
ATOM      5  N   LIG    1       -0.584   8.082  -3.921  0.00  0.00    -0.310 N 
ENDROOT
BRANCH   5   6
ATOM      6  N   LIG    1       -1.827   7.968  -4.476  0.00  0.00    -0.580 N 
ATOM      7  H   LIG    1       -1.778   8.003  -5.483  0.00  0.00    +0.380 HD
ATOM      8  H   LIG    1       -2.449   8.678  -4.118  0.00  0.00    +0.370 HD
ENDBRANCH   5   6
BRANCH   1   9
ATOM      9  S   LIG    1       -1.048   6.407  -1.728  0.00  0.00    +0.050 S 
BRANCH   9  10
ATOM     10  C   LIG    1        0.208   6.050  -0.474  0.00  0.00    +0.150 C 
BRANCH  10  14
ATOM     11  C   LIG    1       -1.432   3.411   2.466  0.00  0.00    +0.120 A 
ATOM     12  C   LIG    1       -1.533   4.783   2.630  0.00  0.00    +0.000 A 
ATOM     13  C   LIG    1       -1.003   5.635   1.676  0.00  0.00    -0.070 A 
ATOM     14  C   LIG    1       -0.368   5.119   0.562  0.00  0.00    -0.050 A 
ATOM     15  C   LIG    1       -0.259   3.750   0.395  0.00  0.00    +0.000 A 
ATOM     16 BR   LIG    1       -1.148   7.507   1.898  0.00  0.00    -0.030 Br
ATOM     17  C   LIG    1       -0.787   2.893   1.346  0.00  0.00    +0.120 A 
BRANCH  11  19
ATOM     18  C   LIG    1       -2.604   3.176   4.522  0.00  0.00    +0.250 C 
ATOM     19  O   LIG    1       -1.957   2.573   3.399  0.00  0.00    -0.300 OA
ENDBRANCH  11  19
BRANCH  17  20
ATOM     20  O   LIG    1       -0.682   1.547   1.184  0.00  0.00    -0.300 OA
ATOM     21  C   LIG    1       -0.013   1.086   0.008  0.00  0.00    +0.250 C 
ENDBRANCH  17  20
ENDBRANCH  10  14
ENDBRANCH   9  10
ENDBRANCH   1   9
BRANCH   4  22
ATOM     22  C   LIG    1        0.473   9.669  -5.639  0.00  0.00    +0.230 C 
BRANCH  22  23
ATOM     23  C   LIG    1        0.034  11.068  -5.294  0.00  0.00    -0.130 A 
ATOM     24  C   LIG    1       -1.288  11.437  -5.454  0.00  0.00    +0.040 A 
ATOM     25  C   LIG    1       -1.693  12.719  -5.132  0.00  0.00    +0.000 A 
ATOM     26  C   LIG    1       -0.773  13.637  -4.661  0.00  0.00    +0.060 A 
ATOM     27  C   LIG    1        0.551  13.273  -4.506  0.00  0.00    -0.010 A 
ATOM     28  C   LIG    1        0.956  11.987  -4.822  0.00  0.00    +0.120 A 
ATOM     29  F   LIG    1        2.250  11.630  -4.671  0.00  0.00    -0.120 F 
ENDBRANCH  22  23
ENDBRANCH   4  22
TORSDOF 8
