REMARK  Name = ZINCvU0000000EVl.0
REMARK                            x       y       z     vdW  Elec       q    Type
REMARK                         _______ _______ _______ _____ _____    ______ ____
ROOT
ATOM      1  C   LIG    1       -3.780   1.403   4.765  0.00  0.00    -0.190 A 
ATOM      2  C   LIG    1       -3.394   0.694   3.723  0.00  0.00    +0.090 A 
ATOM      3  C   LIG    1       -2.328   1.291   2.940  0.00  0.00    -0.240 A 
ATOM      4  C   LIG    1       -1.922   2.518   3.460  0.00  0.00    +0.090 A 
ATOM      5  N   LIG    1       -0.937   3.208   2.850  0.00  0.00    -0.500 NA
ATOM      6  C   LIG    1       -0.342   2.751   1.774  0.00  0.00    +0.360 A 
ATOM      7  N   LIG    1       -0.698   1.558   1.213  0.00  0.00    -0.510 N 
ATOM      8  C   LIG    1       -1.674   0.811   1.766  0.00  0.00    +0.560 A 
ATOM      9  O   LIG    1       -1.993  -0.256   1.272  0.00  0.00    -0.520 OA
ATOM     10  S   LIG    1       -2.867   2.894   4.895  0.00  0.00    +0.190 S 
ENDROOT
BRANCH   1  12
ATOM     11  C   LIG    1       -4.256   0.173   6.865  0.00  0.00    +0.030 C 
ATOM     12  C   LIG    1       -4.867   0.986   5.722  0.00  0.00    +0.120 C 
ENDBRANCH   1  12
BRANCH   7  13
ATOM     13  C   LIG    1       -0.013   1.086   0.008  0.00  0.00    +0.300 C 
BRANCH  13  14
ATOM     14  C   LIG    1       -0.753   1.593  -1.232  0.00  0.00    +0.010 C 
BRANCH  14  15
ATOM     15  C   LIG    1       -0.037   1.099  -2.490  0.00  0.00    -0.010 C 
ATOM     16  C   LIG    1       -0.702   1.707  -3.727  0.00  0.00    +0.020 C 
ATOM     17  C   LIG    1       -0.124  -0.427  -2.562  0.00  0.00    +0.030 C 
ENDBRANCH  14  15
ENDBRANCH  13  14
ENDBRANCH   7  13
BRANCH   6  18
ATOM     18  S   LIG    1        0.942   3.701   1.032  0.00  0.00    +0.100 S 
BRANCH  18  19
ATOM     19  C   LIG    1        0.977   5.117   2.159  0.00  0.00    +0.060 C 
BRANCH  19  20
ATOM     20  C   LIG    1       -0.326   5.868   2.063  0.00  0.00    -0.090 A 
ATOM     21  C   LIG    1       -0.719   6.417   0.857  0.00  0.00    +0.030 A 
ATOM     22  C   LIG    1       -1.916   7.102   0.767  0.00  0.00    +0.000 A 
ATOM     23  C   LIG    1       -2.716   7.246   1.886  0.00  0.00    +0.010 A 
ATOM     24  C   LIG    1       -2.319   6.702   3.093  0.00  0.00    +0.000 A 
ATOM     25  C   LIG    1       -1.124   6.013   3.182  0.00  0.00    +0.050 A 
ENDBRANCH  19  20
BRANCH  19  26
ATOM     26  C   LIG    1        2.114   6.031   1.781  0.00  0.00    +0.550 C 
ATOM     27  N   LIG    1        2.662   6.843   2.707  0.00  0.00    -0.690 N 
ATOM     28  H   LIG    1        2.325   6.838   3.616  0.00  0.00    +0.410 HD
ATOM     29  O   LIG    1        2.535   6.037   0.644  0.00  0.00    -0.520 OA
BRANCH  27  30
ATOM     30  C   LIG    1        3.767   7.732   2.340  0.00  0.00    +0.220 C 
ATOM     31  C   LIG    1        4.949   7.827   3.306  0.00  0.00    +0.020 C 
ATOM     32  C   LIG    1        3.967   8.995   3.180  0.00  0.00    +0.020 C 
ENDBRANCH  27  30
ENDBRANCH  19  26
ENDBRANCH  18  19
ENDBRANCH   6  18
TORSDOF 9
