REMARK  Name = ZINCrH000004v3ym.0
REMARK                            x       y       z     vdW  Elec       q    Type
REMARK                         _______ _______ _______ _____ _____    ______ ____
ROOT
ATOM      1  O   LIG    1        1.916   9.003  -0.036  0.00  0.00    -0.510 OA
ATOM      2  C   LIG    1        3.130   8.933  -0.046  0.00  0.00    +0.570 C 
ATOM      3  N   LIG    1        3.737   7.734   0.054  0.00  0.00    -0.660 N 
ATOM      4  H   LIG    1        4.703   7.684   0.130  0.00  0.00    +0.410 HD
ENDROOT
BRANCH   2   5
ATOM      5  C   LIG    1        3.938  10.162  -0.170  0.00  0.00    -0.230 A 
ATOM      6  C   LIG    1        3.317  11.415  -0.275  0.00  0.00    +0.180 A 
ATOM      7  C   LIG    1        4.116  12.534  -0.388  0.00  0.00    -0.030 A 
ATOM      8  C   LIG    1        5.499  12.386  -0.394  0.00  0.00    +0.350 A 
ATOM      9  N   LIG    1        6.056  11.188  -0.293  0.00  0.00    -0.530 NA
ATOM     10  C   LIG    1        5.332  10.094  -0.177  0.00  0.00    +0.340 A 
BRANCH   8  11
ATOM     11  O   LIG    1        6.288  13.482  -0.504  0.00  0.00    -0.240 OA
BRANCH  11  12
ATOM     12  C   LIG    1        7.630  13.293  -0.613  0.00  0.00    +0.090 A 
ATOM     13  C   LIG    1        8.477  13.738   0.391  0.00  0.00    +0.010 A 
ATOM     14  C   LIG    1        9.840  13.541   0.281  0.00  0.00    +0.020 A 
ATOM     15  C   LIG    1       10.361  12.911  -0.834  0.00  0.00    +0.010 A 
ATOM     16  C   LIG    1        9.519  12.472  -1.839  0.00  0.00    +0.030 A 
ATOM     17  C   LIG    1        8.155  12.661  -1.731  0.00  0.00    +0.010 A 
ENDBRANCH  11  12
ENDBRANCH   8  11
ENDBRANCH   2   5
BRANCH   3  18
ATOM     18  C   LIG    1        2.974   6.561   0.049  0.00  0.00    +0.090 A 
ATOM     19  C   LIG    1        1.726   6.533  -0.571  0.00  0.00    +0.100 A 
ATOM     20  C   LIG    1        1.007   5.351  -0.551  0.00  0.00    +0.010 A 
ATOM     21  C   LIG    1        1.550   4.239   0.081  0.00  0.00    +0.350 A 
ATOM     22  N   LIG    1        2.736   4.302   0.663  0.00  0.00    -0.480 NA
ATOM     23  C   LIG    1        3.451   5.409   0.661  0.00  0.00    +0.280 A 
BRANCH  21  24
ATOM     24  N   LIG    1        0.830   3.039   0.106  0.00  0.00    -0.330 N 
ATOM     25  C   LIG    1        1.232   1.877   0.683  0.00  0.00    +0.260 A 
ATOM     26  C   LIG    1        0.251   0.964   0.492  0.00  0.00    -0.100 A 
ATOM     27  C   LIG    1       -0.777   1.580  -0.231  0.00  0.00    +0.260 A 
ATOM     28  N   LIG    1       -0.433   2.822  -0.459  0.00  0.00    -0.290 NA
ENDBRANCH  21  24
ENDBRANCH   3  18
TORSDOF 5
