REMARK  Name = ZINCqH00000382g6.0
REMARK                            x       y       z     vdW  Elec       q    Type
REMARK                         _______ _______ _______ _____ _____    ______ ____
ROOT
ATOM      1  C   LIG    1       -1.205   1.592   0.017  0.00  0.00    +0.560 C 
ATOM      2  N   LIG    1       -0.011   0.966   0.007  0.00  0.00    -0.670 N 
ATOM      3  H   LIG    1        0.028  -0.003   0.007  0.00  0.00    +0.410 HD
ATOM      4  O   LIG    1       -1.256   2.804  -0.067  0.00  0.00    -0.500 OA
ENDROOT
BRANCH   1   8
ATOM      5  C   LIG    1       -4.785  -0.669   0.343  0.00  0.00    +0.150 A 
ATOM      6  C   LIG    1       -4.846   0.717   0.246  0.00  0.00    +0.020 A 
ATOM      7  C   LIG    1       -3.688   1.453   0.140  0.00  0.00    +0.110 A 
ATOM      8  C   LIG    1       -2.449   0.806   0.130  0.00  0.00    -0.130 A 
ATOM      9  C   LIG    1       -2.392  -0.587   0.222  0.00  0.00    +0.070 A 
ATOM     10  C   LIG    1       -3.555  -1.316   0.332  0.00  0.00    +0.020 A 
BRANCH   5  17
ATOM     11  C   LIG    1       -6.698  -0.524   2.736  0.00  0.00    +0.120 C 
ATOM     12  C   LIG    1       -6.838  -1.374   1.499  0.00  0.00    +0.020 A 
ATOM     13  C   LIG    1       -7.850  -2.226   1.236  0.00  0.00    -0.050 A 
ATOM     14  C   LIG    1       -7.589  -2.819  -0.016  0.00  0.00    -0.050 A 
ATOM     15  C   LIG    1       -6.431  -2.305  -0.474  0.00  0.00    +0.020 A 
ATOM     16  C   LIG    1       -5.765  -2.652  -1.781  0.00  0.00    +0.120 C 
ATOM     17  N   LIG    1       -5.964  -1.413   0.450  0.00  0.00    -0.410 N 
ENDBRANCH   5  17
ENDBRANCH   1   8
BRANCH   2  18
ATOM     18  C   LIG    1        1.171   1.714  -0.007  0.00  0.00    +0.200 A 
ATOM     19  C   LIG    1        1.227   2.912  -0.708  0.00  0.00    +0.010 A 
ATOM     20  C   LIG    1        2.394   3.650  -0.717  0.00  0.00    +0.150 A 
ATOM     21  C   LIG    1        3.509   3.193  -0.038  0.00  0.00    -0.680 A 
ATOM     22  C   LIG    1        3.457   1.998   0.656  0.00  0.00    +0.150 A 
ATOM     23  C   LIG    1        2.292   1.257   0.673  0.00  0.00    -0.020 A 
BRANCH  21  24
ATOM     24  S   LIG    1        4.998   4.135  -0.057  0.00  0.00    +2.500 S 
ATOM     25  O   LIG    1        5.662   3.765   1.144  0.00  0.00    -0.940 OA
ATOM     26  O   LIG    1        4.564   5.471  -0.273  0.00  0.00    -0.940 OA
ATOM     27  C   LIG    1        5.905   3.518  -1.502  0.00  0.00    -0.260 C 
ENDBRANCH  21  24
ENDBRANCH   2  18
TORSDOF 4
