REMARK  Name = ZINCqH0000036kyi.0
REMARK                            x       y       z     vdW  Elec       q    Type
REMARK                         _______ _______ _______ _____ _____    ______ ____
ROOT
ATOM      1  C   LIG    1       -1.101  -0.558   1.024  0.00  0.00    +0.100 A 
ATOM      2  C   LIG    1       -1.080  -1.896   1.381  0.00  0.00    -0.060 A 
ATOM      3  C   LIG    1        0.038  -2.663   1.109  0.00  0.00    +0.020 A 
ATOM      4  C   LIG    1        1.133  -2.099   0.485  0.00  0.00    +0.000 A 
ATOM      5  C   LIG    1        1.122  -0.760   0.125  0.00  0.00    -0.080 A 
ATOM      6  C   LIG    1        2.338  -0.177  -0.545  0.00  0.00    +0.040 C 
ATOM      7  C   LIG    1        2.911  -1.198  -1.529  0.00  0.00    +0.040 C 
ATOM      8  C   LIG    1        1.973   1.101  -1.300  0.00  0.00    +0.030 C 
ATOM      9  C   LIG    1        1.213   2.038  -0.351  0.00  0.00    +0.270 C 
ATOM     10  N   LIG    1       -0.037   1.368   0.035  0.00  0.00    -0.560 N 
ATOM     11  C   LIG    1       -1.203   2.043   0.040  0.00  0.00    +0.490 C 
ATOM     12  O   LIG    1       -2.252   1.441  -0.050  0.00  0.00    -0.440 OA
ATOM     13  C   LIG    1        0.004   0.011   0.393  0.00  0.00    +0.130 A 
ENDROOT
BRANCH   1  15
ATOM     14  C   LIG    1       -3.293  -0.450   1.939  0.00  0.00    +0.200 C 
ATOM     15  O   LIG    1       -2.198   0.199   1.290  0.00  0.00    -0.250 OA
ENDBRANCH   1  15
BRANCH  11  16
ATOM     16  C   LIG    1       -1.204   3.545   0.157  0.00  0.00    +0.110 C 
BRANCH  16  17
ATOM     17  C   LIG    1       -2.623   4.050   0.138  0.00  0.00    -0.080 A 
ATOM     18  C   LIG    1       -3.223   4.380  -1.064  0.00  0.00    +0.040 A 
ATOM     19  C   LIG    1       -4.525   4.838  -1.085  0.00  0.00    -0.010 A 
ATOM     20  C   LIG    1       -5.230   4.977   0.104  0.00  0.00    +0.140 A 
ATOM     21  C   LIG    1       -4.623   4.651   1.309  0.00  0.00    +0.010 A 
ATOM     22  C   LIG    1       -3.322   4.188   1.323  0.00  0.00    +0.040 A 
BRANCH  20  23
ATOM     23  N   LIG    1       -6.548   5.446   0.086  0.00  0.00    -0.680 N 
ATOM     24  H   LIG    1       -7.136   5.213  -0.650  0.00  0.00    +0.410 HD
ATOM     25  C   LIG    1       -7.002   6.220   1.092  0.00  0.00    +0.510 C 
ATOM     26  O   LIG    1       -6.242   6.591   1.962  0.00  0.00    -0.520 OA
ATOM     27  C   LIG    1       -8.453   6.624   1.136  0.00  0.00    +0.110 C 
ENDBRANCH  20  23
ENDBRANCH  16  17
ENDBRANCH  11  16
TORSDOF 4
