REMARK  Name = ZINCqH00000074P7.0
REMARK                            x       y       z     vdW  Elec       q    Type
REMARK                         _______ _______ _______ _____ _____    ______ ____
ROOT
ATOM      1  N   LIG    1        1.139   2.192   0.003  0.00  0.00    -0.660 N 
ATOM      2  H   LIG    1        1.985   1.721   0.060  0.00  0.00    +0.410 HD
ATOM      3  C   LIG    1       -0.019   1.503   0.018  0.00  0.00    +0.520 C 
ATOM      4  O   LIG    1       -1.077   2.096   0.023  0.00  0.00    -0.510 OA
ENDROOT
BRANCH   1  10
ATOM      5  C   LIG    1        2.127   4.254  -0.795  0.00  0.00    +0.100 A 
ATOM      6  C   LIG    1        2.102   5.636  -0.893  0.00  0.00    -0.060 A 
ATOM      7  C   LIG    1        1.086   6.353  -0.289  0.00  0.00    +0.040 A 
ATOM      8  C   LIG    1        0.091   5.696   0.411  0.00  0.00    -0.090 A 
ATOM      9  C   LIG    1        0.107   4.317   0.509  0.00  0.00    +0.070 A 
ATOM     10  C   LIG    1        1.122   3.590  -0.095  0.00  0.00    +0.120 A 
BRANCH   8  11
ATOM     11  C   LIG    1       -1.012   6.484   1.068  0.00  0.00    -0.020 C 
ATOM     12  C   LIG    1       -2.361   6.056   0.486  0.00  0.00    +0.040 C 
ATOM     13  C   LIG    1       -0.796   7.976   0.810  0.00  0.00    +0.040 C 
ATOM     14  C   LIG    1       -1.000   6.219   2.575  0.00  0.00    +0.040 C 
ENDBRANCH   8  11
BRANCH   5  16
ATOM     15  C   LIG    1        4.125   4.295  -2.085  0.00  0.00    +0.250 C 
ATOM     16  O   LIG    1        3.128   3.547  -1.384  0.00  0.00    -0.320 OA
ENDBRANCH   5  16
ENDBRANCH   1  10
BRANCH   3  17
ATOM     17  C   LIG    1        0.001  -0.004   0.023  0.00  0.00    +0.010 C 
ATOM     18  C   LIG    1        0.645  -0.545   1.320  0.00  0.00    +0.070 C 
ATOM     19  C   LIG    1       -0.529  -0.769   2.250  0.00  0.00    +0.520 C 
ATOM     20  N   LIG    1       -1.677  -0.776   1.551  0.00  0.00    -0.610 N 
ATOM     21  O   LIG    1       -0.445  -0.922   3.450  0.00  0.00    -0.520 OA
ATOM     22  C   LIG    1       -1.431  -0.575   0.118  0.00  0.00    +0.290 C 
BRANCH  20  23
ATOM     23  C   LIG    1       -3.004  -0.961   2.143  0.00  0.00    +0.250 C 
ATOM     24  C   LIG    1       -3.256   0.114   3.221  0.00  0.00    +0.020 C 
ATOM     25  C   LIG    1       -4.045  -0.633   4.325  0.00  0.00    +0.020 C 
ATOM     26  C   LIG    1       -3.373  -2.029   4.340  0.00  0.00    +0.010 C 
ATOM     27  C   LIG    1       -3.079  -2.323   2.855  0.00  0.00    +0.010 C 
ENDBRANCH  20  23
ENDBRANCH   3  17
TORSDOF 5
