REMARK  Name = ZINCrD000000BnaS.0
REMARK                            x       y       z     vdW  Elec       q    Type
REMARK                         _______ _______ _______ _____ _____    ______ ____
ROOT
ATOM      1  O   LIG    1       -2.203  -5.901  -0.714  0.00  0.00    -0.520 OA
ATOM      2  C   LIG    1       -1.865  -5.189  -1.636  0.00  0.00    +0.530 C 
ATOM      3  N   LIG    1       -1.278  -4.000  -1.389  0.00  0.00    -0.720 N 
ATOM      4  H   LIG    1       -1.008  -3.430  -2.125  0.00  0.00    +0.410 HD
ENDROOT
BRANCH   2   5
ATOM      5  C   LIG    1       -2.100  -5.631  -3.057  0.00  0.00    +0.010 C 
ATOM      6  C   LIG    1       -3.158  -4.740  -3.746  0.00  0.00    +0.100 C 
ATOM      7  C   LIG    1       -3.940  -5.698  -4.617  0.00  0.00    +0.530 C 
ATOM      8  N   LIG    1       -3.706  -6.965  -4.236  0.00  0.00    -0.580 N 
ATOM      9  O   LIG    1       -4.673  -5.370  -5.527  0.00  0.00    -0.510 OA
ATOM     10  C   LIG    1       -2.781  -7.018  -3.098  0.00  0.00    +0.310 C 
BRANCH   8  11
ATOM     11  C   LIG    1       -4.273  -8.093  -4.846  0.00  0.00    +0.070 A 
ATOM     12  C   LIG    1       -3.627  -8.707  -5.913  0.00  0.00    +0.140 A 
ATOM     13  C   LIG    1       -4.188  -9.821  -6.510  0.00  0.00    -0.010 A 
ATOM     14  C   LIG    1       -5.394 -10.319  -6.053  0.00  0.00    +0.100 A 
ATOM     15  C   LIG    1       -6.042  -9.708  -4.996  0.00  0.00    -0.010 A 
ATOM     16  F   LIG    1       -2.451  -8.217  -6.363  0.00  0.00    -0.120 F 
ATOM     17  C   LIG    1       -5.486  -8.596  -4.390  0.00  0.00    +0.140 A 
ATOM     18  F   LIG    1       -6.120  -8.000  -3.357  0.00  0.00    -0.120 F 
ENDBRANCH   8  11
ENDBRANCH   2   5
BRANCH   3  19
ATOM     19  C   LIG    1       -1.049  -3.570  -0.007  0.00  0.00    +0.400 C 
BRANCH  19  20
ATOM     20  C   LIG    1       -0.385  -2.217  -0.006  0.00  0.00    +0.010 A 
ATOM     21  C   LIG    1       -1.034  -1.044   0.006  0.00  0.00    -0.010 A 
ATOM     22  C   LIG    1        0.002  -0.004   0.002  0.00  0.00    -0.140 A 
ATOM     23  C   LIG    1       -0.017   1.390   0.010  0.00  0.00    +0.060 A 
ATOM     24  C   LIG    1        1.172   2.086   0.002  0.00  0.00    -0.010 A 
ATOM     25  C   LIG    1        2.381   1.407  -0.013  0.00  0.00    +0.050 A 
ATOM     26  C   LIG    1        2.413   0.028  -0.021  0.00  0.00    +0.020 A 
ATOM     27  C   LIG    1        1.226  -0.693  -0.013  0.00  0.00    +0.060 A 
ATOM     28  O   LIG    1        0.943  -2.012  -0.018  0.00  0.00    -0.190 OA
ENDBRANCH  19  20
ENDBRANCH   3  19
TORSDOF 4
