REMARK  Name = ZINCBI00000008Q5.1
REMARK                            x       y       z     vdW  Elec       q    Type
REMARK                         _______ _______ _______ _____ _____    ______ ____
ROOT
ATOM      1  C   LIG    1        3.910  -2.272   0.055  0.00  0.00    -0.150 A 
ATOM      2  C   LIG    1        3.723  -0.905   0.222  0.00  0.00    +0.400 A 
ATOM      3  N   LIG    1        4.920  -0.261   0.258  0.00  0.00    -0.470 N 
ATOM      4  C   LIG    1        5.961  -1.155   0.113  0.00  0.00    +0.290 A 
ATOM      5  N   LIG    1        7.270  -1.026   0.084  0.00  0.00    -0.440 NA
ATOM      6  C   LIG    1        8.043  -2.107  -0.074  0.00  0.00    +0.120 A 
ATOM      7  C   LIG    1        9.444  -1.979  -0.106  0.00  0.00    +0.040 A 
ATOM      8  C   LIG    1       10.222  -3.083  -0.268  0.00  0.00    +0.060 A 
ATOM      9  C   LIG    1        9.652  -4.348  -0.402  0.00  0.00    +0.040 A 
ATOM     10  C   LIG    1        8.302  -4.513  -0.376  0.00  0.00    +0.080 A 
ATOM     11  C   LIG    1        7.464  -3.394  -0.211  0.00  0.00    +0.090 A 
ATOM     12  N   LIG    1        6.135  -3.544  -0.183  0.00  0.00    -0.380 NA
ATOM     13  C   LIG    1        5.365  -2.486  -0.028  0.00  0.00    +0.130 A 
ENDROOT
BRANCH   2  14
ATOM     14  N   LIG    1        2.498  -0.290   0.339  0.00  0.00    -0.670 N 
ATOM     15  H   LIG    1        2.107   0.162  -0.425  0.00  0.00    +0.420 HD
ATOM     16  C   LIG    1        1.841  -0.315   1.516  0.00  0.00    +0.570 C 
ATOM     17  O   LIG    1        2.283  -0.963   2.444  0.00  0.00    -0.470 OA
BRANCH  16  18
ATOM     18  C   LIG    1        0.585   0.444   1.676  0.00  0.00    -0.190 A 
ATOM     19  C   LIG    1        0.074   1.189   0.611  0.00  0.00    +0.080 A 
ATOM     20  C   LIG    1       -1.096   1.901   0.770  0.00  0.00    +0.010 A 
ATOM     21  C   LIG    1       -1.772   1.870   1.977  0.00  0.00    +0.100 A 
ATOM     22  C   LIG    1       -1.275   1.135   3.038  0.00  0.00    -0.010 A 
ATOM     23  C   LIG    1       -0.099   0.421   2.896  0.00  0.00    +0.170 A 
ATOM     24  F   LIG    1        0.387  -0.297   3.932  0.00  0.00    -0.110 F 
ENDBRANCH  16  18
ENDBRANCH   2  14
BRANCH   1  25
ATOM     25  C   LIG    1        2.900  -3.264  -0.023  0.00  0.00    +0.550 C 
ATOM     26  O   LIG    1        2.476  -3.617  -1.107  0.00  0.00    -0.480 OA
BRANCH  25  27
ATOM     27  O   LIG    1        2.410  -3.817   1.106  0.00  0.00    -0.330 OA
BRANCH  27  29
ATOM     28  C   LIG    1        0.965  -5.317   2.332  0.00  0.00    +0.070 C 
ATOM     29  C   LIG    1        1.394  -4.810   0.954  0.00  0.00    +0.200 C 
ENDBRANCH  27  29
ENDBRANCH  25  27
ENDBRANCH   1  25
BRANCH   3  30
ATOM     30  C   LIG    1        5.083   1.185   0.428  0.00  0.00    +0.330 C 
BRANCH  30  31
ATOM     31  C   LIG    1        5.317   1.502   1.906  0.00  0.00    +0.030 C 
BRANCH  31  32
ATOM     32  C   LIG    1        5.487   3.012   2.083  0.00  0.00    +0.270 C 
BRANCH  32  33
ATOM     33  N   LIG    1        5.713   3.316   3.503  0.00  0.00    -0.380 N 
ATOM     34  C   LIG    1        4.513   2.967   4.275  0.00  0.00    +0.230 C 
ATOM     35  C   LIG    1        4.750   3.285   5.754  0.00  0.00    +0.260 C 
ATOM     36  O   LIG    1        5.079   4.670   5.891  0.00  0.00    -0.360 OA
ATOM     37  C   LIG    1        6.229   5.064   5.137  0.00  0.00    +0.260 C 
ATOM     38  C   LIG    1        5.994   4.750   3.658  0.00  0.00    +0.240 C 
ATOM     39  H   LIG    1        6.498   2.781   3.841  0.00  0.00    +0.420 HD
ENDBRANCH  32  33
ENDBRANCH  31  32
ENDBRANCH  30  31
ENDBRANCH   3  30
TORSDOF 9
