REMARK  Name = ZINCrH000004tSil.0
REMARK                            x       y       z     vdW  Elec       q    Type
REMARK                         _______ _______ _______ _____ _____    ______ ____
ROOT
ATOM      1  O   LIG    1        3.758   3.050  -2.159  0.00  0.00    -0.520 OA
ATOM      2  C   LIG    1        4.171   2.742  -1.061  0.00  0.00    +0.520 C 
ATOM      3  N   LIG    1        3.513   3.145   0.044  0.00  0.00    -0.560 N 
ENDROOT
BRANCH   3   4
ATOM      4  C   LIG    1        2.299   3.826  -0.075  0.00  0.00    +0.170 A 
ATOM      5  C   LIG    1        2.280   5.200  -0.165  0.00  0.00    +0.040 A 
ATOM      6  C   LIG    1        1.077   5.891  -0.283  0.00  0.00    +0.020 A 
ATOM      7  C   LIG    1       -0.112   5.227  -0.315  0.00  0.00    +0.040 A 
ATOM      8  C   LIG    1       -0.134   3.826  -0.227  0.00  0.00    -0.100 A 
ATOM      9  C   LIG    1       -1.346   3.111  -0.257  0.00  0.00    +0.080 A 
ATOM     10  C   LIG    1       -1.293   1.748  -0.171  0.00  0.00    -0.030 A 
ATOM     11  C   LIG    1       -0.062   1.107  -0.047  0.00  0.00    +0.290 A 
ATOM     12  N   LIG    1        1.064   1.777  -0.020  0.00  0.00    -0.460 NA
ATOM     13  C   LIG    1        1.082   3.110  -0.105  0.00  0.00    +0.130 A 
ENDBRANCH   3   4
BRANCH   3  14
ATOM     14  C   LIG    1        4.071   2.869   1.370  0.00  0.00    +0.230 C 
ATOM     15  C   LIG    1        3.010   2.189   2.259  0.00  0.00    +0.020 C 
ATOM     16  C   LIG    1        3.255   2.788   3.667  0.00  0.00    +0.010 C 
ATOM     17  C   LIG    1        3.606   4.264   3.355  0.00  0.00    +0.010 C 
ATOM     18  C   LIG    1        4.451   4.188   2.067  0.00  0.00    +0.000 C 
ENDBRANCH   3  14
BRANCH   2  19
ATOM     19  C   LIG    1        5.421   1.910  -0.933  0.00  0.00    +0.080 C 
BRANCH  19  20
ATOM     20  C   LIG    1        6.050   1.718  -2.314  0.00  0.00    +0.040 C 
ATOM     21  C   LIG    1        7.243   0.774  -2.201  0.00  0.00    +0.030 C 
ATOM     22  C   LIG    1        7.738   0.363  -3.584  0.00  0.00    +0.070 C 
ATOM     23  C   LIG    1        8.396   1.557  -4.280  0.00  0.00    -0.350 C 
ATOM     24  S   LIG    1        7.147   2.850  -4.543  0.00  0.00    +2.420 S 
ATOM     25  O   LIG    1        6.111   2.322  -5.360  0.00  0.00    -0.930 OA
ATOM     26  O   LIG    1        7.806   4.045  -4.941  0.00  0.00    -0.940 OA
ATOM     27  C   LIG    1        6.506   3.074  -2.858  0.00  0.00    -0.320 C 
ENDBRANCH  19  20
ENDBRANCH   2  19
TORSDOF 4
