REMARK  Name = ZINCqH0000003iuw.0
REMARK                            x       y       z     vdW  Elec       q    Type
REMARK                         _______ _______ _______ _____ _____    ______ ____
ROOT
ATOM      1  N   LIG    1       -0.011   0.966   0.007  0.00  0.00    -0.720 N 
ATOM      2  H   LIG    1        0.002  -0.004   0.002  0.00  0.00    +0.410 HD
ATOM      3  C   LIG    1        1.147   1.655   0.000  0.00  0.00    +0.600 C 
ATOM      4  O   LIG    1        1.130   2.872   0.007  0.00  0.00    -0.510 OA
ENDROOT
BRANCH   3   5
ATOM      5  C   LIG    1        2.429   0.938  -0.016  0.00  0.00    -0.030 A 
ATOM      6  C   LIG    1        3.654   1.526  -0.030  0.00  0.00    +0.060 A 
ATOM      7  C   LIG    1        4.627   0.435  -0.040  0.00  0.00    -0.140 A 
ATOM      8  C   LIG    1        6.022   0.375  -0.053  0.00  0.00    +0.070 A 
ATOM      9  C   LIG    1        6.648  -0.840  -0.066  0.00  0.00    -0.100 A 
ATOM     10  C   LIG    1        5.906  -2.013  -0.066  0.00  0.00    +0.060 A 
ATOM     11  C   LIG    1        4.528  -1.976  -0.052  0.00  0.00    +0.030 A 
ATOM     12  C   LIG    1        8.153  -0.907  -0.080  0.00  0.00    +0.100 C 
ATOM     13  C   LIG    1        3.870  -0.752  -0.039  0.00  0.00    +0.070 A 
ATOM     14  O   LIG    1        2.568  -0.404  -0.025  0.00  0.00    -0.180 OA
ENDBRANCH   3   5
BRANCH   1  15
ATOM     15  C   LIG    1       -1.290   1.681   0.017  0.00  0.00    +0.250 C 
ATOM     16  C   LIG    1       -1.680   2.047  -1.416  0.00  0.00    +0.030 C 
BRANCH  15  22
ATOM     17  C   LIG    1       -2.868  -1.534   3.241  0.00  0.00    +0.650 C 
ATOM     18  N   LIG    1       -3.085  -0.330   2.676  0.00  0.00    -0.590 N 
ATOM     19  C   LIG    1       -4.432   0.259   2.662  0.00  0.00    +0.270 C 
ATOM     20  C   LIG    1       -4.794   0.627   1.220  0.00  0.00    +0.020 C 
ATOM     21  C   LIG    1       -3.706   1.533   0.639  0.00  0.00    +0.030 C 
ATOM     22  C   LIG    1       -2.370   0.786   0.627  0.00  0.00    -0.030 C 
ATOM     23  C   LIG    1       -1.980   0.420   2.063  0.00  0.00    +0.310 C 
ATOM     24  O   LIG    1       -1.750  -2.010   3.246  0.00  0.00    -0.570 OA
BRANCH  17  25
ATOM     25  O   LIG    1       -3.890  -2.210   3.800  0.00  0.00    -0.370 OA
BRANCH  25  27
ATOM     26  C   LIG    1       -4.859  -4.113   4.969  0.00  0.00    +0.070 C 
ATOM     27  C   LIG    1       -3.583  -3.501   4.389  0.00  0.00    +0.220 C 
ENDBRANCH  25  27
ENDBRANCH  17  25
ENDBRANCH  15  22
ENDBRANCH   1  15
TORSDOF 5
