REMARK  Name = ZINCnE000004Rg6w.0
REMARK                            x       y       z     vdW  Elec       q    Type
REMARK                         _______ _______ _______ _____ _____    ______ ____
ROOT
ATOM      1  C   LIG    1       -0.847   7.657   0.257  0.00  0.00    -0.090 C 
ATOM      2  C   LIG    1        0.602   7.764  -0.285  0.00  0.00    +0.060 C 
ATOM      3  C   LIG    1        1.115   6.312  -0.192  0.00  0.00    +0.210 C 
ATOM      4  N   LIG    1       -0.064   5.434  -0.173  0.00  0.00    -0.630 N 
ATOM      5  C   LIG    1       -0.041   4.089  -0.078  0.00  0.00    +0.720 C 
ATOM      6  N   LIG    1        1.137   3.440   0.009  0.00  0.00    -0.680 N 
ATOM      7  H   LIG    1        1.964   3.943   0.072  0.00  0.00    +0.410 HD
ATOM      8  O   LIG    1       -1.083   3.462  -0.072  0.00  0.00    -0.580 OA
ATOM      9  C   LIG    1       -1.276   6.266  -0.280  0.00  0.00    +0.300 C 
ENDROOT
BRANCH   6  10
ATOM     10  C   LIG    1        1.167   2.041   0.009  0.00  0.00    +0.130 A 
ATOM     11  C   LIG    1        0.147   1.314   0.623  0.00  0.00    +0.090 A 
ATOM     12  C   LIG    1        0.216  -0.066   0.600  0.00  0.00    +0.000 A 
ATOM     13  C   LIG    1        1.297  -0.683  -0.034  0.00  0.00    +0.160 A 
ATOM     14  N   LIG    1        2.249   0.044  -0.608  0.00  0.00    -0.450 NA
ATOM     15  C   LIG    1        2.212   1.361  -0.603  0.00  0.00    +0.240 A 
BRANCH  13  16
ATOM     16  C   LIG    1        1.382  -2.156  -0.066  0.00  0.00    -0.130 A 
ATOM     17  C   LIG    1        2.369  -2.866  -0.650  0.00  0.00    +0.060 A 
ATOM     18  C   LIG    1        2.233  -4.235  -0.546  0.00  0.00    +0.030 A 
ATOM     19  C   LIG    1        1.140  -4.648   0.107  0.00  0.00    -0.150 A 
ATOM     20 CL   LIG    1        0.708  -6.307   0.382  0.00  0.00    -0.010 Cl
ATOM     21  S   LIG    1        0.208  -3.257   0.643  0.00  0.00    +0.180 S 
ENDBRANCH  13  16
ENDBRANCH   6  10
BRANCH   1  23
ATOM     22  O   LIG    1       -2.912   8.551  -0.473  0.00  0.00    -0.690 OA
ATOM     23  C   LIG    1       -1.719   8.746  -0.313  0.00  0.00    +0.500 C 
ATOM     24  O   LIG    1       -1.232   9.822  -0.615  0.00  0.00    -0.690 OA
ENDBRANCH   1  23
TORSDOF 3
