REMARK  Name = ZINCrH00000No4KG.0
REMARK                            x       y       z     vdW  Elec       q    Type
REMARK                         _______ _______ _______ _____ _____    ______ ____
ROOT
ATOM      1  C   LIG    1        0.009   1.240   0.228  0.00  0.00    +0.510 C 
ATOM      2  N   LIG    1       -1.163   1.904   0.276  0.00  0.00    -0.730 N 
ATOM      3  H   LIG    1       -1.179   2.868   0.174  0.00  0.00    +0.400 HD
ATOM      4  O   LIG    1        0.029   0.034   0.356  0.00  0.00    -0.530 OA
ENDROOT
BRANCH   1   5
ATOM      5  C   LIG    1        1.294   1.996   0.010  0.00  0.00    +0.100 C 
BRANCH   5   9
ATOM      6  C   LIG    1        4.570  -0.748  -0.043  0.00  0.00    +0.150 A 
ATOM      7  C   LIG    1        3.910  -0.429  -1.223  0.00  0.00    -0.010 A 
ATOM      8  C   LIG    1        2.852   0.458  -1.202  0.00  0.00    +0.040 A 
ATOM      9  C   LIG    1        2.449   1.028  -0.009  0.00  0.00    -0.080 A 
ATOM     10  C   LIG    1        3.107   0.717   1.167  0.00  0.00    +0.040 A 
ATOM     11  C   LIG    1        4.163  -0.173   1.154  0.00  0.00    +0.010 A 
BRANCH   6  13
ATOM     12  C   LIG    1        5.856  -2.461   0.991  0.00  0.00    +0.540 C 
ATOM     13  N   LIG    1        5.642  -1.646  -0.061  0.00  0.00    -0.670 N 
ATOM     14  H   LIG    1        6.233  -1.681  -0.830  0.00  0.00    +0.410 HD
ATOM     15  O   LIG    1        5.062  -2.486   1.912  0.00  0.00    -0.520 OA
BRANCH  12  17
ATOM     16  C   LIG    1        7.258  -4.127   2.062  0.00  0.00    +0.160 C 
ATOM     17  C   LIG    1        7.048  -3.322   1.024  0.00  0.00    -0.090 C 
ENDBRANCH  12  17
ENDBRANCH   6  13
ENDBRANCH   5   9
ENDBRANCH   1   5
BRANCH   2  18
ATOM     18  C   LIG    1       -2.414   1.169   0.482  0.00  0.00    +0.290 C 
BRANCH  18  19
ATOM     19  C   LIG    1       -3.587   2.151   0.495  0.00  0.00    +0.130 C 
ATOM     20  C   LIG    1       -4.925   1.400   0.712  0.00  0.00    +0.010 C 
ATOM     21  C   LIG    1       -5.825   2.508   1.308  0.00  0.00    +0.010 C 
ATOM     22  C   LIG    1       -4.830   3.555   1.863  0.00  0.00    +0.110 C 
ATOM     23  C   LIG    1       -5.043   3.621   3.395  0.00  0.00    +0.030 C 
ATOM     24  C   LIG    1       -3.805   4.180   4.037  0.00  0.00    +0.020 C 
ATOM     25  C   LIG    1       -3.881   5.705   4.252  0.00  0.00    +0.000 C 
ATOM     26  C   LIG    1       -4.495   6.448   3.050  0.00  0.00    +0.000 C 
ATOM     27  C   LIG    1       -4.000   5.908   1.735  0.00  0.00    +0.030 C 
ATOM     28  C   LIG    1       -5.007   4.858   1.232  0.00  0.00    +0.010 C 
ATOM     29  O   LIG    1       -3.505   3.024   1.640  0.00  0.00    -0.360 OA
ENDBRANCH  18  19
ENDBRANCH   2  18
TORSDOF 6
