REMARK  Name = ZINCrH000004so1e.0
REMARK                            x       y       z     vdW  Elec       q    Type
REMARK                         _______ _______ _______ _____ _____    ______ ____
ROOT
ATOM      1  C   LIG    1        7.520  -1.799  -0.076  0.00  0.00    +0.350 C 
ATOM      2  C   LIG    1        8.103  -1.535   1.313  0.00  0.00    +0.050 C 
ENDROOT
BRANCH   1   3
ATOM      3  N   LIG    1        8.172  -0.924  -1.054  0.00  0.00    -0.740 N 
ATOM      4  H   LIG    1        7.763  -0.078  -1.296  0.00  0.00    +0.390 HD
ATOM      5  C   LIG    1        9.340  -1.293  -1.615  0.00  0.00    +0.720 C 
ATOM      6  N   LIG    1        9.888  -0.539  -2.589  0.00  0.00    -0.630 N 
ATOM      7  C   LIG    1       11.109  -0.967  -3.292  0.00  0.00    +0.320 C 
ATOM      8  C   LIG    1       10.742  -1.196  -4.763  0.00  0.00    +0.110 C 
ATOM      9  C   LIG    1        9.943  -0.040  -5.301  0.00  0.00    +0.100 A 
ATOM     10  N   LIG    1        9.889   0.112  -6.620  0.00  0.00    -0.440 NA
ATOM     11  C   LIG    1        9.185   1.089  -7.156  0.00  0.00    +0.230 A 
ATOM     12  C   LIG    1        8.494   1.967  -6.340  0.00  0.00    +0.230 A 
ATOM     13  N   LIG    1        8.551   1.823  -5.030  0.00  0.00    -0.430 NA
ATOM     14  C   LIG    1        9.264   0.843  -4.489  0.00  0.00    +0.060 A 
ATOM     15  C   LIG    1        9.296   0.743  -2.985  0.00  0.00    +0.370 C 
ATOM     16  O   LIG    1        9.899  -2.307  -1.244  0.00  0.00    -0.570 OA
ENDBRANCH   1   3
BRANCH   1  19
ATOM     17  C   LIG    1        5.364  -3.916  -0.069  0.00  0.00    +0.150 C 
ATOM     18  C   LIG    1        5.068  -2.438  -0.058  0.00  0.00    +0.090 A 
ATOM     19  C   LIG    1        6.039  -1.519  -0.061  0.00  0.00    -0.240 A 
ATOM     20  S   LIG    1        5.289   0.076  -0.044  0.00  0.00    +0.090 S 
ATOM     21  C   LIG    1        3.697  -0.679  -0.034  0.00  0.00    +0.130 A 
ATOM     22  N   LIG    1        3.840  -1.973  -0.038  0.00  0.00    -0.460 NA
BRANCH  21  23
ATOM     23  C   LIG    1        2.406   0.042  -0.016  0.00  0.00    -0.030 A 
ATOM     24  C   LIG    1        1.206  -0.670  -0.009  0.00  0.00    +0.070 A 
ATOM     25  C   LIG    1        0.005   0.008   0.007  0.00  0.00    +0.010 A 
ATOM     26  C   LIG    1       -0.012   1.391   0.018  0.00  0.00    +0.030 A 
ATOM     27  C   LIG    1        1.174   2.103   0.011  0.00  0.00    +0.010 A 
ATOM     28  C   LIG    1        2.382   1.437  -0.006  0.00  0.00    +0.020 A 
ENDBRANCH  21  23
ENDBRANCH   1  19
TORSDOF 3
