REMARK  Name = ZINCbw0000000HkM.0
REMARK                            x       y       z     vdW  Elec       q    Type
REMARK                         _______ _______ _______ _____ _____    ______ ____
ROOT
ATOM      1  C   LIG    1        2.747   4.567   0.001  0.00  0.00    +0.100 C 
ATOM      2  C   LIG    1        1.242   4.490   0.014  0.00  0.00    -0.040 A 
ATOM      3  C   LIG    1        0.604   3.248   0.013  0.00  0.00    -0.080 A 
ATOM      4  C   LIG    1        1.076   1.861   0.002  0.00  0.00    -0.050 A 
ATOM      5  C   LIG    1       -0.013   1.076   0.008  0.00  0.00    +0.240 A 
ATOM      6  N   LIG    1       -1.143   1.846   0.017  0.00  0.00    -0.590 N 
ATOM      7  H   LIG    1       -2.051   1.503   0.019  0.00  0.00    +0.420 HD
ATOM      8  C   LIG    1       -0.800   3.180   0.026  0.00  0.00    +0.060 A 
ATOM      9  C   LIG    1       -1.540   4.360   0.039  0.00  0.00    +0.080 A 
ATOM     10  C   LIG    1       -0.889   5.577   0.039  0.00  0.00    +0.010 A 
ATOM     11  F   LIG    1       -2.890   4.314   0.052  0.00  0.00    -0.140 F 
ATOM     12  C   LIG    1        0.498   5.636   0.026  0.00  0.00    +0.000 A 
ENDROOT
TORSDOF 0
