REMARK  Name = ZINCrD000000fobJ.0
REMARK                            x       y       z     vdW  Elec       q    Type
REMARK                         _______ _______ _______ _____ _____    ______ ____
ROOT
ATOM      1  C   LIG    1       -5.446   8.372   5.853  0.00  0.00    -0.720 A 
ATOM      2  C   LIG    1       -5.237   7.014   5.949  0.00  0.00    +0.240 A 
ATOM      3  C   LIG    1       -4.189   6.419   5.242  0.00  0.00    -0.160 A 
ATOM      4  C   LIG    1       -3.366   7.204   4.432  0.00  0.00    +0.140 A 
ATOM      5  C   LIG    1       -3.588   8.562   4.339  0.00  0.00    -0.010 A 
ATOM      6  C   LIG    1       -4.626   9.147   5.046  0.00  0.00    +0.220 A 
ATOM      7  F   LIG    1       -4.839  10.478   4.951  0.00  0.00    -0.110 F 
ENDROOT
BRANCH   3   8
ATOM      8  C   LIG    1       -3.956   4.964   5.347  0.00  0.00    +0.560 C 
ATOM      9  N   LIG    1       -2.948   4.392   4.659  0.00  0.00    -0.720 N 
ATOM     10  H   LIG    1       -2.375   4.936   4.096  0.00  0.00    +0.400 HD
ATOM     11  O   LIG    1       -4.674   4.283   6.053  0.00  0.00    -0.520 OA
BRANCH   9  12
ATOM     12  C   LIG    1       -2.717   2.949   4.763  0.00  0.00    +0.280 C 
ATOM     13  C   LIG    1       -1.851   2.658   5.990  0.00  0.00    +0.040 C 
BRANCH  12  14
ATOM     14  C   LIG    1       -2.012   2.463   3.523  0.00  0.00    -0.100 A 
ATOM     15  C   LIG    1       -2.366   1.254   2.955  0.00  0.00    +0.030 A 
ATOM     16  C   LIG    1       -1.719   0.808   1.818  0.00  0.00    +0.020 A 
ATOM     17  C   LIG    1       -0.718   1.572   1.248  0.00  0.00    -0.080 A 
ATOM     18  C   LIG    1       -0.360   2.779   1.819  0.00  0.00    +0.010 A 
ATOM     19  C   LIG    1       -1.010   3.227   2.953  0.00  0.00    +0.010 A 
BRANCH  17  20
ATOM     20  C   LIG    1       -0.013   1.086   0.008  0.00  0.00    +0.050 C 
ATOM     21  C   LIG    1       -0.753   1.593  -1.232  0.00  0.00    +0.030 C 
ENDBRANCH  17  20
ENDBRANCH  12  14
ENDBRANCH   9  12
ENDBRANCH   3   8
BRANCH   1  22
ATOM     22  S   LIG    1       -6.763   9.125   6.749  0.00  0.00    +2.700 S 
ATOM     23  O   LIG    1       -7.385   8.088   7.495  0.00  0.00    -0.940 OA
ATOM     24  O   LIG    1       -7.464   9.943   5.821  0.00  0.00    -0.940 OA
BRANCH  22  25
ATOM     25  N   LIG    1       -6.080  10.152   7.854  0.00  0.00    -1.110 NA
ATOM     26  H   LIG    1       -6.180   9.978   8.803  0.00  0.00    +0.420 HD
BRANCH  25  27
ATOM     27  C   LIG    1       -5.326  11.322   7.399  0.00  0.00    +0.300 C 
BRANCH  27  29
ATOM     28  C   LIG    1       -3.924  12.665   8.880  0.00  0.00    +0.040 C 
ATOM     29  C   LIG    1       -5.130  12.273   8.552  0.00  0.00    -0.050 C 
ENDBRANCH  27  29
ENDBRANCH  25  27
ENDBRANCH  22  25
ENDBRANCH   1  22
TORSDOF 8
