REMARK  Name = ZINCvU0000000HN0.0
REMARK                            x       y       z     vdW  Elec       q    Type
REMARK                         _______ _______ _______ _____ _____    ______ ____
ROOT
ATOM      1  S   LIG    1        7.638  -1.120   1.498  0.00  0.00    +0.060 S 
ENDROOT
BRANCH   1   7
ATOM      2  C   LIG    1        5.109   0.779   2.462  0.00  0.00    +0.360 C 
ATOM      3  N   LIG    1        5.425   0.533   1.053  0.00  0.00    -0.450 N 
ATOM      4  C   LIG    1        4.761   1.020  -0.039  0.00  0.00    +0.170 A 
ATOM      5  N   LIG    1        5.370   0.565  -1.097  0.00  0.00    -0.250 NA
ATOM      6  N   LIG    1        6.364  -0.174  -0.751  0.00  0.00    -0.280 NA
ATOM      7  C   LIG    1        6.442  -0.231   0.558  0.00  0.00    +0.160 A 
BRANCH   4   8
ATOM      8  C   LIG    1        3.553   1.920  -0.022  0.00  0.00    +0.350 C 
BRANCH   8   9
ATOM      9  O   LIG    1        2.366   1.124  -0.015  0.00  0.00    -0.310 OA
BRANCH   9  10
ATOM     10  C   LIG    1        1.179   1.786   0.000  0.00  0.00    +0.140 A 
ATOM     11  C   LIG    1       -0.013   1.076   0.008  0.00  0.00    +0.010 A 
ATOM     12  C   LIG    1       -1.218   1.751   0.017  0.00  0.00    +0.070 A 
ATOM     13  C   LIG    1       -1.237   3.134   0.030  0.00  0.00    -0.070 A 
ATOM     14  C   LIG    1       -0.050   3.844   0.023  0.00  0.00    +0.070 A 
ATOM     15 CL   LIG    1       -2.753   3.980   0.049  0.00  0.00    -0.070 Cl
ATOM     16  C   LIG    1        1.158   3.173   0.008  0.00  0.00    -0.060 A 
ENDBRANCH   9  10
ENDBRANCH   8   9
ENDBRANCH   4   8
ENDBRANCH   1   7
BRANCH   1  17
ATOM     17  C   LIG    1        8.614  -1.847   0.158  0.00  0.00    +0.050 C 
BRANCH  17  18
ATOM     18  C   LIG    1        9.297  -0.750  -0.618  0.00  0.00    -0.090 A 
ATOM     19  C   LIG    1       10.179   0.102   0.019  0.00  0.00    +0.030 A 
ATOM     20  C   LIG    1       10.808   1.105  -0.694  0.00  0.00    +0.000 A 
ATOM     21  C   LIG    1       10.549   1.261  -2.043  0.00  0.00    +0.010 A 
ATOM     22  C   LIG    1        9.662   0.412  -2.679  0.00  0.00    +0.010 A 
ATOM     23  C   LIG    1        9.036  -0.593  -1.967  0.00  0.00    +0.060 A 
ENDBRANCH  17  18
BRANCH  17  24
ATOM     24  C   LIG    1        9.652  -2.773   0.738  0.00  0.00    +0.430 C 
ATOM     25  O   LIG    1       10.044  -2.609   1.874  0.00  0.00    -0.430 OA
BRANCH  24  26
ATOM     26  C   LIG    1       10.190  -3.876  -0.074  0.00  0.00    -0.160 A 
ATOM     27  C   LIG    1        9.736  -4.072  -1.382  0.00  0.00    +0.060 A 
ATOM     28  C   LIG    1       10.248  -5.105  -2.138  0.00  0.00    +0.000 A 
ATOM     29  C   LIG    1       11.202  -5.953  -1.602  0.00  0.00    +0.050 A 
ATOM     30  C   LIG    1       11.652  -5.769  -0.306  0.00  0.00    +0.000 A 
ATOM     31  C   LIG    1       11.153  -4.737   0.461  0.00  0.00    +0.080 A 
ENDBRANCH  24  26
ENDBRANCH  17  24
ENDBRANCH   1  17
TORSDOF 8
