REMARK  Name = ZINCvU0000000G0d.1
REMARK                            x       y       z     vdW  Elec       q    Type
REMARK                         _______ _______ _______ _____ _____    ______ ____
ROOT
ATOM      1  N   LIG    1       -0.698   1.558   1.213  0.00  0.00    -0.600 N 
ATOM      2  C   LIG    1       -0.440   2.709   1.858  0.00  0.00    +0.610 C 
ATOM      3  C   LIG    1       -1.327   2.855   3.026  0.00  0.00    -0.030 A 
ATOM      4  N   LIG    1       -1.656   3.622   4.046  0.00  0.00    -0.200 NA
ATOM      5  N   LIG    1       -2.600   3.081   4.731  0.00  0.00    -0.370 N 
ATOM      6  H   LIG    1       -3.003   3.465   5.526  0.00  0.00    +0.450 HD
ATOM      7  C   LIG    1       -2.953   1.885   4.173  0.00  0.00    +0.110 A 
ATOM      8  C   LIG    1       -2.159   1.714   3.084  0.00  0.00    -0.180 A 
ATOM      9  O   LIG    1        0.404   3.517   1.523  0.00  0.00    -0.500 OA
ATOM     10  C   LIG    1       -1.774   0.849   1.916  0.00  0.00    +0.370 C 
ENDROOT
BRANCH  10  11
ATOM     11  C   LIG    1       -1.279  -0.489   2.403  0.00  0.00    -0.060 A 
ATOM     12  C   LIG    1       -0.004  -0.605   2.925  0.00  0.00    +0.050 A 
ATOM     13  C   LIG    1        0.449  -1.830   3.377  0.00  0.00    +0.040 A 
ATOM     14  C   LIG    1       -0.369  -2.943   3.298  0.00  0.00    -0.020 A 
ATOM     15  C   LIG    1       -1.644  -2.827   2.770  0.00  0.00    -0.020 A 
ATOM     16 CL   LIG    1       -2.672  -4.223   2.669  0.00  0.00    -0.050 Cl
ATOM     17 CL   LIG    1        0.203  -4.483   3.859  0.00  0.00    -0.050 Cl
ATOM     18  C   LIG    1       -2.098  -1.600   2.323  0.00  0.00    +0.070 A 
ENDBRANCH  10  11
BRANCH   7  19
ATOM     19  C   LIG    1       -3.998   0.957   4.660  0.00  0.00    -0.070 A 
ATOM     20  C   LIG    1       -5.337   1.345   4.654  0.00  0.00    +0.050 A 
ATOM     21  C   LIG    1       -6.307   0.475   5.108  0.00  0.00    +0.000 A 
ATOM     22  C   LIG    1       -5.956  -0.781   5.570  0.00  0.00    +0.040 A 
ATOM     23  C   LIG    1       -4.631  -1.176   5.581  0.00  0.00    -0.010 A 
ATOM     24  C   LIG    1       -3.647  -0.316   5.123  0.00  0.00    +0.150 A 
BRANCH  24  25
ATOM     25  O   LIG    1       -2.345  -0.705   5.128  0.00  0.00    -0.480 OA
ATOM     26  H   LIG    1       -1.875  -0.495   5.946  0.00  0.00    +0.390 HD
ENDBRANCH  24  25
ENDBRANCH   7  19
BRANCH   1  27
ATOM     27  C   LIG    1       -0.013   1.086   0.008  0.00  0.00    +0.320 C 
BRANCH  27  28
ATOM     28  C   LIG    1       -0.753   1.593  -1.232  0.00  0.00    +0.020 C 
BRANCH  28  29
ATOM     29  C   LIG    1       -0.037   1.099  -2.490  0.00  0.00    +0.170 C 
BRANCH  29  30
ATOM     30  O   LIG    1       -0.728   1.573  -3.648  0.00  0.00    -0.380 OA
BRANCH  30  32
ATOM     31  C   LIG    1       -0.744  -0.169  -5.324  0.00  0.00    +0.010 C 
ATOM     32  C   LIG    1       -0.138   1.166  -4.884  0.00  0.00    +0.140 C 
ATOM     33  C   LIG    1       -0.410   2.226  -5.953  0.00  0.00    +0.040 C 
ENDBRANCH  30  32
ENDBRANCH  29  30
ENDBRANCH  28  29
ENDBRANCH  27  28
ENDBRANCH   1  27
TORSDOF 8
