REMARK  Name = ZINCvU0000000G0d.0
REMARK                            x       y       z     vdW  Elec       q    Type
REMARK                         _______ _______ _______ _____ _____    ______ ____
ROOT
ATOM      1  N   LIG    1        1.079   1.995   0.003  0.00  0.00    -0.600 N 
ATOM      2  C   LIG    1       -0.014   1.212   0.009  0.00  0.00    +0.600 C 
ATOM      3  C   LIG    1       -1.230   2.033   0.018  0.00  0.00    -0.060 A 
ATOM      4  C   LIG    1       -0.861   3.365   0.028  0.00  0.00    -0.180 A 
ATOM      5  C   LIG    1       -2.057   4.091   0.044  0.00  0.00    +0.120 A 
ATOM      6  N   LIG    1       -3.047   3.221   0.049  0.00  0.00    -0.220 NA
ATOM      7  N   LIG    1       -2.596   2.018   0.038  0.00  0.00    -0.330 N 
ATOM      8  H   LIG    1       -3.144   1.217   0.039  0.00  0.00    +0.450 HD
ATOM      9  O   LIG    1        0.002  -0.004   0.002  0.00  0.00    -0.510 OA
ATOM     10  C   LIG    1        0.642   3.397   0.014  0.00  0.00    +0.370 C 
ENDROOT
BRANCH  10  11
ATOM     11  C   LIG    1        1.134   4.104  -1.222  0.00  0.00    -0.080 A 
ATOM     12  C   LIG    1        1.120   3.453  -2.442  0.00  0.00    +0.070 A 
ATOM     13  C   LIG    1        1.566   4.103  -3.578  0.00  0.00    +0.060 A 
ATOM     14  C   LIG    1        2.037   5.400  -3.493  0.00  0.00    -0.020 A 
ATOM     15  C   LIG    1        2.056   6.050  -2.270  0.00  0.00    -0.030 A 
ATOM     16 CL   LIG    1        2.647   7.679  -2.162  0.00  0.00    -0.040 Cl
ATOM     17 CL   LIG    1        2.604   6.213  -4.918  0.00  0.00    -0.040 Cl
ATOM     18  C   LIG    1        1.605   5.401  -1.136  0.00  0.00    +0.060 A 
ENDBRANCH  10  11
BRANCH   5  19
ATOM     19  C   LIG    1       -2.186   5.570   0.053  0.00  0.00    -0.040 A 
ATOM     20  C   LIG    1       -1.047   6.371   0.052  0.00  0.00    +0.040 A 
ATOM     21  C   LIG    1       -1.172   7.746   0.055  0.00  0.00    +0.000 A 
ATOM     22  C   LIG    1       -2.426   8.331   0.071  0.00  0.00    +0.040 A 
ATOM     23  C   LIG    1       -3.562   7.545   0.077  0.00  0.00    -0.020 A 
ATOM     24  C   LIG    1       -3.451   6.164   0.069  0.00  0.00    +0.130 A 
BRANCH  24  25
ATOM     25  O   LIG    1       -4.567   5.390   0.076  0.00  0.00    -0.480 OA
ATOM     26  H   LIG    1       -4.882   5.161   0.962  0.00  0.00    +0.390 HD
ENDBRANCH  24  25
ENDBRANCH   5  19
BRANCH   1  27
ATOM     27  C   LIG    1        2.468   1.529  -0.013  0.00  0.00    +0.330 C 
BRANCH  27  28
ATOM     28  C   LIG    1        2.938   1.375  -1.461  0.00  0.00    +0.020 C 
BRANCH  28  29
ATOM     29  C   LIG    1        4.389   0.888  -1.478  0.00  0.00    +0.170 C 
BRANCH  29  30
ATOM     30  O   LIG    1        4.827   0.745  -2.830  0.00  0.00    -0.380 OA
BRANCH  30  32
ATOM     31  C   LIG    1        6.324  -0.515  -4.250  0.00  0.00    +0.040 C 
ATOM     32  C   LIG    1        6.177   0.292  -2.958  0.00  0.00    +0.140 C 
ATOM     33  C   LIG    1        7.117   1.498  -3.000  0.00  0.00    +0.010 C 
ENDBRANCH  30  32
ENDBRANCH  29  30
ENDBRANCH  28  29
ENDBRANCH  27  28
ENDBRANCH   1  27
TORSDOF 8
