REMARK  Name = ZINCtV00001bB3C9.0
REMARK                            x       y       z     vdW  Elec       q    Type
REMARK                         _______ _______ _______ _____ _____    ______ ____
ROOT
ATOM      1  N   LIG    1        3.822  -1.079   0.624  0.00  0.00    -0.420 NA
ATOM      2  C   LIG    1        3.788  -2.297   0.137  0.00  0.00    +0.360 C 
ATOM      3  S   LIG    1        5.225  -3.067  -0.552  0.00  0.00    -0.120 S 
ATOM      4  C   LIG    1        5.227  -4.563   0.468  0.00  0.00    +0.180 C 
ATOM      5  C   LIG    1        3.843  -5.156   0.539  0.00  0.00    -0.110 A 
ATOM      6  C   LIG    1        3.770  -6.524   0.780  0.00  0.00    +0.040 A 
ATOM      7  C   LIG    1        2.552  -7.161   0.888  0.00  0.00    +0.000 A 
ATOM      8  C   LIG    1        1.382  -6.436   0.754  0.00  0.00    +0.030 A 
ATOM      9  C   LIG    1        1.444  -5.082   0.510  0.00  0.00    +0.030 A 
ATOM     10  C   LIG    1        2.677  -4.433   0.396  0.00  0.00    +0.140 A 
ATOM     11  N   LIG    1        2.627  -3.056   0.133  0.00  0.00    -0.480 N 
ATOM     12  C   LIG    1        1.444  -2.467  -0.129  0.00  0.00    +0.580 C 
ATOM     13  O   LIG    1        0.418  -3.118  -0.085  0.00  0.00    -0.480 OA
ENDROOT
BRANCH   1  20
ATOM     14  C   LIG    1        4.888   0.097   2.981  0.00  0.00    +0.090 C 
ATOM     15  C   LIG    1        5.525   0.277   1.627  0.00  0.00    -0.060 A 
ATOM     16  C   LIG    1        6.672   1.031   1.498  0.00  0.00    +0.020 A 
ATOM     17  C   LIG    1        7.254   1.203   0.254  0.00  0.00    +0.020 A 
ATOM     18  C   LIG    1        6.695   0.615  -0.866  0.00  0.00    +0.020 A 
ATOM     19  C   LIG    1        5.550  -0.147  -0.750  0.00  0.00    +0.000 A 
ATOM     20  C   LIG    1        4.957  -0.324   0.501  0.00  0.00    +0.090 A 
ENDBRANCH   1  20
BRANCH  12  21
ATOM     21  C   LIG    1        1.393  -1.031  -0.471  0.00  0.00    -0.140 A 
ATOM     22  C   LIG    1        0.285  -0.262  -0.110  0.00  0.00    +0.080 A 
ATOM     23  C   LIG    1        0.245   1.079  -0.432  0.00  0.00    +0.000 A 
ATOM     24  C   LIG    1        1.299   1.662  -1.112  0.00  0.00    -0.040 A 
ATOM     25  C   LIG    1        2.400   0.906  -1.473  0.00  0.00    +0.010 A 
ATOM     26  C   LIG    1        2.454  -0.435  -1.157  0.00  0.00    +0.050 A 
BRANCH  24  27
ATOM     27  C   LIG    1        1.248   3.127  -1.461  0.00  0.00    +0.020 C 
ATOM     28  C   LIG    1        1.331   3.293  -2.979  0.00  0.00    +0.030 C 
ATOM     29  C   LIG    1        2.425   3.850  -0.804  0.00  0.00    +0.040 C 
ENDBRANCH  24  27
ENDBRANCH  12  21
TORSDOF 3
