REMARK  Name = ZINCpe00000FUeRB.0
REMARK                            x       y       z     vdW  Elec       q    Type
REMARK                         _______ _______ _______ _____ _____    ______ ____
ROOT
ATOM      1  C   LIG    1        2.691   4.643  -1.019  0.00  0.00    +0.530 C 
ATOM      2  N   LIG    1        2.288   3.943   0.060  0.00  0.00    -0.570 N 
ATOM      3  C   LIG    1        3.080   3.950   1.293  0.00  0.00    +0.320 C 
ATOM      4  C   LIG    1        3.145   2.536   1.873  0.00  0.00    +0.060 C 
ATOM      5  C   LIG    1        3.404   1.534   0.780  0.00  0.00    +0.530 C 
ATOM      6  N   LIG    1        2.414   1.173  -0.066  0.00  0.00    -0.670 N 
ATOM      7  H   LIG    1        2.569   0.476  -0.723  0.00  0.00    +0.420 HD
ATOM      8  C   LIG    1        1.171   1.799   0.001  0.00  0.00    +0.180 A 
ATOM      9  C   LIG    1       -0.013   1.076   0.008  0.00  0.00    -0.030 A 
ATOM     10  C   LIG    1       -1.212   1.765   0.017  0.00  0.00    +0.300 A 
ATOM     11  N   LIG    1       -1.239   3.084   0.029  0.00  0.00    -0.470 NA
ATOM     12  C   LIG    1       -0.135   3.810   0.031  0.00  0.00    +0.300 A 
ATOM     13  O   LIG    1        4.508   1.046   0.659  0.00  0.00    -0.510 OA
ATOM     14  C   LIG    1        1.104   3.196   0.026  0.00  0.00    +0.060 A 
ATOM     15  O   LIG    1        3.719   5.286  -0.976  0.00  0.00    -0.510 OA
ENDROOT
BRANCH   1  19
ATOM     16  N   LIG    1        1.440   4.116  -5.029  0.00  0.00    -1.000 NA
ATOM     17  C   LIG    1        1.680   5.504  -4.611  0.00  0.00    +0.300 C 
ATOM     18  C   LIG    1        2.540   5.495  -3.343  0.00  0.00    +0.050 C 
ATOM     19  C   LIG    1        1.865   4.626  -2.280  0.00  0.00    +0.010 C 
ATOM     20  C   LIG    1        1.746   3.189  -2.793  0.00  0.00    +0.010 C 
ATOM     21  C   LIG    1        0.877   3.172  -4.054  0.00  0.00    +0.310 C 
BRANCH  16  22
ATOM     22  S   LIG    1        1.797   3.625  -6.570  0.00  0.00    +2.610 S 
ATOM     23  O   LIG    1        1.707   4.812  -7.346  0.00  0.00    -0.950 OA
ATOM     24  O   LIG    1        0.921   2.530  -6.801  0.00  0.00    -0.950 OA
BRANCH  22  26
ATOM     25  C   LIG    1        3.969   2.570  -7.854  0.00  0.00    +0.070 C 
ATOM     26  C   LIG    1        3.517   3.055  -6.476  0.00  0.00    -0.370 C 
ENDBRANCH  22  26
ENDBRANCH  16  22
ENDBRANCH   1  19
TORSDOF 3
