REMARK  Name = ZINCrD0000072Gvw.0
REMARK                            x       y       z     vdW  Elec       q    Type
REMARK                         _______ _______ _______ _____ _____    ______ ____
ROOT
ATOM      1  N   LIG    1        0.002  -0.004   0.002  0.00  0.00    -0.680 N 
ATOM      2  H   LIG    1        0.844  -0.477  -0.086  0.00  0.00    +0.410 HD
ATOM      3  C   LIG    1       -1.150  -0.694   0.111  0.00  0.00    +0.510 C 
ATOM      4  O   LIG    1       -2.211  -0.106   0.124  0.00  0.00    -0.490 OA
ENDROOT
BRANCH   1   9
ATOM      5  C   LIG    1       -0.972   3.463   0.788  0.00  0.00    -0.120 A 
ATOM      6  C   LIG    1       -0.038   4.172   0.030  0.00  0.00    +0.030 A 
ATOM      7  C   LIG    1        0.895   3.492  -0.726  0.00  0.00    +0.020 A 
ATOM      8  C   LIG    1        0.913   2.110  -0.731  0.00  0.00    +0.010 A 
ATOM      9  C   LIG    1       -0.016   1.395   0.015  0.00  0.00    +0.140 A 
ATOM     10  C   LIG    1       -0.958   2.069   0.778  0.00  0.00    +0.090 A 
BRANCH   5  14
ATOM     11  C   LIG    1       -2.977   6.256   2.410  0.00  0.00    +0.290 C 
ATOM     12  N   LIG    1       -1.985   5.537   1.607  0.00  0.00    -0.730 N 
ATOM     13  H   LIG    1       -1.336   6.031   1.081  0.00  0.00    +0.400 HD
ATOM     14  C   LIG    1       -1.973   4.189   1.599  0.00  0.00    +0.560 C 
ATOM     15  O   LIG    1       -2.785   3.571   2.258  0.00  0.00    -0.530 OA
ENDBRANCH   5  14
ENDBRANCH   1   9
BRANCH   3  16
ATOM     16  C   LIG    1       -1.121  -2.197   0.216  0.00  0.00    +0.170 C 
BRANCH  16  17
ATOM     17  C   LIG    1       -2.530  -2.720   0.327  0.00  0.00    +0.090 A 
ATOM     18  C   LIG    1       -3.016  -3.636  -0.517  0.00  0.00    -0.070 A 
ATOM     19  S   LIG    1       -4.681  -3.983  -0.056  0.00  0.00    +0.090 S 
ATOM     20  C   LIG    1       -4.554  -2.819   1.260  0.00  0.00    +0.130 A 
ATOM     21  N   LIG    1       -3.360  -2.300   1.255  0.00  0.00    -0.440 NA
BRANCH  20  22
ATOM     22  C   LIG    1       -5.631  -2.484   2.216  0.00  0.00    -0.070 A 
ATOM     23  C   LIG    1       -5.405  -1.545   3.223  0.00  0.00    +0.120 A 
ATOM     24  C   LIG    1       -6.413  -1.231   4.110  0.00  0.00    -0.070 A 
ATOM     25  C   LIG    1       -7.649  -1.857   4.008  0.00  0.00    +0.150 A 
ATOM     26  C   LIG    1       -7.876  -2.796   3.011  0.00  0.00    -0.010 A 
ATOM     27  C   LIG    1       -6.874  -3.111   2.117  0.00  0.00    +0.070 A 
BRANCH  25  28
ATOM     28  O   LIG    1       -8.638  -1.550   4.887  0.00  0.00    -0.310 OA
ATOM     29  C   LIG    1       -8.338  -0.575   5.888  0.00  0.00    +0.240 C 
ENDBRANCH  25  28
ENDBRANCH  20  22
ENDBRANCH  16  17
ENDBRANCH   3  16
TORSDOF 6
