REMARK  Name = ZINCqH0000002etj.0
REMARK                            x       y       z     vdW  Elec       q    Type
REMARK                         _______ _______ _______ _____ _____    ______ ____
ROOT
ATOM      1  N   LIG    1       -0.604  -1.100   0.236  0.00  0.00    -0.730 N 
ATOM      2  H   LIG    1       -0.106  -0.604  -0.432  0.00  0.00    +0.400 HD
ATOM      3  C   LIG    1       -1.951  -1.094   0.215  0.00  0.00    +0.560 C 
ATOM      4  O   LIG    1       -2.575  -1.716   1.052  0.00  0.00    -0.530 OA
ENDROOT
BRANCH   3   5
ATOM      5  C   LIG    1       -2.670  -0.333  -0.828  0.00  0.00    -0.140 A 
ATOM      6  C   LIG    1       -4.055  -0.331  -0.845  0.00  0.00    +0.110 A 
ATOM      7  C   LIG    1       -4.731   0.395  -1.837  0.00  0.00    -0.060 A 
ATOM      8  C   LIG    1       -6.136   0.422  -1.888  0.00  0.00    +0.030 A 
ATOM      9  C   LIG    1       -6.762   1.136  -2.864  0.00  0.00    +0.010 A 
ATOM     10  C   LIG    1       -6.030   1.843  -3.815  0.00  0.00    +0.030 A 
ATOM     11  C   LIG    1       -4.668   1.840  -3.797  0.00  0.00    +0.020 A 
ATOM     12  C   LIG    1       -3.987   1.115  -2.806  0.00  0.00    -0.030 A 
ATOM     13  C   LIG    1       -2.580   1.093  -2.761  0.00  0.00    +0.020 A 
ATOM     14  C   LIG    1       -1.943   0.390  -1.791  0.00  0.00    +0.030 A 
ENDBRANCH   3   5
BRANCH   1  15
ATOM     15  C   LIG    1        0.109  -1.855   1.270  0.00  0.00    +0.290 C 
BRANCH  15  16
ATOM     16  C   LIG    1        1.609  -1.570   1.167  0.00  0.00    +0.130 C 
BRANCH  16  17
ATOM     17  N   LIG    1        1.877  -0.194   1.606  0.00  0.00    -0.520 NA
ATOM     18  C   LIG    1        1.094   0.772   0.821  0.00  0.00    +0.140 C 
ATOM     19  C   LIG    1        1.358   2.184   1.350  0.00  0.00    +0.220 C 
ATOM     20  O   LIG    1        2.762   2.453   1.296  0.00  0.00    -0.380 OA
ATOM     21  C   LIG    1        3.554   1.532   2.051  0.00  0.00    +0.220 C 
ATOM     22  C   LIG    1        3.312   0.113   1.529  0.00  0.00    +0.140 C 
ENDBRANCH  16  17
BRANCH  16  23
ATOM     23  C   LIG    1        2.376  -2.549   2.058  0.00  0.00    +0.000 C 
BRANCH  23  25
ATOM     24  C   LIG    1        2.106  -1.129   4.096  0.00  0.00    +0.010 C 
ATOM     25  C   LIG    1        1.810  -2.497   3.478  0.00  0.00    +0.000 C 
ENDBRANCH  23  25
BRANCH  23  26
ATOM     26  C   LIG    1        2.231  -3.966   1.501  0.00  0.00    +0.010 C 
ATOM     27  C   LIG    1        2.933  -4.056   0.145  0.00  0.00    +0.000 C 
ENDBRANCH  23  26
ENDBRANCH  16  23
ENDBRANCH  15  16
ENDBRANCH   1  15
TORSDOF 7
