REMARK  Name = ZINCvU0000000IoO.0
REMARK                            x       y       z     vdW  Elec       q    Type
REMARK                         _______ _______ _______ _____ _____    ______ ____
ROOT
ATOM      1  C   LIG    1        3.711  -0.707  -0.037  0.00  0.00    +0.350 C 
ATOM      2  C   LIG    1        4.310  -0.722   1.331  0.00  0.00    -0.250 A 
ATOM      3  C   LIG    1        5.515  -0.083   1.266  0.00  0.00    +0.090 A 
ATOM      4  C   LIG    1        5.728   0.361  -0.123  0.00  0.00    +0.570 C 
ATOM      5  O   LIG    1        6.706   0.963  -0.519  0.00  0.00    -0.480 OA
ATOM      6  O   LIG    1        6.317   0.068   2.338  0.00  0.00    -0.180 OA
ATOM      7  C   LIG    1        5.839  -0.202   3.574  0.00  0.00    +0.140 A 
ATOM      8  C   LIG    1        6.580   0.192   4.687  0.00  0.00    +0.010 A 
ATOM      9  C   LIG    1        6.120  -0.077   5.957  0.00  0.00    +0.090 A 
ATOM     10  C   LIG    1        4.916  -0.739   6.151  0.00  0.00    +0.000 A 
ATOM     11  C   LIG    1        4.163  -1.135   5.068  0.00  0.00    +0.120 A 
ATOM     12  C   LIG    1        4.618  -0.866   3.778  0.00  0.00    -0.210 A 
ATOM     13  C   LIG    1        3.814  -1.273   2.597  0.00  0.00    +0.460 A 
ATOM     14  O   LIG    1        2.835  -1.994   2.673  0.00  0.00    -0.430 OA
ATOM     15  N   LIG    1        4.679   0.001  -0.891  0.00  0.00    -0.590 N 
ENDROOT
BRANCH   1  19
ATOM     16  C   LIG    1       -0.017   1.378   0.010  0.00  0.00    -0.060 A 
ATOM     17  C   LIG    1        1.171   2.086   0.002  0.00  0.00    +0.010 A 
ATOM     18  C   LIG    1        2.377   1.411  -0.015  0.00  0.00    +0.030 A 
ATOM     19  C   LIG    1        2.396   0.029  -0.021  0.00  0.00    -0.110 A 
ATOM     20  C   LIG    1        1.208  -0.679  -0.013  0.00  0.00    +0.040 A 
ATOM     21  C   LIG    1        0.002  -0.004   0.002  0.00  0.00    +0.010 A 
BRANCH  16  23
ATOM     22  C   LIG    1       -1.419   2.986   1.274  0.00  0.00    +0.030 C 
ATOM     23  C   LIG    1       -1.332   2.114   0.020  0.00  0.00    +0.020 C 
ATOM     24  C   LIG    1       -1.431   2.999  -1.224  0.00  0.00    +0.030 C 
ENDBRANCH  16  23
ENDBRANCH   1  19
BRANCH  15  25
ATOM     25  C   LIG    1        4.529   0.268  -2.323  0.00  0.00    +0.400 C 
BRANCH  25  26
ATOM     26  C   LIG    1        3.837   1.592  -2.518  0.00  0.00    -0.180 A 
ATOM     27  C   LIG    1        2.455   1.656  -2.607  0.00  0.00    +0.100 A 
ATOM     28  C   LIG    1        1.862   2.897  -2.781  0.00  0.00    -0.050 A 
ATOM     29  C   LIG    1        2.662   4.020  -2.870  0.00  0.00    +0.260 A 
ATOM     30  N   LIG    1        3.975   3.921  -2.788  0.00  0.00    -0.490 NA
ATOM     31  C   LIG    1        4.573   2.758  -2.617  0.00  0.00    +0.280 A 
ENDBRANCH  25  26
ENDBRANCH  15  25
TORSDOF 4
