REMARK  Name = ZINCrH000004jBm1.0
REMARK                            x       y       z     vdW  Elec       q    Type
REMARK                         _______ _______ _______ _____ _____    ______ ____
ROOT
ATOM      1  C   LIG    1        5.628   3.735   1.103  0.00  0.00    +0.410 A 
ATOM      2  N   LIG    1        6.255   3.228   0.064  0.00  0.00    -0.590 NA
ATOM      3  C   LIG    1        7.532   3.530  -0.195  0.00  0.00    +0.550 A 
ATOM      4  C   LIG    1        8.249   4.455   0.711  0.00  0.00    -0.220 A 
ATOM      5  C   LIG    1        7.552   4.962   1.787  0.00  0.00    +0.060 A 
ATOM      6  S   LIG    1        8.590   6.028   2.719  0.00  0.00    +0.170 S 
ATOM      7  C   LIG    1        9.948   5.769   1.637  0.00  0.00    -0.190 A 
ATOM      8  C   LIG    1       11.314   6.410   1.804  0.00  0.00    +0.120 C 
ATOM      9  C   LIG    1       12.326   5.645   0.949  0.00  0.00    +0.030 C 
ATOM     10  C   LIG    1       11.768   5.497  -0.470  0.00  0.00    +0.020 C 
ATOM     11  C   LIG    1       10.595   4.515  -0.447  0.00  0.00    +0.110 C 
ATOM     12  C   LIG    1        9.624   4.934   0.648  0.00  0.00    -0.030 A 
ATOM     13  O   LIG    1        8.099   3.050  -1.164  0.00  0.00    -0.490 OA
ATOM     14  N   LIG    1        6.231   4.592   1.965  0.00  0.00    -0.580 N 
ATOM     15  H   LIG    1        5.732   4.947   2.717  0.00  0.00    +0.430 HD
ENDROOT
BRANCH   1  16
ATOM     16  S   LIG    1        3.945   3.293   1.381  0.00  0.00    +0.070 S 
BRANCH  16  17
ATOM     17  C   LIG    1        3.676   2.182  -0.022  0.00  0.00    +0.090 C 
BRANCH  17  18
ATOM     18  C   LIG    1        2.302   1.570   0.078  0.00  0.00    -0.090 A 
ATOM     19  C   LIG    1        1.187   2.383   0.158  0.00  0.00    +0.030 A 
ATOM     20  C   LIG    1       -0.072   1.822   0.249  0.00  0.00    +0.020 A 
ATOM     21  C   LIG    1       -0.217   0.447   0.262  0.00  0.00    +0.030 A 
ATOM     22  C   LIG    1        0.898  -0.366   0.183  0.00  0.00    +0.010 A 
ATOM     23  C   LIG    1        2.158   0.195   0.091  0.00  0.00    +0.040 A 
ENDBRANCH  17  18
BRANCH  17  26
ATOM     24  C   LIG    1        4.301   3.094  -3.686  0.00  0.00    +0.280 C 
ATOM     25  N   LIG    1        4.086   2.325  -2.457  0.00  0.00    -0.600 N 
ATOM     26  C   LIG    1        3.787   2.961  -1.308  0.00  0.00    +0.540 C 
ATOM     27  O   LIG    1        3.606   4.160  -1.307  0.00  0.00    -0.530 OA
ATOM     28  C   LIG    1        4.196   0.864  -2.479  0.00  0.00    +0.290 C 
ENDBRANCH  17  26
ENDBRANCH  16  17
ENDBRANCH   1  16
TORSDOF 4
