REMARK  Name = ZINCpk00000ebg5p.1
REMARK                            x       y       z     vdW  Elec       q    Type
REMARK                         _______ _______ _______ _____ _____    ______ ____
ROOT
ATOM      1  C   LIG    1       -2.544   1.378   0.021  0.00  0.00    +0.320 C 
ATOM      2  N   LIG    1       -3.339   2.221  -0.863  0.00  0.00    -0.710 N 
ATOM      3  H   LIG    1       -2.945   2.495  -1.706  0.00  0.00    +0.400 HD
ATOM      4  C   LIG    1       -4.575   2.639  -0.587  0.00  0.00    +0.520 C 
ATOM      5  C   LIG    1       -5.286   2.330   0.700  0.00  0.00    +0.070 C 
ATOM      6  C   LIG    1       -4.600   1.158   1.405  0.00  0.00    +0.000 C 
ATOM      7  O   LIG    1       -5.155   3.304  -1.418  0.00  0.00    -0.550 OA
ATOM      8  C   LIG    1       -3.094   1.437   1.447  0.00  0.00    +0.190 C 
ENDROOT
BRANCH   1  12
ATOM      9  C   LIG    1        2.467   1.456  -0.013  0.00  0.00    +0.350 C 
ATOM     10  N   LIG    1        1.067   1.886   0.002  0.00  0.00    -0.370 N 
ATOM     11  C   LIG    1       -0.013   1.076   0.008  0.00  0.00    +0.270 A 
ATOM     12  C   LIG    1       -1.116   1.859   0.017  0.00  0.00    -0.250 A 
ATOM     13  C   LIG    1       -0.697   3.193   0.025  0.00  0.00    +0.240 A 
ATOM     14  N   LIG    1        0.611   3.211   0.013  0.00  0.00    -0.300 NA
ENDBRANCH   1  12
BRANCH   8  15
ATOM     15  N   LIG    1       -2.431   0.419   2.273  0.00  0.00    -0.660 NA
ATOM     16  H   LIG    1       -2.848  -0.488   2.132  0.00  0.00    +0.340 HD
BRANCH  15  17
ATOM     17  C   LIG    1       -2.456   0.796   3.693  0.00  0.00    +0.300 C 
BRANCH  17  18
ATOM     18  C   LIG    1       -1.768  -0.269   4.507  0.00  0.00    +0.280 A 
ATOM     19  N   LIG    1       -0.499  -0.287   4.792  0.00  0.00    -0.470 NA
ATOM     20  C   LIG    1       -0.214  -1.383   5.540  0.00  0.00    +0.040 A 
ATOM     21  C   LIG    1        0.961  -1.884   6.107  0.00  0.00    +0.070 A 
ATOM     22  C   LIG    1        0.928  -3.045   6.827  0.00  0.00    +0.000 A 
ATOM     23  C   LIG    1       -0.262  -3.736   7.002  0.00  0.00    +0.030 A 
ATOM     24  C   LIG    1       -1.434  -3.260   6.452  0.00  0.00    +0.010 A 
ATOM     25  C   LIG    1       -1.420  -2.083   5.717  0.00  0.00    +0.050 A 
ATOM     26  N   LIG    1       -2.386  -1.350   5.057  0.00  0.00    -0.490 N 
ATOM     27  C   LIG    1       -3.811  -1.677   4.962  0.00  0.00    +0.340 C 
ENDBRANCH  17  18
ENDBRANCH  15  17
ENDBRANCH   8  15
TORSDOF 4
