REMARK  Name = ZINCqH0000007txy.0
REMARK                            x       y       z     vdW  Elec       q    Type
REMARK                         _______ _______ _______ _____ _____    ______ ____
ROOT
ATOM      1  N   LIG    1       -2.103   1.072   1.277  0.00  0.00    -0.700 N 
ATOM      2  H   LIG    1       -2.825   1.620   0.932  0.00  0.00    +0.400 HD
ATOM      3  C   LIG    1       -2.365  -0.156   1.766  0.00  0.00    +0.570 C 
ATOM      4  O   LIG    1       -1.460  -0.843   2.199  0.00  0.00    -0.520 OA
ENDROOT
BRANCH   3   5
ATOM      5  C   LIG    1       -3.756  -0.669   1.777  0.00  0.00    +0.120 A 
ATOM      6  N   LIG    1       -4.726   0.091   1.309  0.00  0.00    -0.440 NA
ATOM      7  C   LIG    1       -5.991  -0.331   1.294  0.00  0.00    +0.130 A 
ATOM      8  C   LIG    1       -7.021   0.484   0.789  0.00  0.00    +0.070 A 
ATOM      9  C   LIG    1       -8.304   0.029   0.791  0.00  0.00    -0.020 A 
ATOM     10  C   LIG    1       -8.619  -1.236   1.288  0.00  0.00    +0.040 A 
ATOM     11  C   LIG    1       -7.649  -2.052   1.786  0.00  0.00    +0.070 A 
ATOM     12 CL   LIG    1       -9.569   1.040   0.166  0.00  0.00    -0.050 Cl
ATOM     13  C   LIG    1       -6.314  -1.618   1.799  0.00  0.00    -0.090 A 
ATOM     14  C   LIG    1       -5.286  -2.434   2.306  0.00  0.00    +0.100 A 
ATOM     15  C   LIG    1       -4.010  -1.950   2.290  0.00  0.00    +0.030 A 
ENDBRANCH   3   5
BRANCH   1  16
ATOM     16  C   LIG    1       -0.729   1.579   1.267  0.00  0.00    +0.210 C 
ATOM     17  C   LIG    1       -0.013   1.086   0.008  0.00  0.00    +0.040 C 
BRANCH  16  18
ATOM     18  C   LIG    1       -0.750   3.109   1.275  0.00  0.00    +0.280 C 
BRANCH  18  22
ATOM     19  C   LIG    1       -2.750   4.487   4.791  0.00  0.00    +0.130 A 
ATOM     20  C   LIG    1       -1.363   4.471   4.742  0.00  0.00    -0.020 A 
ATOM     21  C   LIG    1       -0.719   4.025   3.604  0.00  0.00    +0.060 A 
ATOM     22  C   LIG    1       -1.455   3.595   2.515  0.00  0.00    -0.160 A 
ATOM     23  C   LIG    1       -2.837   3.615   2.560  0.00  0.00    +0.060 A 
ATOM     24  C   LIG    1       -3.486   4.055   3.697  0.00  0.00    -0.070 A 
BRANCH  19  26
ATOM     25  C   LIG    1       -4.815   4.914   5.890  0.00  0.00    +0.250 C 
ATOM     26  O   LIG    1       -3.386   4.925   5.909  0.00  0.00    -0.320 OA
ENDBRANCH  19  26
ENDBRANCH  18  22
BRANCH  18  27
ATOM     27  O   LIG    1       -1.441   3.582   0.117  0.00  0.00    -0.540 OA
ATOM     28  H   LIG    1       -2.359   3.285   0.059  0.00  0.00    +0.370 HD
ENDBRANCH  18  27
ENDBRANCH  16  18
ENDBRANCH   1  16
TORSDOF 6
