REMARK  Name = ZINCAx00000008Aq.0
REMARK                            x       y       z     vdW  Elec       q    Type
REMARK                         _______ _______ _______ _____ _____    ______ ____
ROOT
ATOM      1  N   LIG    1       -2.030  10.744  -0.440  0.00  0.00    -0.560 N 
ATOM      2  C   LIG    1       -2.654  11.040  -1.586  0.00  0.00    +0.710 C 
ATOM      3  N   LIG    1       -3.800  11.715  -1.387  0.00  0.00    -0.710 N 
ATOM      4  H   LIG    1       -4.414  12.029  -2.069  0.00  0.00    +0.440 HD
ATOM      5  C   LIG    1       -3.939  11.891   0.069  0.00  0.00    +0.180 C 
ATOM      6  O   LIG    1       -2.235  10.729  -2.684  0.00  0.00    -0.540 OA
ATOM      7  C   LIG    1       -2.706  11.208   0.629  0.00  0.00    +0.550 C 
ATOM      8  O   LIG    1       -2.394  11.103   1.796  0.00  0.00    -0.450 OA
ENDROOT
BRANCH   5   9
ATOM      9  C   LIG    1       -3.944  13.354   0.429  0.00  0.00    -0.100 A 
ATOM     10  C   LIG    1       -4.560  13.778   1.592  0.00  0.00    +0.040 A 
ATOM     11  C   LIG    1       -4.560  15.120   1.924  0.00  0.00    +0.010 A 
ATOM     12  C   LIG    1       -3.954  16.039   1.088  0.00  0.00    +0.020 A 
ATOM     13  C   LIG    1       -3.343  15.616  -0.077  0.00  0.00    +0.010 A 
ATOM     14  C   LIG    1       -3.338  14.273  -0.407  0.00  0.00    +0.020 A 
ENDBRANCH   5   9
BRANCH   1  15
ATOM     15  C   LIG    1       -0.763  10.012  -0.358  0.00  0.00    +0.360 C 
BRANCH  15  17
ATOM     16  O   LIG    1       -2.187   8.134  -0.242  0.00  0.00    -0.420 OA
ATOM     17  C   LIG    1       -1.043   8.535  -0.250  0.00  0.00    +0.500 C 
ATOM     18  N   LIG    1       -0.022   7.660  -0.162  0.00  0.00    -0.690 N 
ATOM     19  H   LIG    1        0.894   7.981  -0.169  0.00  0.00    +0.410 HD
ATOM     20  C   LIG    1       -0.272   6.340  -0.065  0.00  0.00    +0.700 C 
ATOM     21  N   LIG    1        0.750   5.465   0.023  0.00  0.00    -0.670 N 
ATOM     22  H   LIG    1        1.661   5.789   0.094  0.00  0.00    +0.410 HD
ATOM     23  O   LIG    1       -1.419   5.937  -0.057  0.00  0.00    -0.500 OA
BRANCH  21  24
ATOM     24  C   LIG    1        0.495   4.087   0.011  0.00  0.00    +0.170 A 
ATOM     25  C   LIG    1        1.301   3.226   0.744  0.00  0.00    +0.010 A 
ATOM     26  C   LIG    1        1.049   1.867   0.736  0.00  0.00    +0.060 A 
ATOM     27  C   LIG    1       -0.003   1.359  -0.008  0.00  0.00    +0.020 A 
ATOM     28  O   LIG    1       -0.454   0.082  -0.183  0.00  0.00    -0.310 OA
ATOM     29  C   LIG    1       -1.291   0.126  -1.353  0.00  0.00    +0.430 C 
ATOM     30  O   LIG    1       -1.771   1.484  -1.379  0.00  0.00    -0.310 OA
ATOM     31  C   LIG    1       -0.814   2.221  -0.744  0.00  0.00    +0.060 A 
ATOM     32  C   LIG    1       -0.563   3.583  -0.733  0.00  0.00    +0.050 A 
ENDBRANCH  21  24
ENDBRANCH  15  17
ENDBRANCH   1  15
BRANCH   5  33
ATOM     33  C   LIG    1       -5.210  11.206   0.576  0.00  0.00    +0.130 C 
BRANCH  33  34
ATOM     34  C   LIG    1       -5.202   9.759   0.155  0.00  0.00    -0.110 A 
ATOM     35  C   LIG    1       -5.766   9.386  -1.051  0.00  0.00    +0.000 A 
ATOM     36  C   LIG    1       -5.755   8.060  -1.439  0.00  0.00    +0.000 A 
ATOM     37  C   LIG    1       -5.189   7.104  -0.616  0.00  0.00    +0.010 A 
ATOM     38  C   LIG    1       -4.630   7.475   0.593  0.00  0.00    +0.040 A 
ATOM     39  C   LIG    1       -4.637   8.803   0.978  0.00  0.00    +0.010 A 
ENDBRANCH  33  34
ENDBRANCH   5  33
TORSDOF 6
