REMARK  Name = ZINCAx00000008aq.1
REMARK                            x       y       z     vdW  Elec       q    Type
REMARK                         _______ _______ _______ _____ _____    ______ ____
ROOT
ATOM      1  N   LIG    1       -3.313   3.795  -1.330  0.00  0.00    -0.740 N 
ATOM      2  H   LIG    1       -3.154   2.999  -1.862  0.00  0.00    +0.390 HD
ATOM      3  C   LIG    1       -4.131   4.761  -1.792  0.00  0.00    +0.510 C 
ATOM      4  O   LIG    1       -4.331   5.756  -1.127  0.00  0.00    -0.480 OA
ENDROOT
BRANCH   3   5
ATOM      5  C   LIG    1       -4.798   4.607  -3.135  0.00  0.00    +0.200 C 
ATOM      6  C   LIG    1       -3.948   5.282  -4.240  0.00  0.00    +0.040 C 
ATOM      7  C   LIG    1       -5.020   5.575  -5.322  0.00  0.00    +0.030 C 
ATOM      8  C   LIG    1       -6.269   5.923  -4.486  0.00  0.00    +0.250 C 
ATOM      9  N   LIG    1       -6.084   5.326  -3.155  0.00  0.00    -0.620 N 
ATOM     10  C   LIG    1       -6.948   5.421  -2.125  0.00  0.00    +0.610 C 
ATOM     11  O   LIG    1       -6.652   4.959  -1.039  0.00  0.00    -0.520 OA
BRANCH  10  12
ATOM     12  C   LIG    1       -8.250   6.084  -2.313  0.00  0.00    -0.350 A 
ATOM     13  C   LIG    1       -8.704   7.000  -1.367  0.00  0.00    +0.340 A 
ATOM     14  C   LIG    1       -9.951   7.628  -1.559  0.00  0.00    -0.150 A 
ATOM     15  C   LIG    1      -10.446   8.557  -0.629  0.00  0.00    +0.080 A 
ATOM     16  C   LIG    1      -11.655   9.147  -0.844  0.00  0.00    -0.080 A 
ATOM     17  C   LIG    1      -12.410   8.841  -1.973  0.00  0.00    +0.010 A 
ATOM     18  C   LIG    1      -11.961   7.946  -2.895  0.00  0.00    -0.050 A 
ATOM     19  C   LIG    1      -10.719   7.318  -2.708  0.00  0.00    +0.020 A 
ATOM     20  C   LIG    1      -10.229   6.386  -3.645  0.00  0.00    -0.180 A 
ATOM     21  O   LIG    1       -7.955   7.283  -0.274  0.00  0.00    -0.660 OA
ATOM     22  C   LIG    1       -9.025   5.793  -3.451  0.00  0.00    +0.100 A 
ENDBRANCH  10  12
ENDBRANCH   3   5
BRANCH   1  23
ATOM     23  C   LIG    1       -2.666   3.945  -0.025  0.00  0.00    +0.320 C 
BRANCH  23  28
ATOM     24  C   LIG    1        0.301   1.600   0.116  0.00  0.00    -0.150 A 
ATOM     25  C   LIG    1       -0.252   0.501   0.775  0.00  0.00    +0.040 A 
ATOM     26  C   LIG    1       -1.575   0.529   1.166  0.00  0.00    +0.000 A 
ATOM     27  C   LIG    1       -2.354   1.641   0.902  0.00  0.00    +0.080 A 
ATOM     28  C   LIG    1       -1.811   2.736   0.254  0.00  0.00    -0.100 A 
ATOM     29  C   LIG    1       -0.489   2.721  -0.143  0.00  0.00    +0.100 A 
BRANCH  24  32
ATOM     30  N   LIG    1        2.478   0.493  -0.054  0.00  0.00    -0.730 N 
ATOM     31  H   LIG    1        2.096  -0.272   0.404  0.00  0.00    +0.410 HD
ATOM     32  C   LIG    1        1.718   1.577  -0.306  0.00  0.00    +0.570 C 
ATOM     33  O   LIG    1        2.197   2.536  -0.879  0.00  0.00    -0.520 OA
BRANCH  30  34
ATOM     34  C   LIG    1        3.882   0.471  -0.472  0.00  0.00    +0.280 C 
BRANCH  34  35
ATOM     35  C   LIG    1        4.513  -0.864  -0.069  0.00  0.00    +0.260 C 
BRANCH  35  37
ATOM     36  C   LIG    1        6.558  -2.115   0.003  0.00  0.00    +0.320 C 
ATOM     37  N   LIG    1        5.921  -0.886  -0.488  0.00  0.00    -0.380 N 
ATOM     38  C   LIG    1        5.996  -0.848  -1.954  0.00  0.00    +0.320 C 
ATOM     39  H   LIG    1        6.399  -0.084  -0.106  0.00  0.00    +0.430 HD
ENDBRANCH  35  37
ENDBRANCH  34  35
ENDBRANCH  30  34
ENDBRANCH  24  32
ENDBRANCH  23  28
ENDBRANCH   1  23
TORSDOF 8
