REMARK  Name = ZINCqH0000050Qo7.0
REMARK                            x       y       z     vdW  Elec       q    Type
REMARK                         _______ _______ _______ _____ _____    ______ ____
ROOT
ATOM      1  O   LIG    1       -2.421   0.988   0.047  0.00  0.00    -0.320 OA
ENDROOT
BRANCH   1   2
ATOM      2  C   LIG    1       -3.574   1.371  -0.535  0.00  0.00    +0.560 C 
ATOM      3  O   LIG    1       -3.666   2.475  -1.034  0.00  0.00    -0.480 OA
BRANCH   2  10
ATOM      4  C   LIG    1       -5.836   1.151   1.681  0.00  0.00    +0.180 C 
ATOM      5  C   LIG    1       -5.738   0.342   0.413  0.00  0.00    +0.130 A 
ATOM      6  N   LIG    1       -6.575  -0.579   0.025  0.00  0.00    -0.260 NA
ATOM      7  N   LIG    1       -6.141  -1.103  -1.197  0.00  0.00    -0.340 N 
ATOM      8  C   LIG    1       -5.010  -0.472  -1.555  0.00  0.00    +0.170 A 
ATOM      9 CL   LIG    1       -4.081  -0.763  -2.992  0.00  0.00    +0.020 Cl
ATOM     10  C   LIG    1       -4.723   0.452  -0.566  0.00  0.00    -0.250 A 
BRANCH   7  11
ATOM     11  C   LIG    1       -6.807  -2.163  -1.959  0.00  0.00    +0.330 C 
BRANCH  11  12
ATOM     12  C   LIG    1       -6.263  -3.524  -1.521  0.00  0.00    -0.030 C 
ATOM     13  C   LIG    1       -6.866  -4.621  -2.401  0.00  0.00    +0.040 C 
ATOM     14  C   LIG    1       -6.639  -3.778  -0.060  0.00  0.00    +0.030 C 
ENDBRANCH  11  12
ENDBRANCH   7  11
ENDBRANCH   2  10
ENDBRANCH   1   2
BRANCH   1  15
ATOM     15  C   LIG    1       -1.329   1.946   0.040  0.00  0.00    +0.190 C 
ATOM     16  C   LIG    1       -1.405   2.814   1.298  0.00  0.00    +0.070 C 
BRANCH  15  17
ATOM     17  C   LIG    1       -0.015   1.209   0.017  0.00  0.00    +0.520 C 
ATOM     18  N   LIG    1        1.143   1.898   0.001  0.00  0.00    -0.660 N 
ATOM     19  H   LIG    1        1.131   2.865  -0.072  0.00  0.00    +0.420 HD
ATOM     20  O   LIG    1        0.001  -0.004   0.007  0.00  0.00    -0.490 OA
BRANCH  18  21
ATOM     21  C   LIG    1        2.364   1.218   0.092  0.00  0.00    +0.120 A 
ATOM     22  C   LIG    1        2.431  -0.036   0.690  0.00  0.00    +0.090 A 
ATOM     23  C   LIG    1        3.661  -0.672   0.752  0.00  0.00    +0.010 A 
ATOM     24  C   LIG    1        4.774  -0.041   0.231  0.00  0.00    +0.270 A 
ATOM     25  N   LIG    1        4.679   1.151  -0.326  0.00  0.00    -0.450 NA
ATOM     26  C   LIG    1        3.529   1.789  -0.410  0.00  0.00    +0.140 A 
ATOM     27 CL   LIG    1        3.466   3.357  -1.153  0.00  0.00    -0.030 Cl
ENDBRANCH  18  21
ENDBRANCH  15  17
ENDBRANCH   1  15
TORSDOF 7
