REMARK  Name = ZINCnE000001O1Hv.0
REMARK                            x       y       z     vdW  Elec       q    Type
REMARK                         _______ _______ _______ _____ _____    ______ ____
ROOT
ATOM      1  C   LIG    1       -0.095   2.737  -4.399  0.00  0.00    +0.020 C 
ATOM      2  C   LIG    1       -0.988   1.752  -3.643  0.00  0.00    +0.230 C 
ATOM      3  C   LIG    1       -1.305   0.552  -4.541  0.00  0.00    +0.000 C 
ATOM      4  C   LIG    1       -0.014  -0.217  -4.832  0.00  0.00    +0.030 C 
ATOM      5  C   LIG    1        0.577  -0.739  -3.520  0.00  0.00    -0.100 C 
ATOM      6  C   LIG    1        0.918   0.451  -2.610  0.00  0.00    +0.290 C 
ATOM      7  N   LIG    1       -0.288   1.272  -2.443  0.00  0.00    -0.600 N 
ATOM      8  C   LIG    1       -0.742   1.585  -1.213  0.00  0.00    +0.520 C 
ATOM      9  O   LIG    1       -1.736   2.268  -1.088  0.00  0.00    -0.560 OA
ENDROOT
BRANCH   5  10
ATOM     10  C   LIG    1        1.830  -1.524  -3.810  0.00  0.00    +0.500 C 
ATOM     11  O   LIG    1        1.945  -2.121  -4.867  0.00  0.00    -0.690 OA
ATOM     12  O   LIG    1        2.729  -1.563  -2.988  0.00  0.00    -0.700 OA
ENDBRANCH   5  10
BRANCH   8  13
ATOM     13  C   LIG    1       -0.013   1.086   0.008  0.00  0.00    +0.080 C 
BRANCH  13  14
ATOM     14  C   LIG    1       -0.729   1.579   1.267  0.00  0.00    +0.230 C 
BRANCH  14  15
ATOM     15  O   LIG    1       -0.038   1.106   2.425  0.00  0.00    -0.300 OA
BRANCH  15  16
ATOM     16  C   LIG    1       -0.548   1.458   3.635  0.00  0.00    +0.150 A 
ATOM     17  C   LIG    1       -1.686   2.247   3.706  0.00  0.00    -0.040 A 
ATOM     18  C   LIG    1       -2.206   2.599   4.937  0.00  0.00    +0.080 A 
ATOM     19  C   LIG    1       -1.585   2.175   6.098  0.00  0.00    -0.070 A 
ATOM     20  C   LIG    1       -0.447   1.391   6.030  0.00  0.00    +0.090 A 
ATOM     21 CL   LIG    1       -2.237   2.625   7.643  0.00  0.00    -0.060 Cl
ATOM     22  C   LIG    1        0.074   1.032   4.801  0.00  0.00    -0.060 A 
ATOM     23 CL   LIG    1        1.503   0.050   4.716  0.00  0.00    -0.040 Cl
ENDBRANCH  15  16
ENDBRANCH  14  15
ENDBRANCH  13  14
ENDBRANCH   8  13
TORSDOF 5
