REMARK  Name = ZINCwl0000000zrJ.0
REMARK                            x       y       z     vdW  Elec       q    Type
REMARK                         _______ _______ _______ _____ _____    ______ ____
ROOT
ATOM      1  C   LIG    1        3.571   2.193  -0.020  0.00  0.00    +0.240 C 
ENDROOT
BRANCH   1   2
ATOM      2  N   LIG    1        3.426   3.104   1.117  0.00  0.00    -0.730 N 
ATOM      3  H   LIG    1        2.938   2.821   1.907  0.00  0.00    +0.400 HD
ATOM      4  C   LIG    1        3.970   4.337   1.068  0.00  0.00    +0.570 C 
ATOM      5  O   LIG    1        4.581   4.692   0.078  0.00  0.00    -0.520 OA
BRANCH   4   6
ATOM      6  C   LIG    1        3.823   5.255   2.213  0.00  0.00    -0.230 A 
ATOM      7  C   LIG    1        4.385   6.540   2.172  0.00  0.00    +0.160 A 
ATOM      8  C   LIG    1        4.224   7.358   3.258  0.00  0.00    -0.040 A 
ATOM      9  C   LIG    1        3.513   6.895   4.363  0.00  0.00    +0.350 A 
ATOM     10  N   LIG    1        2.992   5.676   4.377  0.00  0.00    -0.520 NA
ATOM     11  C   LIG    1        3.119   4.859   3.352  0.00  0.00    +0.320 A 
BRANCH   9  12
ATOM     12  N   LIG    1        3.348   7.720   5.463  0.00  0.00    -0.470 N 
ATOM     13  C   LIG    1        4.645   8.183   5.973  0.00  0.00    +0.200 C 
ATOM     14  C   LIG    1        4.420   9.204   7.091  0.00  0.00    +0.050 C 
ATOM     15  C   LIG    1        3.612   8.551   8.216  0.00  0.00    -0.030 C 
ATOM     16  C   LIG    1        2.287   8.034   7.649  0.00  0.00    +0.020 C 
ATOM     17  C   LIG    1        3.332   9.582   9.311  0.00  0.00    +0.030 C 
ATOM     18  C   LIG    1        2.574   7.048   6.514  0.00  0.00    +0.210 C 
ENDBRANCH   9  12
ENDBRANCH   4   6
ENDBRANCH   1   2
BRANCH   1  20
ATOM     19  C   LIG    1        6.057   2.447  -0.042  0.00  0.00    +0.020 C 
ATOM     20  C   LIG    1        4.904   1.450   0.089  0.00  0.00    +0.020 C 
ENDBRANCH   1  20
BRANCH   1  21
ATOM     21  C   LIG    1        2.422   1.183  -0.015  0.00  0.00    +0.280 C 
BRANCH  21  22
ATOM     22  N   LIG    1        1.143   1.898   0.001  0.00  0.00    -0.730 N 
ATOM     23  H   LIG    1        1.130   2.868   0.007  0.00  0.00    +0.400 HD
ATOM     24  C   LIG    1       -0.014   1.209   0.009  0.00  0.00    +0.510 C 
ATOM     25  O   LIG    1        0.002  -0.004   0.002  0.00  0.00    -0.520 OA
BRANCH  24  26
ATOM     26  C   LIG    1       -1.330   1.944   0.019  0.00  0.00    +0.230 C 
BRANCH  26  27
ATOM     27  N   LIG    1       -2.433   0.975   0.019  0.00  0.00    -0.520 NA
ATOM     28  C   LIG    1       -2.471   0.220  -1.242  0.00  0.00    +0.220 C 
ATOM     29  C   LIG    1       -3.594  -0.818  -1.178  0.00  0.00    +0.280 C 
ATOM     30  N   LIG    1       -4.877  -0.138  -0.956  0.00  0.00    -0.390 N 
ATOM     31  C   LIG    1       -4.832   0.591   0.318  0.00  0.00    +0.280 C 
ATOM     32  H   LIG    1       -5.048   0.511  -1.709  0.00  0.00    +0.420 HD
ATOM     33  C   LIG    1       -3.720   1.641   0.267  0.00  0.00    +0.220 C 
BRANCH  30  34
ATOM     34  C   LIG    1       -5.957  -1.133  -0.913  0.00  0.00    +0.250 C 
ATOM     35  C   LIG    1       -6.085  -1.806  -2.281  0.00  0.00    +0.080 C 
ENDBRANCH  30  34
ENDBRANCH  26  27
ENDBRANCH  24  26
ENDBRANCH  21  22
ENDBRANCH   1  21
TORSDOF 9
