REMARK  Name = ZINCnE000001UbgI.1
REMARK                            x       y       z     vdW  Elec       q    Type
REMARK                         _______ _______ _______ _____ _____    ______ ____
ROOT
ATOM      1  N   LIG    1       -3.145   0.587   1.603  0.00  0.00    -1.090 NA
ENDROOT
BRANCH   1   2
ATOM      2  C   LIG    1       -4.313  -0.113   1.914  0.00  0.00    +0.280 A 
ATOM      3  C   LIG    1       -5.129  -0.592   0.895  0.00  0.00    -0.150 A 
ATOM      4  C   LIG    1       -6.285  -1.286   1.198  0.00  0.00    +0.050 A 
ATOM      5  C   LIG    1       -6.638  -1.508   2.514  0.00  0.00    -0.080 A 
ATOM      6  C   LIG    1       -5.825  -1.031   3.544  0.00  0.00    +0.000 A 
ATOM      7  C   LIG    1       -4.656  -0.336   3.239  0.00  0.00    -0.030 A 
BRANCH   6   8
ATOM      8  C   LIG    1       -6.201  -1.267   4.955  0.00  0.00    +0.040 A 
ATOM      9  C   LIG    1       -7.300  -1.928   5.399  0.00  0.00    +0.130 A 
ATOM     10  N   LIG    1       -7.263  -1.917   6.740  0.00  0.00    -0.490 NA
ATOM     11  C   LIG    1       -6.194  -1.280   7.128  0.00  0.00    +0.400 A 
ATOM     12  O   LIG    1       -5.513  -0.872   6.048  0.00  0.00    -0.200 OA
ENDBRANCH   6   8
ENDBRANCH   1   2
BRANCH   1  14
ATOM     13  O   LIG    1       -3.720   1.716  -0.515  0.00  0.00    -1.020 OA
ATOM     14  S   LIG    1       -2.732   0.846   0.020  0.00  0.00    +2.600 S 
ATOM     15  O   LIG    1       -2.438  -0.430  -0.532  0.00  0.00    -1.020 OA
BRANCH  14  16
ATOM     16  C   LIG    1       -1.219   1.750   0.017  0.00  0.00    -0.600 A 
ATOM     17  C   LIG    1       -0.013   1.076   0.008  0.00  0.00    +0.160 A 
ATOM     18  C   LIG    1        1.176   1.783   0.000  0.00  0.00    +0.000 A 
ATOM     19  C   LIG    1        1.158   3.166   0.007  0.00  0.00    +0.100 A 
ATOM     20  C   LIG    1       -0.053   3.842   0.022  0.00  0.00    +0.040 A 
ATOM     21  F   LIG    1       -0.073   5.193   0.029  0.00  0.00    -0.130 F 
ATOM     22  F   LIG    1        2.318   3.857   0.001  0.00  0.00    -0.130 F 
ATOM     23  C   LIG    1       -1.240   3.132   0.030  0.00  0.00    +0.130 A 
ENDBRANCH  14  16
ENDBRANCH   1  14
TORSDOF 4
