REMARK  Name = ZINCrH00000No54M.0
REMARK                            x       y       z     vdW  Elec       q    Type
REMARK                         _______ _______ _______ _____ _____    ______ ____
ROOT
ATOM      1  C   LIG    1        0.979   3.615   0.012  0.00  0.00    +0.200 C 
ENDROOT
BRANCH   1   2
ATOM      2  N   LIG    1        2.241   4.367   0.004  0.00  0.00    -0.540 NA
ATOM      3  C   LIG    1        2.990   4.151   1.249  0.00  0.00    +0.200 C 
BRANCH   2   4
ATOM      4  C   LIG    1        2.000   5.798  -0.224  0.00  0.00    +0.280 C 
BRANCH   4   5
ATOM      5  C   LIG    1        3.312   6.495  -0.470  0.00  0.00    +0.070 A 
ATOM      6  C   LIG    1        3.794   6.718  -1.697  0.00  0.00    -0.060 A 
ATOM      7  S   LIG    1        5.337   7.553  -1.530  0.00  0.00    +0.120 S 
ATOM      8  C   LIG    1        5.184   7.513   0.172  0.00  0.00    +0.060 A 
ATOM      9  N   LIG    1        4.082   6.931   0.507  0.00  0.00    -0.470 NA
BRANCH   8  10
ATOM     10  C   LIG    1        6.191   8.076   1.142  0.00  0.00    +0.080 C 
ATOM     11  C   LIG    1        6.408   9.578   0.866  0.00  0.00    +0.020 C 
ATOM     12  C   LIG    1        7.922   9.795   1.119  0.00  0.00    +0.020 C 
ATOM     13  C   LIG    1        8.553   8.499   0.553  0.00  0.00    +0.010 C 
ATOM     14  C   LIG    1        7.555   7.390   0.943  0.00  0.00    +0.030 C 
ENDBRANCH   8  10
ENDBRANCH   4   5
ENDBRANCH   2   4
ENDBRANCH   1   2
BRANCH   1  15
ATOM     15  C   LIG    1        1.278   2.115   0.001  0.00  0.00    +0.070 C 
BRANCH  15  17
ATOM     16  N   LIG    1        0.002  -0.004   0.002  0.00  0.00    -0.620 N 
ATOM     17  C   LIG    1       -0.016   1.344   0.009  0.00  0.00    +0.520 C 
ATOM     18  O   LIG    1       -1.075   1.936   0.018  0.00  0.00    -0.530 OA
ATOM     19  C   LIG    1        1.281  -0.719  -0.014  0.00  0.00    +0.290 C 
BRANCH  16  20
ATOM     20  C   LIG    1       -1.256  -0.754   0.010  0.00  0.00    +0.410 C 
BRANCH  20  24
ATOM     21  C   LIG    1       -1.944  -2.029  -3.454  0.00  0.00    +0.310 A 
ATOM     22  N   LIG    1       -2.684  -0.997  -3.744  0.00  0.00    -0.540 NA
ATOM     23  S   LIG    1       -2.709   0.002  -2.374  0.00  0.00    +0.330 S 
ATOM     24  C   LIG    1       -1.702  -1.003  -1.408  0.00  0.00    -0.180 A 
ATOM     25  C   LIG    1       -1.388  -2.060  -2.188  0.00  0.00    -0.030 A 
BRANCH  21  27
ATOM     26  C   LIG    1       -2.342  -2.889  -5.635  0.00  0.00    +0.260 C 
ATOM     27  O   LIG    1       -1.723  -3.024  -4.354  0.00  0.00    -0.300 OA
ENDBRANCH  21  27
ENDBRANCH  20  24
ENDBRANCH  16  20
ENDBRANCH  15  17
ENDBRANCH   1  15
TORSDOF 9
