REMARK  Name = ZINCrD000001YLth.0
REMARK                            x       y       z     vdW  Elec       q    Type
REMARK                         _______ _______ _______ _____ _____    ______ ____
ROOT
ATOM      1  C   LIG    1        4.946   0.429  -1.010  0.00  0.00    +0.010 C 
ATOM      2  C   LIG    1        5.108   1.877  -1.544  0.00  0.00    +0.280 C 
ATOM      3  N   LIG    1        4.132   2.671  -0.775  0.00  0.00    -0.610 N 
ATOM      4  C   LIG    1        3.062   1.778  -0.307  0.00  0.00    +0.290 C 
ATOM      5  C   LIG    1        4.205   3.997  -0.545  0.00  0.00    +0.580 C 
ATOM      6  O   LIG    1        5.085   4.654  -1.060  0.00  0.00    -0.520 OA
ATOM      7  C   LIG    1        3.412   0.353  -0.785  0.00  0.00    +0.000 C 
ENDROOT
BRANCH   7   8
ATOM      8  C   LIG    1        3.070  -0.679   0.291  0.00  0.00    +0.460 C 
ATOM      9  F   LIG    1        3.665  -0.306   1.501  0.00  0.00    -0.170 F 
ATOM     10  F   LIG    1        3.549  -1.935  -0.097  0.00  0.00    -0.170 F 
ATOM     11  F   LIG    1        1.681  -0.739   0.454  0.00  0.00    -0.180 F 
ENDBRANCH   7   8
BRANCH   5  12
ATOM     12  C   LIG    1        3.194   4.663   0.352  0.00  0.00    -0.120 C 
ATOM     13  C   LIG    1        2.822   6.114   0.042  0.00  0.00    +0.090 C 
ATOM     14  C   LIG    1        1.825   4.990  -0.247  0.00  0.00    +0.070 C 
BRANCH  12  15
ATOM     15  C   LIG    1        3.239   4.250   1.801  0.00  0.00    -0.030 A 
ATOM     16  C   LIG    1        2.084   4.267   2.560  0.00  0.00    +0.020 A 
ATOM     17  C   LIG    1        2.125   3.889   3.889  0.00  0.00    +0.040 A 
ATOM     18  C   LIG    1        3.319   3.487   4.458  0.00  0.00    +0.030 A 
ATOM     19  C   LIG    1        4.476   3.476   3.700  0.00  0.00    -0.030 A 
ATOM     20 CL   LIG    1        5.978   2.979   4.415  0.00  0.00    -0.060 Cl
ATOM     21  C   LIG    1        4.435   3.855   2.370  0.00  0.00    +0.030 A 
ENDBRANCH  12  15
ENDBRANCH   5  12
BRANCH   1  22
ATOM     22  C   LIG    1        5.703   0.236   0.305  0.00  0.00    +0.280 C 
BRANCH  22  24
ATOM     23  C   LIG    1        8.013   0.204   1.080  0.00  0.00    +0.540 C 
ATOM     24  N   LIG    1        7.143   0.342   0.059  0.00  0.00    -0.730 N 
ATOM     25  H   LIG    1        7.471   0.510  -0.838  0.00  0.00    +0.400 HD
ATOM     26  O   LIG    1        7.602  -0.008   2.205  0.00  0.00    -0.530 OA
BRANCH  23  28
ATOM     27  C   LIG    1       10.317   0.175   1.840  0.00  0.00    +0.140 C 
ATOM     28  C   LIG    1        9.459   0.310   0.833  0.00  0.00    -0.090 C 
ENDBRANCH  23  28
ENDBRANCH  22  24
ENDBRANCH   1  22
TORSDOF 6
