REMARK  Name = ZINCpk00000xIh1B.0
REMARK                            x       y       z     vdW  Elec       q    Type
REMARK                         _______ _______ _______ _____ _____    ______ ____
ROOT
ATOM      1  C   LIG    1        1.101   2.256   0.004  0.00  0.00    -0.230 A 
ATOM      2  C   LIG    1       -0.018   1.503   0.010  0.00  0.00    +0.000 A 
ATOM      3  C   LIG    1       -1.192   2.247   0.019  0.00  0.00    +0.000 A 
ATOM      4  C   LIG    1       -0.993   3.600   0.030  0.00  0.00    -0.780 A 
ATOM      5  C   LIG    1        0.002  -0.004   0.002  0.00  0.00    +0.150 C 
ATOM      6  S   LIG    1        0.674   3.961   0.016  0.00  0.00    +0.390 S 
ENDROOT
BRANCH   4   7
ATOM      7  S   LIG    1       -2.280   4.804   0.048  0.00  0.00    +2.700 S 
ATOM      8  O   LIG    1       -2.934   4.674   1.303  0.00  0.00    -0.920 OA
ATOM      9  O   LIG    1       -2.956   4.686  -1.197  0.00  0.00    -0.920 OA
BRANCH   7  10
ATOM     10  N   LIG    1       -1.558   6.294   0.049  0.00  0.00    -1.000 NA
ATOM     11  C   LIG    1       -1.222   6.972   1.311  0.00  0.00    +0.280 C 
ATOM     12  C   LIG    1        0.248   7.418   1.238  0.00  0.00    +0.130 C 
ATOM     13  O   LIG    1        0.451   8.171   0.040  0.00  0.00    -0.360 OA
ATOM     14  C   LIG    1        0.227   7.430  -1.162  0.00  0.00    +0.130 C 
ATOM     15  C   LIG    1        0.533   8.313  -2.373  0.00  0.00    +0.070 C 
ATOM     16  C   LIG    1        0.575   8.290   2.452  0.00  0.00    +0.070 C 
ATOM     17  C   LIG    1       -1.239   6.982  -1.212  0.00  0.00    +0.280 C 
ENDBRANCH   7  10
ENDBRANCH   4   7
BRANCH   1  18
ATOM     18  C   LIG    1        2.469   1.731  -0.012  0.00  0.00    +0.540 C 
ATOM     19  O   LIG    1        2.659   0.530  -0.020  0.00  0.00    -0.470 OA
BRANCH  18  21
ATOM     20  C   LIG    1        4.844   1.990  -0.033  0.00  0.00    +0.290 C 
ATOM     21  O   LIG    1        3.517   2.580  -0.017  0.00  0.00    -0.360 OA
ENDBRANCH  18  21
ENDBRANCH   1  18
BRANCH   3  22
ATOM     22  C   LIG    1       -2.530   1.634   0.022  0.00  0.00    +0.500 C 
ATOM     23  O   LIG    1       -3.078   1.375   1.075  0.00  0.00    -0.460 OA
BRANCH  22  24
ATOM     24  O   LIG    1       -3.147   1.359  -1.144  0.00  0.00    -0.340 OA
ATOM     25  C   LIG    1       -4.465   0.754  -1.066  0.00  0.00    +0.280 C 
ENDBRANCH  22  24
ENDBRANCH   3  22
TORSDOF 6
