REMARK  Name = ZINCrg00000yrcXV.0
REMARK                            x       y       z     vdW  Elec       q    Type
REMARK                         _______ _______ _______ _____ _____    ______ ____
ROOT
ATOM      1  C   LIG    1        0.315  -2.225  -4.074  0.00  0.00    +0.180 A 
ATOM      2  C   LIG    1        0.303  -0.885  -3.891  0.00  0.00    -0.080 A 
ATOM      3  C   LIG    1        0.991  -0.286  -5.035  0.00  0.00    +0.540 A 
ATOM      4  N   LIG    1        1.372  -1.300  -5.840  0.00  0.00    -0.370 N 
ATOM      5  O   LIG    1        1.184   0.901  -5.225  0.00  0.00    -0.510 OA
ATOM      6  N   LIG    1        0.954  -2.500  -5.253  0.00  0.00    -0.390 N 
ATOM      7  C   LIG    1        1.170  -3.838  -5.810  0.00  0.00    +0.360 C 
ENDROOT
BRANCH   4   8
ATOM      8  C   LIG    1        2.063  -1.174  -7.048  0.00  0.00    +0.150 A 
ATOM      9  C   LIG    1        3.188  -1.952  -7.291  0.00  0.00    +0.000 A 
ATOM     10  C   LIG    1        3.866  -1.828  -8.488  0.00  0.00    +0.030 A 
ATOM     11  C   LIG    1        3.433  -0.924  -9.440  0.00  0.00    +0.010 A 
ATOM     12  C   LIG    1        2.316  -0.144  -9.199  0.00  0.00    +0.030 A 
ATOM     13  C   LIG    1        1.631  -0.267  -8.007  0.00  0.00    +0.030 A 
ENDBRANCH   4   8
BRANCH   2  14
ATOM     14  N   LIG    1       -0.263  -0.195  -2.801  0.00  0.00    -0.640 N 
ATOM     15  H   LIG    1        0.018  -0.404  -1.896  0.00  0.00    +0.400 HD
ATOM     16  C   LIG    1       -1.194   0.756  -3.014  0.00  0.00    +0.480 C 
ATOM     17  O   LIG    1       -1.479   1.082  -4.148  0.00  0.00    -0.500 OA
BRANCH  16  18
ATOM     18  C   LIG    1       -1.881   1.414  -1.845  0.00  0.00    +0.230 C 
BRANCH  18  19
ATOM     19  O   LIG    1       -2.898   2.295  -2.325  0.00  0.00    -0.520 OA
ATOM     20  H   LIG    1       -2.570   3.001  -2.898  0.00  0.00    +0.380 HD
ENDBRANCH  18  19
BRANCH  18  21
ATOM     21  C   LIG    1       -0.857   2.212  -1.035  0.00  0.00    +0.120 C 
BRANCH  21  22
ATOM     22  C   LIG    1       -1.517   2.768   0.200  0.00  0.00    +0.000 A 
ATOM     23  C   LIG    1       -1.107   2.581   1.469  0.00  0.00    +0.110 A 
ATOM     24  N   LIG    1       -1.984   3.259   2.272  0.00  0.00    -0.470 N 
ATOM     25  C   LIG    1       -2.905   3.830   1.466  0.00  0.00    +0.380 A 
ATOM     26  C   LIG    1       -1.936   3.345   3.734  0.00  0.00    +0.320 C 
ATOM     27  N   LIG    1       -2.619   3.532   0.228  0.00  0.00    -0.470 NA
ENDBRANCH  21  22
ENDBRANCH  18  21
ENDBRANCH  16  18
ENDBRANCH   2  14
BRANCH   1  29
ATOM     28  C   LIG    1       -1.694  -3.599  -3.598  0.00  0.00    +0.040 C 
ATOM     29  C   LIG    1       -0.279  -3.245  -3.136  0.00  0.00    +0.130 C 
ENDBRANCH   1  29
TORSDOF 7
