REMARK  Name = ZINCpk00000E9t5c.0
REMARK                            x       y       z     vdW  Elec       q    Type
REMARK                         _______ _______ _______ _____ _____    ______ ____
ROOT
ATOM      1  N   LIG    1       -2.627  -2.601   2.111  0.00  0.00    -0.700 N 
ATOM      2  H   LIG    1       -3.079  -1.921   1.587  0.00  0.00    +0.410 HD
ATOM      3  C   LIG    1       -2.558  -2.485   3.452  0.00  0.00    +0.590 C 
ATOM      4  O   LIG    1       -1.992  -3.337   4.108  0.00  0.00    -0.520 OA
ENDROOT
BRANCH   3   5
ATOM      5  C   LIG    1       -3.173  -1.320   4.125  0.00  0.00    +0.030 A 
ATOM      6  N   LIG    1       -3.780  -0.398   3.413  0.00  0.00    -0.180 NA
ATOM      7  N   LIG    1       -4.333   0.629   3.951  0.00  0.00    -0.340 N 
ATOM      8  C   LIG    1       -4.315   0.829   5.282  0.00  0.00    +0.480 A 
ATOM      9  C   LIG    1       -3.677  -0.113   6.119  0.00  0.00    -0.010 A 
ATOM     10  O   LIG    1       -4.846   1.817   5.761  0.00  0.00    -0.510 OA
ATOM     11  C   LIG    1       -3.100  -1.200   5.534  0.00  0.00    +0.140 A 
BRANCH   7  12
ATOM     12  C   LIG    1       -4.997   1.612   3.091  0.00  0.00    +0.320 C 
BRANCH  12  13
ATOM     13  C   LIG    1       -3.988   2.681   2.666  0.00  0.00    +0.210 C 
ATOM     14  F   LIG    1       -4.622   3.620   1.845  0.00  0.00    -0.200 F 
ENDBRANCH  12  13
ENDBRANCH   7  12
ENDBRANCH   3   5
BRANCH   1  16
ATOM     15  C   LIG    1       -3.003  -4.925   1.449  0.00  0.00    +0.020 C 
ATOM     16  C   LIG    1       -2.018  -3.755   1.444  0.00  0.00    +0.240 C 
BRANCH  16  17
ATOM     17  C   LIG    1       -1.672  -3.385  -0.000  0.00  0.00    +0.080 C 
BRANCH  17  18
ATOM     18  C   LIG    1       -0.610  -2.316  -0.005  0.00  0.00    -0.120 A 
ATOM     19  C   LIG    1       -0.985  -1.012   0.006  0.00  0.00    +0.080 A 
ATOM     20  C   LIG    1        0.002  -0.004   0.002  0.00  0.00    -0.200 A 
ATOM     21  C   LIG    1       -0.017   1.378   0.010  0.00  0.00    +0.270 A 
ATOM     22  N   LIG    1        1.252   1.808  -0.000  0.00  0.00    -0.420 N 
ATOM     23  H   LIG    1        1.525   2.738   0.002  0.00  0.00    +0.440 HD
ATOM     24  N   LIG    1        2.126   0.714  -0.014  0.00  0.00    -0.300 NA
ATOM     25  C   LIG    1        1.419  -0.401  -0.014  0.00  0.00    +0.100 A 
ATOM     26  C   LIG    1        1.734  -1.776  -0.024  0.00  0.00    +0.030 A 
ATOM     27  C   LIG    1        0.735  -2.693  -0.019  0.00  0.00    +0.060 A 
ENDBRANCH  17  18
ENDBRANCH  16  17
ENDBRANCH   1  16
TORSDOF 6
