REMARK  Name = ZINCvU0000000D0N.0
REMARK                            x       y       z     vdW  Elec       q    Type
REMARK                         _______ _______ _______ _____ _____    ______ ____
ROOT
ATOM      1  C   LIG    1        1.262   2.169   0.002  0.00  0.00    +0.090 A 
ATOM      2  C   LIG    1       -0.021   1.706   0.011  0.00  0.00    -0.080 A 
ATOM      3  S   LIG    1        0.002  -0.004   0.002  0.00  0.00    +0.170 S 
ATOM      4  C   LIG    1        1.761  -0.004  -0.015  0.00  0.00    +0.280 A 
ATOM      5  N   LIG    1        2.198   1.215  -0.012  0.00  0.00    -0.440 NA
ENDROOT
BRANCH   4   6
ATOM      6  N   LIG    1        2.561  -1.140  -0.029  0.00  0.00    -0.480 N 
ATOM      7  C   LIG    1        3.903  -1.020  -0.042  0.00  0.00    +0.510 C 
ATOM      8  O   LIG    1        4.413   0.081  -0.041  0.00  0.00    -0.460 OA
ATOM      9  C   LIG    1        4.770  -2.252  -0.057  0.00  0.00    +0.130 C 
BRANCH   6  10
ATOM     10  C   LIG    1        1.971  -2.413  -0.030  0.00  0.00    +0.050 A 
ATOM     11  C   LIG    1        1.667  -3.037  -1.232  0.00  0.00    +0.120 A 
ATOM     12  C   LIG    1        1.086  -4.291  -1.231  0.00  0.00    +0.010 A 
ATOM     13  C   LIG    1        0.807  -4.926  -0.033  0.00  0.00    +0.160 A 
ATOM     14  C   LIG    1        1.109  -4.306   1.169  0.00  0.00    -0.020 A 
ATOM     15  F   LIG    1        0.239  -6.151  -0.035  0.00  0.00    -0.120 F 
ATOM     16  C   LIG    1        1.695  -3.054   1.173  0.00  0.00    +0.150 A 
ATOM     17  F   LIG    1        1.995  -2.451   2.344  0.00  0.00    -0.110 F 
ENDBRANCH   6  10
ENDBRANCH   4   6
BRANCH   1  19
ATOM     18  C   LIG    1        2.883   3.997  -0.004  0.00  0.00    -0.050 C 
ATOM     19  C   LIG    1        1.587   3.597   0.006  0.00  0.00    +0.150 C 
BRANCH  18  20
ATOM     20  C   LIG    1        3.197   5.376  -0.001  0.00  0.00    +0.420 C 
ATOM     21  O   LIG    1        2.304   6.205   0.012  0.00  0.00    -0.440 OA
BRANCH  20  26
ATOM     22  C   LIG    1        6.954   5.280  -0.037  0.00  0.00    +0.080 A 
ATOM     23  C   LIG    1        7.260   6.635  -0.033  0.00  0.00    +0.000 A 
ATOM     24  C   LIG    1        6.250   7.578  -0.019  0.00  0.00    -0.050 A 
ATOM     25  C   LIG    1        4.924   7.177  -0.014  0.00  0.00    +0.150 A 
ATOM     26  C   LIG    1        4.608   5.812  -0.012  0.00  0.00    -0.160 A 
ATOM     27  C   LIG    1        5.635   4.865  -0.026  0.00  0.00    +0.080 A 
BRANCH  22  29
ATOM     28  C   LIG    1        9.294   4.857  -0.062  0.00  0.00    +0.230 C 
ATOM     29  O   LIG    1        7.954   4.359  -0.051  0.00  0.00    -0.310 OA
ENDBRANCH  22  29
BRANCH  25  30
ATOM     30  O   LIG    1        3.932   8.105  -0.005  0.00  0.00    -0.290 OA
ATOM     31  C   LIG    1        4.328   9.478  -0.008  0.00  0.00    +0.240 C 
ENDBRANCH  25  30
ENDBRANCH  20  26
ENDBRANCH  18  20
ENDBRANCH   1  19
TORSDOF 7
