REMARK  Name = ZINCpe00000Rc67v.0
REMARK                            x       y       z     vdW  Elec       q    Type
REMARK                         _______ _______ _______ _____ _____    ______ ____
ROOT
ATOM      1  C   LIG    1       -0.566   4.239   1.613  0.00  0.00    +0.150 C 
ATOM      2  C   LIG    1       -1.443   3.426   0.624  0.00  0.00    +0.060 C 
ATOM      3  C   LIG    1       -1.086   1.964   0.965  0.00  0.00    +0.230 C 
ATOM      4  N   LIG    1       -0.553   1.954   2.336  0.00  0.00    -0.590 N 
ATOM      5  C   LIG    1       -0.108   0.867   2.997  0.00  0.00    +0.590 C 
ATOM      6  O   LIG    1       -0.041  -0.205   2.429  0.00  0.00    -0.520 OA
ATOM      7  C   LIG    1       -0.588   3.329   2.867  0.00  0.00    +0.280 C 
ENDROOT
BRANCH   5   8
ATOM      8  C   LIG    1        0.299   0.980   4.418  0.00  0.00    +0.120 A 
ATOM      9  C   LIG    1        0.757  -0.145   5.094  0.00  0.00    -0.030 A 
ATOM     10  C   LIG    1        1.136  -0.022   6.430  0.00  0.00    +0.240 A 
ATOM     11  C   LIG    1        1.038   1.231   7.033  0.00  0.00    -0.090 A 
ATOM     12  C   LIG    1        0.573   2.302   6.293  0.00  0.00    +0.300 A 
ATOM     13  N   LIG    1        0.227   2.156   5.032  0.00  0.00    -0.500 NA
BRANCH  10  14
ATOM     14  N   LIG    1        1.601  -1.123   7.144  0.00  0.00    -0.620 N 
ATOM     15  C   LIG    1        1.994  -0.973   8.547  0.00  0.00    +0.280 C 
ATOM     16  C   LIG    1        1.696  -2.432   6.492  0.00  0.00    +0.290 C 
ENDBRANCH  10  14
ENDBRANCH   5   8
BRANCH   1  18
ATOM     17  C   LIG    1       -0.206   6.537   2.193  0.00  0.00    +0.210 C 
ATOM     18  O   LIG    1       -1.155   5.511   1.894  0.00  0.00    -0.370 OA
ENDBRANCH   1  18
BRANCH   3  19
ATOM     19  C   LIG    1       -0.025   1.447  -0.009  0.00  0.00    +0.320 C 
BRANCH  19  20
ATOM     20  N   LIG    1       -0.579   1.420  -1.365  0.00  0.00    -0.370 N 
ATOM     21  C   LIG    1       -0.060   2.038  -2.446  0.00  0.00    +0.250 A 
ATOM     22  C   LIG    1       -0.860   1.768  -3.502  0.00  0.00    -0.170 A 
ATOM     23  C   LIG    1       -1.915   0.960  -3.048  0.00  0.00    +0.330 A 
ATOM     24  N   LIG    1       -1.744   0.752  -1.764  0.00  0.00    -0.350 NA
BRANCH  23  25
ATOM     25  N   LIG    1       -2.965   0.463  -3.829  0.00  0.00    -0.850 N 
ATOM     26  H   LIG    1       -3.007   0.672  -4.776  0.00  0.00    +0.410 HD
ATOM     27  H   LIG    1       -3.651  -0.090  -3.424  0.00  0.00    +0.400 HD
ENDBRANCH  23  25
ENDBRANCH  19  20
ENDBRANCH   3  19
TORSDOF 6
