REMARK  Name = ZINCqH0000031LMT.0
REMARK                            x       y       z     vdW  Elec       q    Type
REMARK                         _______ _______ _______ _____ _____    ______ ____
ROOT
ATOM      1  C   LIG    1        6.674  -0.208   2.800  0.00  0.00    -0.660 A 
ATOM      2  C   LIG    1        6.975  -1.052   3.853  0.00  0.00    +0.130 A 
ATOM      3  C   LIG    1        7.053  -0.551   5.139  0.00  0.00    +0.010 A 
ATOM      4  C   LIG    1        6.830   0.793   5.372  0.00  0.00    +0.070 A 
ATOM      5  C   LIG    1        6.534   1.638   4.319  0.00  0.00    +0.010 A 
ATOM      6  C   LIG    1        6.451   1.136   3.033  0.00  0.00    -0.010 A 
ENDROOT
BRANCH   1   7
ATOM      7  S   LIG    1        6.575  -0.846   1.161  0.00  0.00    +2.690 S 
ATOM      8  O   LIG    1        5.346  -0.379   0.622  0.00  0.00    -0.950 OA
ATOM      9  O   LIG    1        6.913  -2.224   1.245  0.00  0.00    -0.950 OA
BRANCH   7  10
ATOM     10  N   LIG    1        7.777  -0.123   0.280  0.00  0.00    -1.110 NA
ATOM     11  H   LIG    1        7.551   0.484  -0.442  0.00  0.00    +0.420 HD
BRANCH  10  13
ATOM     12  C   LIG    1        9.482  -1.876   0.325  0.00  0.00    +0.040 C 
ATOM     13  C   LIG    1        9.181  -0.400   0.592  0.00  0.00    +0.170 C 
ATOM     14  C   LIG    1        9.449  -0.083   2.065  0.00  0.00    +0.030 C 
ATOM     15  C   LIG    1       10.080   0.471  -0.288  0.00  0.00    +0.050 C 
ENDBRANCH  10  13
ENDBRANCH   7  10
ENDBRANCH   1   7
BRANCH   6  16
ATOM     16  C   LIG    1        6.123   2.056   1.885  0.00  0.00    +0.310 C 
BRANCH  16  17
ATOM     17  N   LIG    1        4.696   1.956   1.572  0.00  0.00    -0.710 N 
ATOM     18  H   LIG    1        4.116   1.404   2.120  0.00  0.00    +0.400 HD
ATOM     19  C   LIG    1        4.188   2.631   0.521  0.00  0.00    +0.520 C 
ATOM     20  O   LIG    1        4.926   3.244  -0.220  0.00  0.00    -0.540 OA
BRANCH  19  21
ATOM     21  C   LIG    1        2.702   2.623   0.268  0.00  0.00    +0.050 C 
BRANCH  21  22
ATOM     22  C   LIG    1        2.377   3.567  -0.891  0.00  0.00    +0.040 C 
BRANCH  22  23
ATOM     23  C   LIG    1        0.869   3.559  -1.148  0.00  0.00    -0.020 C 
ATOM     24  C   LIG    1        0.142   4.142   0.065  0.00  0.00    +0.000 C 
ATOM     25  C   LIG    1       -1.367   4.134  -0.193  0.00  0.00    +0.000 C 
ATOM     26  C   LIG    1       -1.677   4.980  -1.429  0.00  0.00    +0.000 C 
ATOM     27  C   LIG    1       -0.950   4.397  -2.642  0.00  0.00    +0.000 C 
ATOM     28  C   LIG    1        0.558   4.405  -2.385  0.00  0.00    +0.010 C 
ENDBRANCH  22  23
ENDBRANCH  21  22
ENDBRANCH  19  21
ENDBRANCH  16  17
ENDBRANCH   6  16
TORSDOF 8
