REMARK  Name = ZINCqH00000397ox.0
REMARK                            x       y       z     vdW  Elec       q    Type
REMARK                         _______ _______ _______ _____ _____    ______ ____
ROOT
ATOM      1  N   LIG    1       -2.943   5.359  -0.309  0.00  0.00    -0.670 N 
ATOM      2  H   LIG    1       -2.178   5.935  -0.466  0.00  0.00    +0.410 HD
ATOM      3  C   LIG    1       -4.179   5.889  -0.224  0.00  0.00    +0.510 C 
ATOM      4  O   LIG    1       -5.145   5.162  -0.122  0.00  0.00    -0.520 OA
ENDROOT
BRANCH   1   9
ATOM      5  C   LIG    1       -1.587   1.965  -0.747  0.00  0.00    +0.180 A 
ATOM      6  C   LIG    1       -2.412   1.243   0.106  0.00  0.00    -0.030 A 
ATOM      7  C   LIG    1       -3.408   1.888   0.816  0.00  0.00    +0.050 A 
ATOM      8  C   LIG    1       -3.585   3.251   0.679  0.00  0.00    -0.010 A 
ATOM      9  C   LIG    1       -2.763   3.978  -0.172  0.00  0.00    +0.170 A 
ATOM     10  C   LIG    1       -1.759   3.335  -0.882  0.00  0.00    -0.010 A 
BRANCH   5  15
ATOM     11  N   LIG    1        0.807   1.188  -3.339  0.00  0.00    -0.860 N 
ATOM     12  H   LIG    1        1.054   1.502  -4.223  0.00  0.00    +0.420 HD
ATOM     13  H   LIG    1        1.310   0.472  -2.921  0.00  0.00    +0.400 HD
ATOM     14  C   LIG    1       -0.235   1.748  -2.693  0.00  0.00    +0.700 C 
ATOM     15  N   LIG    1       -0.579   1.312  -1.464  0.00  0.00    -0.680 N 
ATOM     16  H   LIG    1       -0.124   0.547  -1.076  0.00  0.00    +0.410 HD
ATOM     17  O   LIG    1       -0.866   2.645  -3.217  0.00  0.00    -0.570 OA
ENDBRANCH   5  15
ENDBRANCH   1   9
BRANCH   3  18
ATOM     18  C   LIG    1       -4.362   7.385  -0.257  0.00  0.00    +0.070 C 
BRANCH  18  19
ATOM     19  C   LIG    1       -5.851   7.719  -0.145  0.00  0.00    +0.140 C 
BRANCH  19  20
ATOM     20  C   LIG    1       -6.033   9.215  -0.177  0.00  0.00    +0.030 A 
ATOM     21  C   LIG    1       -6.125   9.975  -1.290  0.00  0.00    -0.050 A 
ATOM     22  C   LIG    1       -6.289  11.309  -0.883  0.00  0.00    -0.030 A 
ATOM     23  C   LIG    1       -6.292  11.320   0.479  0.00  0.00    +0.050 A 
ATOM     24  N   LIG    1       -6.140  10.028   0.912  0.00  0.00    -0.550 N 
ATOM     25  H   LIG    1       -6.112   9.740   1.838  0.00  0.00    +0.410 HD
BRANCH  23  26
ATOM     26  C   LIG    1       -6.440  12.514   1.339  0.00  0.00    -0.010 A 
ATOM     27  C   LIG    1       -6.433  12.382   2.728  0.00  0.00    -0.020 A 
ATOM     28  C   LIG    1       -6.566  13.501   3.525  0.00  0.00    +0.010 A 
ATOM     29  C   LIG    1       -6.718  14.750   2.950  0.00  0.00    +0.000 A 
ATOM     30  C   LIG    1       -6.731  14.886   1.573  0.00  0.00    +0.020 A 
ATOM     31  C   LIG    1       -6.593  13.777   0.765  0.00  0.00    +0.020 A 
ENDBRANCH  23  26
ENDBRANCH  19  20
ENDBRANCH  18  19
ENDBRANCH   3  18
TORSDOF 6
