REMARK  Name = ZINCqH0000005q1W.0
REMARK                            x       y       z     vdW  Elec       q    Type
REMARK                         _______ _______ _______ _____ _____    ______ ____
ROOT
ATOM      1  C   LIG    1        1.175   1.782   0.000  0.00  0.00    -0.150 A 
ATOM      2  C   LIG    1       -0.013   1.076   0.008  0.00  0.00    +0.140 A 
ATOM      3  C   LIG    1       -1.219   1.749   0.017  0.00  0.00    -0.080 A 
ATOM      4  C   LIG    1       -1.241   3.137   0.031  0.00  0.00    +0.150 A 
ATOM      5  C   LIG    1       -0.050   3.847   0.024  0.00  0.00    -0.060 A 
ATOM      6  C   LIG    1        1.159   3.170   0.009  0.00  0.00    +0.160 A 
ENDROOT
BRANCH   1  19
ATOM      7  C   LIG    1        3.456  -1.147  -0.342  0.00  0.00    +0.230 C 
ATOM      8  N   LIG    1        2.280  -0.296  -0.568  0.00  0.00    -0.500 N 
ATOM      9  C   LIG    1        1.938  -0.268  -1.910  0.00  0.00    +0.130 A 
ATOM     10  C   LIG    1        1.038  -1.182  -2.438  0.00  0.00    +0.030 A 
ATOM     11  C   LIG    1        0.723  -1.139  -3.782  0.00  0.00    +0.050 A 
ATOM     12  C   LIG    1        1.296  -0.189  -4.612  0.00  0.00    +0.000 A 
ATOM     13  C   LIG    1        2.191   0.731  -4.104  0.00  0.00    +0.080 A 
ATOM     14  C   LIG    1        2.515   0.699  -2.751  0.00  0.00    -0.170 A 
ATOM     15  C   LIG    1        3.462   1.666  -2.162  0.00  0.00    +0.570 C 
ATOM     16  N   LIG    1        3.454   1.801  -0.814  0.00  0.00    -0.730 N 
ATOM     17  H   LIG    1        4.084   2.397  -0.380  0.00  0.00    +0.410 HD
ATOM     18  O   LIG    1        4.218   2.315  -2.858  0.00  0.00    -0.530 OA
ATOM     19  C   LIG    1        2.489   1.044  -0.016  0.00  0.00    +0.480 C 
ENDBRANCH   1  19
BRANCH   4  20
ATOM     20  O   LIG    1       -2.428   3.798   0.046  0.00  0.00    -0.320 OA
BRANCH  20  21
ATOM     21  C   LIG    1       -3.614   3.002   0.052  0.00  0.00    +0.600 C 
ATOM     22  F   LIG    1       -3.623   2.188   1.190  0.00  0.00    -0.200 F 
ATOM     23  F   LIG    1       -3.645   2.201  -1.094  0.00  0.00    -0.200 F 
ENDBRANCH  20  21
ENDBRANCH   4  20
BRANCH   6  24
ATOM     24  O   LIG    1        2.327   3.863   0.001  0.00  0.00    -0.310 OA
BRANCH  24  25
ATOM     25  C   LIG    1        2.235   5.289   0.010  0.00  0.00    +0.590 C 
ATOM     26  F   LIG    1        1.558   5.706   1.161  0.00  0.00    -0.200 F 
ATOM     27  F   LIG    1        1.536   5.719  -1.123  0.00  0.00    -0.190 F 
ENDBRANCH  24  25
ENDBRANCH   6  24
TORSDOF 5
