REMARK  Name = ZINCb80000003VPF.0
REMARK                            x       y       z     vdW  Elec       q    Type
REMARK                         _______ _______ _______ _____ _____    ______ ____
ROOT
ATOM      1  C   LIG    1       -0.727   3.357   0.027  0.00  0.00    +0.220 C 
ATOM      2  N   LIG    1       -1.143   1.944   0.018  0.00  0.00    -0.720 N 
ATOM      3  H   LIG    1       -2.052   1.607   0.019  0.00  0.00    +0.440 HD
ATOM      4  C   LIG    1       -0.014   1.211   0.009  0.00  0.00    +0.700 C 
ATOM      5  N   LIG    1        1.087   1.970   0.002  0.00  0.00    -0.680 N 
ATOM      6  H   LIG    1        1.991   1.618  -0.008  0.00  0.00    +0.430 HD
ATOM      7  O   LIG    1        0.002  -0.004   0.002  0.00  0.00    -0.540 OA
ATOM      8  C   LIG    1        0.787   3.284   0.012  0.00  0.00    +0.530 C 
ATOM      9  O   LIG    1        1.565   4.213   0.009  0.00  0.00    -0.460 OA
ENDROOT
BRANCH   1  10
ATOM     10  C   LIG    1       -1.244   4.076  -1.221  0.00  0.00    +0.050 C 
BRANCH  10  12
ATOM     11  C   LIG    1       -3.094   5.175   0.049  0.00  0.00    +0.020 C 
ATOM     12  C   LIG    1       -2.761   4.247  -1.120  0.00  0.00    -0.020 C 
ATOM     13  C   LIG    1       -3.293   4.853  -2.420  0.00  0.00    +0.030 C 
ENDBRANCH  10  12
ENDBRANCH   1  10
TORSDOF 2
