REMARK  Name = ZINCpk00001AZiES.1
REMARK                            x       y       z     vdW  Elec       q    Type
REMARK                         _______ _______ _______ _____ _____    ______ ____
ROOT
ATOM      1  C   LIG    1       -0.184   1.783   1.507  0.00  0.00    +0.080 C 
ATOM      2  C   LIG    1        0.420   1.267   0.198  0.00  0.00    +0.030 C 
ATOM      3  C   LIG    1       -0.487   1.665  -0.970  0.00  0.00    +0.280 C 
ATOM      4  N   LIG    1       -0.695   3.119  -0.934  0.00  0.00    -0.600 N 
ATOM      5  C   LIG    1       -1.188   3.731   0.307  0.00  0.00    +0.270 C 
ATOM      6  C   LIG    1       -0.439   3.876  -2.019  0.00  0.00    +0.530 C 
ATOM      7  O   LIG    1        0.025   3.368  -3.017  0.00  0.00    -0.540 OA
ATOM      8  C   LIG    1       -0.273   3.310   1.462  0.00  0.00    +0.020 C 
ENDROOT
BRANCH   6   9
ATOM      9  C   LIG    1       -0.728   5.355  -1.991  0.00  0.00    -0.010 C 
ATOM     10  C   LIG    1       -2.241   5.578  -1.903  0.00  0.00    +0.050 C 
ATOM     11  C   LIG    1       -2.529   7.081  -1.955  0.00  0.00    +0.080 C 
ATOM     12  C   LIG    1       -1.929   7.667  -3.235  0.00  0.00    +0.080 C 
ATOM     13  N   LIG    1       -0.479   7.444  -3.247  0.00  0.00    -0.350 N 
ATOM     14  C   LIG    1        0.116   8.037  -2.041  0.00  0.00    +0.320 C 
ATOM     15  H   LIG    1       -0.079   7.878  -4.066  0.00  0.00    +0.430 HD
ATOM     16  C   LIG    1       -0.196   6.004  -3.270  0.00  0.00    +0.270 C 
BRANCH  12  17
ATOM     17  C   LIG    1       -2.211   9.146  -3.290  0.00  0.00    +0.490 C 
ATOM     18  O   LIG    1       -3.362   9.548  -3.301  0.00  0.00    -0.640 OA
ATOM     19  O   LIG    1       -1.287   9.941  -3.324  0.00  0.00    -0.670 OA
ENDBRANCH  12  17
ENDBRANCH   6   9
BRANCH   1  22
ATOM     20  N   LIG    1        1.378   0.450   4.520  0.00  0.00    -0.370 N 
ATOM     21  C   LIG    1        0.309   0.596   3.709  0.00  0.00    +0.230 A 
ATOM     22  C   LIG    1        0.689   1.365   2.662  0.00  0.00    -0.240 A 
ATOM     23  C   LIG    1        2.033   1.707   2.844  0.00  0.00    +0.230 A 
ATOM     24  N   LIG    1        2.447   1.159   3.958  0.00  0.00    -0.290 NA
BRANCH  20  26
ATOM     25  C   LIG    1        2.545  -1.338   5.713  0.00  0.00    +0.040 C 
ATOM     26  C   LIG    1        1.412  -0.311   5.771  0.00  0.00    +0.320 C 
ENDBRANCH  20  26
ENDBRANCH   1  22
TORSDOF 4
