REMARK  Name = ZINCpk00001AZiES.0
REMARK                            x       y       z     vdW  Elec       q    Type
REMARK                         _______ _______ _______ _____ _____    ______ ____
ROOT
ATOM      1  C   LIG    1        1.520   0.614   0.282  0.00  0.00    +0.080 C 
ATOM      2  C   LIG    1        1.753  -0.277   1.504  0.00  0.00    +0.030 C 
ATOM      3  C   LIG    1        1.155  -1.663   1.242  0.00  0.00    +0.280 C 
ATOM      4  N   LIG    1        1.718  -2.192  -0.008  0.00  0.00    -0.600 N 
ATOM      5  C   LIG    1        1.629  -1.375  -1.225  0.00  0.00    +0.270 C 
ATOM      6  C   LIG    1        2.305  -3.405  -0.037  0.00  0.00    +0.530 C 
ATOM      7  O   LIG    1        2.444  -4.036   0.989  0.00  0.00    -0.530 OA
ATOM      8  C   LIG    1        2.221   0.008  -0.935  0.00  0.00    +0.020 C 
ENDROOT
BRANCH   6   9
ATOM      9  C   LIG    1        2.790  -3.977  -1.345  0.00  0.00    -0.020 C 
ATOM     10  C   LIG    1        1.617  -4.625  -2.085  0.00  0.00    +0.060 C 
ATOM     11  C   LIG    1        2.133  -5.270  -3.374  0.00  0.00    +0.070 C 
ATOM     12  C   LIG    1        3.230  -6.280  -3.029  0.00  0.00    +0.080 C 
ATOM     13  N   LIG    1        4.334  -5.595  -2.346  0.00  0.00    -0.360 N 
ATOM     14  C   LIG    1        5.417  -6.553  -2.086  0.00  0.00    +0.310 C 
ATOM     15  H   LIG    1        4.680  -4.850  -2.933  0.00  0.00    +0.420 HD
ATOM     16  C   LIG    1        3.862  -5.034  -1.074  0.00  0.00    +0.270 C 
BRANCH  12  17
ATOM     17  C   LIG    1        3.741  -6.918  -4.294  0.00  0.00    +0.500 C 
ATOM     18  O   LIG    1        4.864  -6.663  -4.695  0.00  0.00    -0.670 OA
ATOM     19  O   LIG    1        3.032  -7.689  -4.918  0.00  0.00    -0.630 OA
ENDBRANCH  12  17
ENDBRANCH   6   9
BRANCH   1  22
ATOM     20  N   LIG    1        2.234   4.148   0.832  0.00  0.00    -0.370 N 
ATOM     21  C   LIG    1        1.376   3.146   0.545  0.00  0.00    +0.230 A 
ATOM     22  C   LIG    1        2.077   1.989   0.550  0.00  0.00    -0.240 A 
ATOM     23  C   LIG    1        3.410   2.294   0.841  0.00  0.00    +0.230 A 
ATOM     24  N   LIG    1        3.506   3.588   1.011  0.00  0.00    -0.290 NA
BRANCH  20  26
ATOM     25  C   LIG    1        2.348   6.105   2.294  0.00  0.00    +0.040 C 
ATOM     26  C   LIG    1        1.897   5.569   0.934  0.00  0.00    +0.320 C 
ENDBRANCH  20  26
ENDBRANCH   1  22
TORSDOF 4
