REMARK  Name = ZINCkj000005jVIj.1
REMARK                            x       y       z     vdW  Elec       q    Type
REMARK                         _______ _______ _______ _____ _____    ______ ____
ROOT
ATOM      1  S   LIG    1       -2.710   4.967  -0.195  0.00  0.00    +2.780 S 
ATOM      2  O   LIG    1       -2.199   5.502  -1.409  0.00  0.00    -0.950 OA
ATOM      3  O   LIG    1       -3.024   5.768   0.935  0.00  0.00    -0.960 OA
ENDROOT
BRANCH   1  12
ATOM      4  C   LIG    1       -1.062   3.580  -2.057  0.00  0.00    +0.090 C 
ATOM      5  C   LIG    1       -0.845   3.035  -0.643  0.00  0.00    +0.230 C 
ATOM      6  C   LIG    1        0.640   3.121  -0.277  0.00  0.00    +0.270 C 
ATOM      7  N   LIG    1        0.821   2.721   1.124  0.00  0.00    -0.500 N 
ATOM      8  C   LIG    1        0.142   3.678   2.007  0.00  0.00    +0.270 C 
ATOM      9  C   LIG    1       -1.368   3.622   1.754  0.00  0.00    +0.330 C 
ATOM     10  H   LIG    1        0.431   1.802   1.264  0.00  0.00    +0.430 HD
ATOM     11  H   LIG    1        1.806   2.704   1.343  0.00  0.00    +0.440 HD
ATOM     12  N   LIG    1       -1.609   3.843   0.320  0.00  0.00    -1.020 NA
ENDBRANCH   1  12
BRANCH   1  13
ATOM     13  N   LIG    1       -4.096   4.152  -0.591  0.00  0.00    -1.000 NA
ATOM     14  C   LIG    1       -4.345   3.761  -1.980  0.00  0.00    +0.320 C 
BRANCH  13  15
ATOM     15  C   LIG    1       -5.073   3.821   0.450  0.00  0.00    +0.360 C 
BRANCH  15  16
ATOM     16  C   LIG    1       -6.139   4.886   0.494  0.00  0.00    -0.120 A 
ATOM     17  C   LIG    1       -5.955   6.014   1.272  0.00  0.00    +0.060 A 
ATOM     18  C   LIG    1       -6.930   6.994   1.309  0.00  0.00    +0.030 A 
ATOM     19  C   LIG    1       -8.093   6.840   0.577  0.00  0.00    -0.020 A 
ATOM     20  C   LIG    1       -8.279   5.708  -0.197  0.00  0.00    +0.030 A 
ATOM     21 CL   LIG    1       -9.320   8.067   0.628  0.00  0.00    -0.060 Cl
ATOM     22  C   LIG    1       -7.301   4.732  -0.237  0.00  0.00    +0.040 A 
ENDBRANCH  15  16
ENDBRANCH  13  15
ENDBRANCH   1  13
TORSDOF 4
