REMARK  Name = ZINCtV00001bB3n1.0
REMARK                            x       y       z     vdW  Elec       q    Type
REMARK                         _______ _______ _______ _____ _____    ______ ____
ROOT
ATOM      1  N   LIG    1       -4.954  -3.071   0.009  0.00  0.00    -0.490 N 
ATOM      2  C   LIG    1       -5.714  -3.388  -1.101  0.00  0.00    +0.050 A 
ATOM      3  C   LIG    1       -5.506  -3.288  -2.469  0.00  0.00    +0.010 A 
ATOM      4  C   LIG    1       -6.490  -3.704  -3.343  0.00  0.00    +0.030 A 
ATOM      5  C   LIG    1       -7.685  -4.220  -2.862  0.00  0.00    +0.000 A 
ATOM      6  C   LIG    1       -7.909  -4.325  -1.519  0.00  0.00    +0.070 A 
ATOM      7  C   LIG    1       -6.926  -3.911  -0.614  0.00  0.00    +0.050 A 
ATOM      8  N   LIG    1       -6.856  -3.892   0.739  0.00  0.00    -0.480 NA
ATOM      9  C   LIG    1       -5.696  -3.403   1.115  0.00  0.00    +0.320 A 
ENDROOT
BRANCH   9  10
ATOM     10  C   LIG    1       -5.261  -3.235   2.505  0.00  0.00    +0.020 C 
ATOM     11  C   LIG    1       -6.075  -3.597   3.514  0.00  0.00    +0.100 C 
BRANCH  11  12
ATOM     12  C   LIG    1       -5.638  -3.428   4.910  0.00  0.00    -0.060 A 
ATOM     13  C   LIG    1       -4.376  -2.897   5.191  0.00  0.00    +0.030 A 
ATOM     14  C   LIG    1       -3.975  -2.737   6.501  0.00  0.00    +0.030 A 
ATOM     15  C   LIG    1       -4.816  -3.111   7.536  0.00  0.00    -0.030 A 
ATOM     16  C   LIG    1       -6.066  -3.642   7.265  0.00  0.00    +0.030 A 
ATOM     17 CL   LIG    1       -4.300  -2.913   9.182  0.00  0.00    -0.060 Cl
ATOM     18  C   LIG    1       -6.482  -3.803   5.960  0.00  0.00    +0.060 A 
ENDBRANCH  11  12
ENDBRANCH   9  10
BRANCH   1  19
ATOM     19  C   LIG    1       -3.607  -2.495   0.006  0.00  0.00    +0.320 C 
BRANCH  19  20
ATOM     20  C   LIG    1       -3.706  -0.968   0.014  0.00  0.00    +0.020 C 
BRANCH  20  21
ATOM     21  C   LIG    1       -2.299  -0.366   0.011  0.00  0.00    +0.200 C 
BRANCH  21  22
ATOM     22  O   LIG    1       -2.391   1.060   0.019  0.00  0.00    -0.310 OA
BRANCH  22  29
ATOM     23  C   LIG    1       -2.551   3.881   0.045  0.00  0.00    +0.100 C 
ATOM     24  C   LIG    1       -1.238   3.141   0.029  0.00  0.00    -0.120 A 
ATOM     25  C   LIG    1       -0.049   3.844   0.023  0.00  0.00    +0.050 A 
ATOM     26  C   LIG    1        1.156   3.166   0.008  0.00  0.00    -0.030 A 
ATOM     27  C   LIG    1        1.174   1.783   0.000  0.00  0.00    +0.040 A 
ATOM     28  C   LIG    1       -0.013   1.076   0.008  0.00  0.00    -0.080 A 
ATOM     29  C   LIG    1       -1.223   1.754   0.017  0.00  0.00    +0.130 A 
ENDBRANCH  22  29
ENDBRANCH  21  22
ENDBRANCH  20  21
ENDBRANCH  19  20
ENDBRANCH   1  19
TORSDOF 7
