REMARK  Name = ZINCpk000000oyOG.0
REMARK                            x       y       z     vdW  Elec       q    Type
REMARK                         _______ _______ _______ _____ _____    ______ ____
ROOT
ATOM      1  N   LIG    1        6.920   2.489  -1.026  0.00  0.00    -0.490 NA
ENDROOT
BRANCH   1   2
ATOM      2  C   LIG    1        5.840   2.631  -0.040  0.00  0.00    +0.190 C 
ATOM      3  C   LIG    1        5.199   1.257   0.262  0.00  0.00    +0.020 C 
ATOM      4  C   LIG    1        4.891   1.379   1.771  0.00  0.00    +0.270 C 
ATOM      5  N   LIG    1        5.849   2.363   2.288  0.00  0.00    -0.560 N 
ATOM      6  C   LIG    1        6.389   3.088   1.294  0.00  0.00    +0.520 C 
ATOM      7  O   LIG    1        7.200   3.977   1.444  0.00  0.00    -0.480 OA
BRANCH   5   8
ATOM      8  C   LIG    1        6.156   2.529   3.643  0.00  0.00    +0.160 A 
ATOM      9  C   LIG    1        7.168   3.400   4.026  0.00  0.00    -0.010 A 
ATOM     10  C   LIG    1        7.469   3.561   5.364  0.00  0.00    +0.040 A 
ATOM     11  C   LIG    1        6.765   2.856   6.322  0.00  0.00    -0.020 A 
ATOM     12  C   LIG    1        5.756   1.988   5.945  0.00  0.00    +0.040 A 
ATOM     13  C   LIG    1        5.450   1.822   4.608  0.00  0.00    -0.040 A 
ENDBRANCH   5   8
ENDBRANCH   1   2
BRANCH   1  15
ATOM     14  C   LIG    1        5.665   3.411  -2.916  0.00  0.00    +0.030 C 
ATOM     15  C   LIG    1        6.380   2.179  -2.357  0.00  0.00    +0.180 C 
ENDBRANCH   1  15
BRANCH   1  16
ATOM     16  C   LIG    1        7.890   1.471  -0.601  0.00  0.00    +0.200 C 
BRANCH  16  17
ATOM     17  C   LIG    1        9.154   1.613  -1.409  0.00  0.00    +0.520 C 
ATOM     18  N   LIG    1       10.191   0.780  -1.190  0.00  0.00    -0.730 N 
ATOM     19  H   LIG    1       10.123   0.088  -0.514  0.00  0.00    +0.400 HD
ATOM     20  O   LIG    1        9.239   2.478  -2.255  0.00  0.00    -0.510 OA
BRANCH  18  21
ATOM     21  C   LIG    1       11.420   0.918  -1.976  0.00  0.00    +0.240 C 
ATOM     22  C   LIG    1       11.275   0.150  -3.293  0.00  0.00    -0.020 C 
ATOM     23  C   LIG    1       12.592   0.233  -4.070  0.00  0.00    +0.210 C 
ATOM     24  O   LIG    1       13.653  -0.290  -3.267  0.00  0.00    -0.380 OA
ATOM     25  C   LIG    1       13.864   0.420  -2.045  0.00  0.00    +0.220 C 
ATOM     26  C   LIG    1       12.599   0.343  -1.186  0.00  0.00    +0.000 C 
ENDBRANCH  18  21
ENDBRANCH  16  17
ENDBRANCH   1  16
TORSDOF 6
