REMARK  Name = ZINCpk00000ebeot.0
REMARK                            x       y       z     vdW  Elec       q    Type
REMARK                         _______ _______ _______ _____ _____    ______ ____
ROOT
ATOM      1  C   LIG    1        2.752  -3.998  -0.047  0.00  0.00    +0.470 C 
ATOM      2  O   LIG    1        1.798  -4.739  -0.042  0.00  0.00    -0.500 OA
ENDROOT
BRANCH   1   3
ATOM      3  O   LIG    1        2.569  -2.668  -0.037  0.00  0.00    -0.340 OA
BRANCH   3   4
ATOM      4  C   LIG    1        1.197  -2.192  -0.022  0.00  0.00    +0.330 C 
BRANCH   4   9
ATOM      5  C   LIG    1        1.082   3.513   0.010  0.00  0.00    +0.350 C 
ATOM      6  N   LIG    1        1.129   2.049   0.002  0.00  0.00    -0.560 N 
ATOM      7  C   LIG    1        2.319   1.415  -0.013  0.00  0.00    +0.550 A 
ATOM      8  C   LIG    1        2.353  -0.000  -0.021  0.00  0.00    -0.080 A 
ATOM      9  C   LIG    1        1.189  -0.685  -0.013  0.00  0.00    +0.180 A 
ATOM     10  N   LIG    1        0.002  -0.004   0.002  0.00  0.00    -0.530 N 
ATOM     11  C   LIG    1       -1.261  -0.747   0.010  0.00  0.00    +0.330 C 
ATOM     12  O   LIG    1        3.356   2.054  -0.019  0.00  0.00    -0.510 OA
ATOM     13  C   LIG    1       -0.016   1.341   0.009  0.00  0.00    +0.700 A 
ATOM     14  O   LIG    1       -1.082   1.926   0.018  0.00  0.00    -0.530 OA
ENDBRANCH   4   9
ENDBRANCH   3   4
ENDBRANCH   1   3
BRANCH   1  15
ATOM     15  C   LIG    1        4.147  -4.566  -0.063  0.00  0.00    +0.130 C 
BRANCH  15  16
ATOM     16  C   LIG    1        4.076  -6.095  -0.071  0.00  0.00    +0.060 C 
BRANCH  16  17
ATOM     17  C   LIG    1        5.471  -6.663  -0.087  0.00  0.00    +0.400 C 
ATOM     18  O   LIG    1        6.429  -5.919  -0.092  0.00  0.00    -0.440 OA
BRANCH  17  19
ATOM     19  C   LIG    1        5.672  -8.120  -0.098  0.00  0.00    -0.170 A 
ATOM     20  C   LIG    1        4.570  -8.981  -0.086  0.00  0.00    +0.080 A 
ATOM     21  C   LIG    1        4.766 -10.345  -0.100  0.00  0.00    +0.020 A 
ATOM     22  C   LIG    1        6.050 -10.864  -0.115  0.00  0.00    -0.000 A 
ATOM     23  C   LIG    1        7.147 -10.017  -0.122  0.00  0.00    +0.020 A 
ATOM     24 CL   LIG    1        6.287 -12.584  -0.126  0.00  0.00    -0.060 Cl
ATOM     25  C   LIG    1        6.966  -8.651  -0.113  0.00  0.00    +0.100 A 
ENDBRANCH  17  19
ENDBRANCH  16  17
ENDBRANCH  15  16
ENDBRANCH   1  15
TORSDOF 7
