REMARK  Name = ZINCrH000004sb6B.0
REMARK                            x       y       z     vdW  Elec       q    Type
REMARK                         _______ _______ _______ _____ _____    ______ ____
ROOT
ATOM      1  C   LIG    1        2.451   2.569   1.874  0.00  0.00    +0.160 A 
ATOM      2  C   LIG    1        2.079   2.695   0.538  0.00  0.00    +0.080 A 
ATOM      3  C   LIG    1        1.346   3.800   0.126  0.00  0.00    -0.020 A 
ATOM      4  C   LIG    1        0.992   4.776   1.037  0.00  0.00    +0.020 A 
ATOM      5  C   LIG    1        1.363   4.659   2.363  0.00  0.00    -0.030 A 
ATOM      6  C   LIG    1        2.096   3.559   2.787  0.00  0.00    +0.100 A 
ENDROOT
BRANCH   2   7
ATOM      7  N   LIG    1        2.436   1.706  -0.385  0.00  0.00    -0.470 N 
ATOM      8  C   LIG    1        3.905   1.633  -0.540  0.00  0.00    +0.170 C 
ATOM      9  C   LIG    1        4.186   1.268  -2.010  0.00  0.00    +0.020 C 
ATOM     10  C   LIG    1        2.795   1.173  -2.676  0.00  0.00    +0.040 C 
ATOM     11  C   LIG    1        1.902   2.020  -1.735  0.00  0.00    +0.180 C 
ENDBRANCH   2   7
BRANCH   6  12
ATOM     12  N   LIG    1        2.471   3.441   4.130  0.00  0.00    -0.440 N 
ATOM     13  C   LIG    1        3.124   4.686   4.611  0.00  0.00    +0.190 C 
ATOM     14  C   LIG    1        2.982   4.588   6.150  0.00  0.00    +0.020 C 
ATOM     15  C   LIG    1        1.582   3.957   6.329  0.00  0.00    +0.000 C 
ATOM     16  C   LIG    1        1.288   3.246   4.995  0.00  0.00    +0.140 C 
ENDBRANCH   6  12
BRANCH   1  18
ATOM     17  C   LIG    1        4.134   1.587   3.247  0.00  0.00    +0.510 C 
ATOM     18  N   LIG    1        3.187   1.451   2.298  0.00  0.00    -0.670 N 
ATOM     19  H   LIG    1        3.014   0.580   1.908  0.00  0.00    +0.410 HD
ATOM     20  O   LIG    1        4.390   2.686   3.695  0.00  0.00    -0.460 OA
BRANCH  17  21
ATOM     21  C   LIG    1        4.874   0.376   3.753  0.00  0.00    +0.110 C 
BRANCH  21  28
ATOM     22  C   LIG    1        3.879   0.433   6.499  0.00  0.00    +0.090 C 
ATOM     23  C   LIG    1        5.306   0.805   6.191  0.00  0.00    -0.020 A 
ATOM     24  C   LIG    1        6.176   1.182   7.202  0.00  0.00    -0.050 A 
ATOM     25  C   LIG    1        7.478   1.518   6.881  0.00  0.00    +0.250 A 
ATOM     26  N   LIG    1        7.895   1.482   5.630  0.00  0.00    -0.490 NA
ATOM     27  C   LIG    1        7.097   1.122   4.644  0.00  0.00    +0.270 A 
ATOM     28  C   LIG    1        5.781   0.779   4.888  0.00  0.00    -0.120 A 
ENDBRANCH  21  28
ENDBRANCH  17  21
ENDBRANCH   1  18
TORSDOF 5
