REMARK  Name = ZINCkj000005k724.1
REMARK                            x       y       z     vdW  Elec       q    Type
REMARK                         _______ _______ _______ _____ _____    ______ ____
ROOT
ATOM      1  C   LIG    1        0.358  -0.089   2.770  0.00  0.00    +0.610 C 
ATOM      2  N   LIG    1        0.282  -1.102   3.656  0.00  0.00    -0.750 N 
ATOM      3  H   LIG    1        0.340  -2.020   3.349  0.00  0.00    +0.390 HD
ATOM      4  O   LIG    1        0.285   1.062   3.155  0.00  0.00    -0.520 OA
ENDROOT
BRANCH   1   7
ATOM      5  C   LIG    1        0.566   2.051   0.471  0.00  0.00    +0.170 C 
ATOM      6  C   LIG    1        0.621   0.553   0.318  0.00  0.00    +0.180 A 
ATOM      7  C   LIG    1        0.528  -0.377   1.334  0.00  0.00    -0.320 A 
ATOM      8  C   LIG    1        0.628  -1.655   0.741  0.00  0.00    +0.260 A 
ATOM      9  N   LIG    1        0.770  -1.493  -0.546  0.00  0.00    -0.290 NA
ATOM     10  N   LIG    1        0.763  -0.123  -0.834  0.00  0.00    -0.350 N 
ATOM     11  C   LIG    1        0.892   0.472  -2.166  0.00  0.00    +0.380 C 
ENDBRANCH   1   7
BRANCH   2  12
ATOM     12  C   LIG    1        0.113  -0.816   5.083  0.00  0.00    +0.330 C 
BRANCH  12  13
ATOM     13  C   LIG    1       -0.043  -2.130   5.851  0.00  0.00    +0.300 C 
BRANCH  13  14
ATOM     14  C   LIG    1       -1.314  -2.816   5.420  0.00  0.00    -0.110 A 
ATOM     15  C   LIG    1       -2.480  -2.805   6.090  0.00  0.00    +0.030 A 
ATOM     16  C   LIG    1       -3.397  -3.567   5.329  0.00  0.00    -0.050 A 
ATOM     17  C   LIG    1       -2.733  -4.005   4.244  0.00  0.00    +0.230 A 
ATOM     18  O   LIG    1       -1.472  -3.547   4.304  0.00  0.00    -0.180 OA
ENDBRANCH  13  14
BRANCH  13  19
ATOM     19  N   LIG    1        1.105  -3.002   5.568  0.00  0.00    -0.390 N 
ATOM     20  C   LIG    1        0.966  -4.254   6.324  0.00  0.00    +0.330 C 
ATOM     21  C   LIG    1        2.345  -2.324   5.967  0.00  0.00    +0.330 C 
ATOM     22  H   LIG    1        1.136  -3.207   4.580  0.00  0.00    +0.420 HD
ENDBRANCH  13  19
ENDBRANCH  12  13
ENDBRANCH   2  12
TORSDOF 5
