REMARK  Name = ZINCbu0000000GL9.0
REMARK                            x       y       z     vdW  Elec       q    Type
REMARK                         _______ _______ _______ _____ _____    ______ ____
ROOT
ATOM      1  C   LIG    1        2.490   1.048  -0.016  0.00  0.00    +0.220 C 
ENDROOT
BRANCH   1   2
ATOM      2  C   LIG    1        1.175   1.783   0.000  0.00  0.00    -0.150 A 
ATOM      3  C   LIG    1        1.156   3.165   0.007  0.00  0.00    +0.020 A 
ATOM      4  C   LIG    1       -0.050   3.841   0.022  0.00  0.00    +0.060 A 
ATOM      5  C   LIG    1       -1.238   3.134   0.029  0.00  0.00    +0.090 A 
ATOM      6  C   LIG    1       -1.220   1.751   0.017  0.00  0.00    -0.080 A 
ATOM      7 BR   LIG    1       -2.844   0.784   0.021  0.00  0.00    -0.010 Br
ATOM      8  C   LIG    1       -0.013   1.076   0.008  0.00  0.00    +0.090 A 
ENDBRANCH   1   2
BRANCH   1   9
ATOM      9  N   LIG    1        3.427   1.739  -0.912  0.00  0.00    -0.630 N 
ATOM     10  H   LIG    1        4.308   1.247  -0.923  0.00  0.00    +0.440 HD
ATOM     11  H   LIG    1        3.573   2.682  -0.583  0.00  0.00    +0.430 HD
ATOM     12  H   LIG    1        3.044   1.764  -1.845  0.00  0.00    +0.440 HD
ENDBRANCH   1   9
BRANCH   1  13
ATOM     13  C   LIG    1        3.071   1.010   1.399  0.00  0.00    +0.280 C 
ATOM     14  F   LIG    1        4.292   0.327   1.384  0.00  0.00    -0.200 F 
ENDBRANCH   1  13
TORSDOF 3
