REMARK  Name = ZINCrH000004scnj.0
REMARK                            x       y       z     vdW  Elec       q    Type
REMARK                         _______ _______ _______ _____ _____    ______ ____
ROOT
ATOM      1  N   LIG    1       -0.434   6.672   0.046  0.00  0.00    -0.640 N 
ATOM      2  H   LIG    1       -0.054   7.564   0.048  0.00  0.00    +0.420 HD
ATOM      3  C   LIG    1       -1.772   6.510   0.059  0.00  0.00    +0.510 C 
ATOM      4  O   LIG    1       -2.247   5.394   0.056  0.00  0.00    -0.460 OA
ENDROOT
BRANCH   1  10
ATOM      5  C   LIG    1        2.677   6.811   0.015  0.00  0.00    +0.130 C 
ATOM      6  C   LIG    1        1.812   5.577   0.016  0.00  0.00    -0.240 A 
ATOM      7  C   LIG    1        2.251   4.298   0.010  0.00  0.00    +0.250 A 
ATOM      8  N   LIG    1        1.161   3.487   0.010  0.00  0.00    -0.320 N 
ATOM      9  N   LIG    1        0.020   4.298   0.026  0.00  0.00    -0.260 NA
ATOM     10  C   LIG    1        0.407   5.552   0.030  0.00  0.00    +0.310 A 
BRANCH   8  11
ATOM     11  C   LIG    1        1.177   2.086   0.002  0.00  0.00    +0.170 A 
ATOM     12  C   LIG    1       -0.017   1.377   0.010  0.00  0.00    +0.020 A 
ATOM     13  C   LIG    1        0.002  -0.004   0.002  0.00  0.00    +0.040 A 
ATOM     14  C   LIG    1        1.208  -0.680  -0.013  0.00  0.00    +0.000 A 
ATOM     15  C   LIG    1        2.399   0.023  -0.021  0.00  0.00    +0.040 A 
ATOM     16  C   LIG    1        2.386   1.404  -0.013  0.00  0.00    -0.010 A 
ENDBRANCH   8  11
ENDBRANCH   1  10
BRANCH   3  17
ATOM     17  C   LIG    1       -2.677   7.715   0.075  0.00  0.00    +0.130 C 
ATOM     18  C   LIG    1       -2.435   8.552   1.349  0.00  0.00    +0.040 C 
ATOM     19  C   LIG    1       -3.830   9.061   1.766  0.00  0.00    +0.040 C 
ATOM     20  C   LIG    1       -4.798   8.487   0.709  0.00  0.00    +0.170 C 
ATOM     21  N   LIG    1       -4.099   7.293   0.169  0.00  0.00    -0.480 NA
BRANCH  21  22
ATOM     22  C   LIG    1       -4.627   6.926  -1.151  0.00  0.00    +0.230 C 
BRANCH  22  23
ATOM     23  C   LIG    1       -5.977   6.276  -0.989  0.00  0.00    -0.080 A 
ATOM     24  C   LIG    1       -6.070   4.906  -0.833  0.00  0.00    +0.030 A 
ATOM     25  C   LIG    1       -7.309   4.311  -0.680  0.00  0.00    +0.000 A 
ATOM     26  C   LIG    1       -8.454   5.085  -0.692  0.00  0.00    +0.000 A 
ATOM     27  C   LIG    1       -8.361   6.454  -0.854  0.00  0.00    +0.000 A 
ATOM     28  C   LIG    1       -7.122   7.050  -1.002  0.00  0.00    +0.010 A 
ENDBRANCH  22  23
ENDBRANCH  21  22
ENDBRANCH   3  17
TORSDOF 5
