REMARK  Name = ZINCvU00000009qd.0
REMARK                            x       y       z     vdW  Elec       q    Type
REMARK                         _______ _______ _______ _____ _____    ______ ____
ROOT
ATOM      1  C   LIG    1        1.714   2.124  -0.039  0.00  0.00    +0.370 A 
ATOM      2  N   LIG    1        2.540   1.107  -0.054  0.00  0.00    -0.540 NA
ATOM      3  C   LIG    1        3.882   1.286  -0.075  0.00  0.00    +0.170 A 
ATOM      4  C   LIG    1        4.763   0.201  -0.092  0.00  0.00    +0.020 A 
ATOM      5  C   LIG    1        6.121   0.426  -0.114  0.00  0.00    +0.060 A 
ATOM      6  C   LIG    1        6.628   1.719  -0.120  0.00  0.00    -0.010 A 
ATOM      7  C   LIG    1        5.780   2.805  -0.104  0.00  0.00    +0.100 A 
ATOM      8  C   LIG    1        4.402   2.600  -0.082  0.00  0.00    -0.200 A 
ATOM      9  C   LIG    1        3.452   3.721  -0.065  0.00  0.00    +0.560 A 
ATOM     10  O   LIG    1        3.839   4.876  -0.070  0.00  0.00    -0.510 OA
ATOM     11  N   LIG    1        2.132   3.424  -0.049  0.00  0.00    -0.520 N 
ENDROOT
BRANCH   1  12
ATOM     12  S   LIG    1       -0.018   1.799  -0.011  0.00  0.00    +0.110 S 
BRANCH  12  14
ATOM     13  C   LIG    1        0.597  -0.512  -1.333  0.00  0.00    +0.090 C 
ATOM     14  C   LIG    1        0.002  -0.011  -0.015  0.00  0.00    +0.010 C 
BRANCH  14  15
ATOM     15  C   LIG    1       -1.405  -0.529   0.131  0.00  0.00    +0.540 C 
ATOM     16  N   LIG    1       -1.622  -1.754   0.648  0.00  0.00    -0.660 N 
ATOM     17  H   LIG    1       -0.872  -2.328   0.866  0.00  0.00    +0.420 HD
ATOM     18  O   LIG    1       -2.343   0.157  -0.218  0.00  0.00    -0.500 OA
BRANCH  16  19
ATOM     19  C   LIG    1       -2.931  -2.198   0.871  0.00  0.00    +0.170 A 
ATOM     20  C   LIG    1       -3.949  -1.826   0.003  0.00  0.00    +0.060 A 
ATOM     21  C   LIG    1       -5.240  -2.267   0.225  0.00  0.00    -0.010 A 
ATOM     22  C   LIG    1       -5.519  -3.078   1.311  0.00  0.00    +0.040 A 
ATOM     23  C   LIG    1       -4.507  -3.450   2.177  0.00  0.00    +0.070 A 
ATOM     24 CL   LIG    1       -6.514  -1.802  -0.859  0.00  0.00    -0.050 Cl
ATOM     25  C   LIG    1       -3.213  -3.018   1.957  0.00  0.00    -0.060 A 
ATOM     26 CL   LIG    1       -1.942  -3.492   3.041  0.00  0.00    -0.050 Cl
ENDBRANCH  16  19
ENDBRANCH  14  15
ENDBRANCH  12  14
ENDBRANCH   1  12
BRANCH  11  27
ATOM     27  C   LIG    1        1.144   4.506  -0.037  0.00  0.00    +0.310 C 
BRANCH  27  28
ATOM     28  C   LIG    1        0.822   4.886   1.410  0.00  0.00    +0.140 C 
ATOM     29  C   LIG    1       -0.275   5.980   1.447  0.00  0.00    +0.030 C 
ATOM     30  C   LIG    1       -0.880   5.743   2.857  0.00  0.00    +0.020 C 
ATOM     31  C   LIG    1       -0.757   4.212   3.014  0.00  0.00    +0.190 C 
ATOM     32  O   LIG    1        0.256   3.764   2.106  0.00  0.00    -0.370 OA
ENDBRANCH  27  28
ENDBRANCH  11  27
TORSDOF 6
