REMARK  Name = ZINCkj00000dDM2e.1
REMARK                            x       y       z     vdW  Elec       q    Type
REMARK                         _______ _______ _______ _____ _____    ______ ____
ROOT
ATOM      1  C   LIG    1        0.905  -2.202  -0.060  0.00  0.00    +0.180 C 
ATOM      2  C   LIG    1        2.146  -3.096  -0.101  0.00  0.00    +0.090 C 
ENDROOT
BRANCH   1   6
ATOM      3  C   LIG    1       -3.192  -0.940  -2.430  0.00  0.00    +0.110 C 
ATOM      4  C   LIG    1       -1.950  -1.833  -2.469  0.00  0.00    +0.150 C 
ATOM      5  C   LIG    1       -1.087  -1.562  -1.234  0.00  0.00    +0.230 C 
ATOM      6  N   LIG    1        0.075  -2.460  -1.244  0.00  0.00    -0.390 N 
ATOM      7  C   LIG    1       -0.385  -3.856  -1.225  0.00  0.00    +0.240 C 
ATOM      8  C   LIG    1       -1.249  -4.122  -2.459  0.00  0.00    +0.160 C 
ATOM      9  C   LIG    1       -1.780  -5.557  -2.411  0.00  0.00    +0.110 C 
ATOM     10  H   LIG    1        0.619  -2.297  -2.078  0.00  0.00    +0.410 HD
ATOM     11  O   LIG    1       -2.348  -3.207  -2.473  0.00  0.00    -0.350 OA
ENDBRANCH   1   6
BRANCH   1  12
ATOM     12  C   LIG    1        1.334  -0.733  -0.049  0.00  0.00    +0.320 C 
BRANCH  12  13
ATOM     13  N   LIG    1        1.991  -0.407  -1.317  0.00  0.00    -0.750 N 
ATOM     14  H   LIG    1        2.161  -1.105  -1.969  0.00  0.00    +0.390 HD
ATOM     15  C   LIG    1        2.358   0.863  -1.578  0.00  0.00    +0.570 C 
ATOM     16  O   LIG    1        2.144   1.738  -0.762  0.00  0.00    -0.500 OA
BRANCH  15  17
ATOM     17  C   LIG    1        3.027   1.192  -2.858  0.00  0.00    -0.100 A 
ATOM     18  C   LIG    1        3.292   0.200  -3.807  0.00  0.00    -0.020 A 
ATOM     19  C   LIG    1        3.914   0.552  -4.989  0.00  0.00    +0.270 A 
ATOM     20  N   LIG    1        4.264   1.800  -5.224  0.00  0.00    -0.460 NA
ATOM     21  C   LIG    1        4.037   2.766  -4.355  0.00  0.00    +0.280 A 
ATOM     22  C   LIG    1        3.416   2.503  -3.150  0.00  0.00    +0.040 A 
ENDBRANCH  15  17
ENDBRANCH  12  13
ENDBRANCH   1  12
TORSDOF 4
