REMARK  Name = ZINCkj00000dDM2e.2
REMARK                            x       y       z     vdW  Elec       q    Type
REMARK                         _______ _______ _______ _____ _____    ______ ____
ROOT
ATOM      1  C   LIG    1        2.902   3.439  -0.310  0.00  0.00    +0.160 C 
ATOM      2  C   LIG    1        2.891   4.912  -0.725  0.00  0.00    +0.110 C 
ENDROOT
BRANCH   1   6
ATOM      3  C   LIG    1       -0.884   2.071   1.458  0.00  0.00    +0.030 C 
ATOM      4  C   LIG    1       -0.764   3.256   0.496  0.00  0.00    +0.220 C 
ATOM      5  C   LIG    1        0.668   3.779   0.486  0.00  0.00    +0.240 C 
ATOM      6  N   LIG    1        1.526   2.913  -0.331  0.00  0.00    -0.380 N 
ATOM      7  C   LIG    1        1.031   2.917  -1.712  0.00  0.00    +0.240 C 
ATOM      8  C   LIG    1       -0.389   2.364  -1.772  0.00  0.00    +0.220 C 
ATOM      9  C   LIG    1       -0.362   0.836  -1.680  0.00  0.00    +0.030 C 
ATOM     10  H   LIG    1        1.532   1.977   0.037  0.00  0.00    +0.420 HD
ATOM     11  O   LIG    1       -1.235   2.922  -0.791  0.00  0.00    -0.350 OA
ENDBRANCH   1   6
BRANCH   1  12
ATOM     12  C   LIG    1        3.475   3.311   1.102  0.00  0.00    +0.310 C 
BRANCH  12  13
ATOM     13  N   LIG    1        3.386   1.916   1.541  0.00  0.00    -0.750 N 
ATOM     14  H   LIG    1        3.080   1.232   0.924  0.00  0.00    +0.390 HD
ATOM     15  C   LIG    1        3.729   1.582   2.801  0.00  0.00    +0.570 C 
ATOM     16  O   LIG    1        4.112   2.439   3.573  0.00  0.00    -0.500 OA
BRANCH  15  17
ATOM     17  C   LIG    1        3.639   0.172   3.244  0.00  0.00    -0.100 A 
ATOM     18  C   LIG    1        3.195  -0.828   2.373  0.00  0.00    -0.020 A 
ATOM     19  C   LIG    1        3.130  -2.131   2.827  0.00  0.00    +0.270 A 
ATOM     20  N   LIG    1        3.471  -2.435   4.064  0.00  0.00    -0.460 NA
ATOM     21  C   LIG    1        3.890  -1.523   4.918  0.00  0.00    +0.280 A 
ATOM     22  C   LIG    1        3.990  -0.196   4.547  0.00  0.00    +0.040 A 
ENDBRANCH  15  17
ENDBRANCH  12  13
ENDBRANCH   1  12
TORSDOF 4
