REMARK  Name = ZINCnE000001Hxbq.0
REMARK                            x       y       z     vdW  Elec       q    Type
REMARK                         _______ _______ _______ _____ _____    ______ ____
ROOT
ATOM      1  C   LIG    1       -0.630  -0.704  -0.173  0.00  0.00    +0.530 C 
ATOM      2  N   LIG    1        0.274   0.106  -0.758  0.00  0.00    -0.720 N 
ATOM      3  H   LIG    1       -0.012   0.939  -1.165  0.00  0.00    +0.390 HD
ATOM      4  O   LIG    1       -0.288  -1.786   0.256  0.00  0.00    -0.520 OA
ENDROOT
BRANCH   2   5
ATOM      5  C   LIG    1        1.689  -0.272  -0.781  0.00  0.00    +0.240 C 
ATOM      6  C   LIG    1        2.480   0.695  -1.686  0.00  0.00    +0.010 C 
ATOM      7  C   LIG    1        3.837   0.870  -0.961  0.00  0.00    +0.000 C 
ATOM      8  C   LIG    1        3.427   0.894   0.532  0.00  0.00    +0.020 C 
ATOM      9  C   LIG    1        2.291  -0.147   0.630  0.00  0.00    -0.150 C 
ATOM     10  C   LIG    1        2.853  -1.496   1.081  0.00  0.00    +0.010 C 
BRANCH   9  11
ATOM     11  C   LIG    1        1.239   0.326   1.599  0.00  0.00    +0.510 C 
ATOM     12  O   LIG    1        0.847   1.480   1.559  0.00  0.00    -0.700 OA
ATOM     13  O   LIG    1        0.779  -0.446   2.424  0.00  0.00    -0.680 OA
ENDBRANCH   9  11
ENDBRANCH   2   5
BRANCH   1  14
ATOM     14  C   LIG    1       -2.068  -0.268  -0.056  0.00  0.00    -0.020 C 
BRANCH  14  16
ATOM     15  C   LIG    1       -1.531   2.168   0.076  0.00  0.00    +0.020 C 
ATOM     16  C   LIG    1       -2.152   0.984   0.820  0.00  0.00    +0.030 C 
ENDBRANCH  14  16
BRANCH  14  17
ATOM     17  C   LIG    1       -2.891  -1.390   0.580  0.00  0.00    +0.050 C 
BRANCH  17  18
ATOM     18  C   LIG    1       -4.370  -0.998   0.585  0.00  0.00    +0.070 C 
BRANCH  18  19
ATOM     19  C   LIG    1       -5.181  -2.103   1.210  0.00  0.00    -0.070 A 
ATOM     20  C   LIG    1       -5.696  -3.115   0.421  0.00  0.00    +0.000 A 
ATOM     21  C   LIG    1       -6.436  -4.131   0.996  0.00  0.00    +0.000 A 
ATOM     22  C   LIG    1       -6.669  -4.131   2.358  0.00  0.00    -0.010 A 
ATOM     23  C   LIG    1       -6.158  -3.117   3.147  0.00  0.00    +0.000 A 
ATOM     24  C   LIG    1       -5.415  -2.103   2.573  0.00  0.00    +0.000 A 
ENDBRANCH  18  19
ENDBRANCH  17  18
ENDBRANCH  14  17
ENDBRANCH   1  14
TORSDOF 7
