REMARK  Name = ZINCtV000002AGiW.0
REMARK                            x       y       z     vdW  Elec       q    Type
REMARK                         _______ _______ _______ _____ _____    ______ ____
ROOT
ATOM      1  C   LIG    1        1.763   0.019  -0.015  0.00  0.00    +0.280 A 
ATOM      2  N   LIG    1        2.178   1.248  -0.012  0.00  0.00    -0.500 NA
ATOM      3  C   LIG    1        1.251   2.196   0.002  0.00  0.00    +0.130 A 
ATOM      4  C   LIG    1       -0.022   1.758   0.012  0.00  0.00    -0.110 A 
ATOM      5  S   LIG    1        0.002  -0.004   0.002  0.00  0.00    +0.210 S 
ENDROOT
BRANCH   3   6
ATOM      6  C   LIG    1        1.593   3.638   0.006  0.00  0.00    -0.020 A 
ATOM      7  C   LIG    1        0.578   4.596   0.015  0.00  0.00    +0.030 A 
ATOM      8  C   LIG    1        0.896   5.936   0.023  0.00  0.00    +0.020 A 
ATOM      9  C   LIG    1        2.232   6.336   0.013  0.00  0.00    -0.040 A 
ATOM     10  C   LIG    1        3.246   5.379  -0.001  0.00  0.00    +0.020 A 
ATOM     11  C   LIG    1        2.929   4.038  -0.005  0.00  0.00    +0.050 A 
BRANCH   9  12
ATOM     12  C   LIG    1        2.574   7.779   0.016  0.00  0.00    -0.050 A 
ATOM     13  C   LIG    1        3.908   8.181   0.011  0.00  0.00    +0.020 A 
ATOM     14  C   LIG    1        4.220   9.526   0.010  0.00  0.00    +0.000 A 
ATOM     15  C   LIG    1        3.212  10.473   0.024  0.00  0.00    +0.000 A 
ATOM     16  C   LIG    1        1.886  10.079   0.034  0.00  0.00    +0.000 A 
ATOM     17  C   LIG    1        1.562   8.737   0.030  0.00  0.00    +0.020 A 
ENDBRANCH   9  12
ENDBRANCH   3   6
BRANCH   1  19
ATOM     18  C   LIG    1        2.033  -2.335  -0.031  0.00  0.00    +0.550 C 
ATOM     19  N   LIG    1        2.580  -1.103  -0.029  0.00  0.00    -0.620 N 
ATOM     20  H   LIG    1        3.545  -1.001  -0.038  0.00  0.00    +0.420 HD
ATOM     21  O   LIG    1        0.824  -2.463  -0.020  0.00  0.00    -0.460 OA
BRANCH  18  26
ATOM     22  C   LIG    1        5.099  -4.509  -0.075  0.00  0.00    +0.140 A 
ATOM     23  C   LIG    1        4.529  -5.775  -0.077  0.00  0.00    -0.020 A 
ATOM     24  C   LIG    1        3.155  -5.921  -0.063  0.00  0.00    +0.100 A 
ATOM     25  C   LIG    1        2.338  -4.808  -0.048  0.00  0.00    -0.080 A 
ATOM     26  C   LIG    1        2.902  -3.529  -0.046  0.00  0.00    -0.070 A 
ATOM     27 BR   LIG    1        0.458  -5.012  -0.031  0.00  0.00    -0.000 Br
ATOM     28  C   LIG    1        4.290  -3.385  -0.065  0.00  0.00    +0.030 A 
BRANCH  22  30
ATOM     29  C   LIG    1        7.224  -5.574  -0.105  0.00  0.00    +0.250 C 
ATOM     30  O   LIG    1        6.451  -4.373  -0.089  0.00  0.00    -0.310 OA
ENDBRANCH  22  30
ENDBRANCH  18  26
ENDBRANCH   1  19
TORSDOF 5
