REMARK  Name = ZINCpk00000KfKBN.1
REMARK                            x       y       z     vdW  Elec       q    Type
REMARK                         _______ _______ _______ _____ _____    ______ ____
ROOT
ATOM      1  N   LIG    1       -0.067   1.120  -2.437  0.00  0.00    -0.750 N 
ATOM      2  H   LIG    1        0.730   0.573  -2.358  0.00  0.00    +0.400 HD
ATOM      3  C   LIG    1       -0.543   1.446  -3.655  0.00  0.00    +0.700 C 
ATOM      4  N   LIG    1        0.087   1.011  -4.764  0.00  0.00    -0.740 N 
ATOM      5  H   LIG    1        0.884   0.464  -4.685  0.00  0.00    +0.400 HD
ATOM      6  O   LIG    1       -1.542   2.132  -3.753  0.00  0.00    -0.590 OA
ENDROOT
BRANCH   4   7
ATOM      7  C   LIG    1       -0.431   1.366  -6.087  0.00  0.00    +0.250 C 
ATOM      8  C   LIG    1       -1.514   0.364  -6.498  0.00  0.00    +0.030 C 
ATOM      9  C   LIG    1       -2.008   0.703  -7.906  0.00  0.00    +0.220 C 
ATOM     10  N   LIG    1       -0.882   0.647  -8.848  0.00  0.00    -0.460 N 
ATOM     11  C   LIG    1        0.149   1.634  -8.501  0.00  0.00    +0.220 C 
ATOM     12  C   LIG    1        0.708   1.322  -7.111  0.00  0.00    +0.030 C 
BRANCH  10  13
ATOM     13  C   LIG    1       -1.316   0.821 -10.150  0.00  0.00    +0.490 A 
ATOM     14  N   LIG    1       -0.792   1.792 -10.883  0.00  0.00    -0.550 NA
ATOM     15  C   LIG    1       -1.181   1.982 -12.133  0.00  0.00    +0.340 A 
ATOM     16  C   LIG    1       -2.156   1.156 -12.670  0.00  0.00    -0.110 A 
ATOM     17  C   LIG    1       -2.687   0.153 -11.874  0.00  0.00    +0.350 A 
ATOM     18  N   LIG    1       -2.250   0.014 -10.634  0.00  0.00    -0.530 NA
ENDBRANCH  10  13
ENDBRANCH   4   7
BRANCH   1  19
ATOM     19  C   LIG    1       -0.753   1.593  -1.232  0.00  0.00    +0.280 C 
BRANCH  19  20
ATOM     20  C   LIG    1       -0.013   1.086   0.008  0.00  0.00    +0.010 C 
BRANCH  20  21
ATOM     21  C   LIG    1       -0.729   1.579   1.267  0.00  0.00    +0.110 C 
BRANCH  21  24
ATOM     22  C   LIG    1        1.743   2.938   2.620  0.00  0.00    +0.140 C 
ATOM     23  C   LIG    1        1.069   1.668   3.072  0.00  0.00    +0.090 A 
ATOM     24  C   LIG    1        0.000   1.080   2.488  0.00  0.00    -0.240 A 
ATOM     25  C   LIG    1       -0.305  -0.076   3.213  0.00  0.00    +0.240 A 
ATOM     26  N   LIG    1        0.546  -0.176   4.201  0.00  0.00    -0.290 NA
ATOM     27  N   LIG    1        1.422   0.915   4.136  0.00  0.00    -0.480 N 
ATOM     28  H   LIG    1        2.155   1.096   4.744  0.00  0.00    +0.440 HD
ENDBRANCH  21  24
ENDBRANCH  20  21
ENDBRANCH  19  20
ENDBRANCH   1  19
TORSDOF 6
