REMARK  Name = ZINCpk00000KfKBN.0
REMARK                            x       y       z     vdW  Elec       q    Type
REMARK                         _______ _______ _______ _____ _____    ______ ____
ROOT
ATOM      1  N   LIG    1        2.761   6.489   2.823  0.00  0.00    -0.750 N 
ATOM      2  H   LIG    1        2.355   6.005   3.559  0.00  0.00    +0.400 HD
ATOM      3  C   LIG    1        3.503   7.587   3.067  0.00  0.00    +0.700 C 
ATOM      4  N   LIG    1        3.682   8.012   4.333  0.00  0.00    -0.740 N 
ATOM      5  H   LIG    1        3.276   7.528   5.069  0.00  0.00    +0.400 HD
ATOM      6  O   LIG    1        4.013   8.194   2.144  0.00  0.00    -0.590 OA
ENDROOT
BRANCH   4   7
ATOM      7  C   LIG    1        4.489   9.206   4.598  0.00  0.00    +0.250 C 
ATOM      8  C   LIG    1        5.967   8.815   4.685  0.00  0.00    +0.030 C 
ATOM      9  C   LIG    1        6.799  10.054   5.022  0.00  0.00    +0.220 C 
ATOM     10  N   LIG    1        6.346  10.615   6.302  0.00  0.00    -0.460 N 
ATOM     11  C   LIG    1        4.943  11.042   6.228  0.00  0.00    +0.220 C 
ATOM     12  C   LIG    1        4.056   9.831   5.927  0.00  0.00    +0.030 C 
BRANCH  10  13
ATOM     13  C   LIG    1        7.162  11.660   6.701  0.00  0.00    +0.490 A 
ATOM     14  N   LIG    1        6.621  12.844   6.949  0.00  0.00    -0.550 NA
ATOM     15  C   LIG    1        7.372  13.862   7.338  0.00  0.00    +0.340 A 
ATOM     16  C   LIG    1        8.739  13.680   7.474  0.00  0.00    -0.110 A 
ATOM     17  C   LIG    1        9.272  12.430   7.202  0.00  0.00    +0.350 A 
ATOM     18  N   LIG    1        8.465  11.454   6.822  0.00  0.00    -0.530 NA
ENDBRANCH  10  13
ENDBRANCH   4   7
BRANCH   1  19
ATOM     19  C   LIG    1        2.567   6.027   1.446  0.00  0.00    +0.280 C 
BRANCH  19  20
ATOM     20  C   LIG    1        1.692   4.772   1.448  0.00  0.00    +0.010 C 
BRANCH  20  21
ATOM     21  C   LIG    1        1.489   4.290   0.010  0.00  0.00    +0.100 C 
BRANCH  21  28
ATOM     22  C   LIG    1       -1.679   4.228   0.039  0.00  0.00    +0.150 C 
ATOM     23  C   LIG    1       -0.771   3.025   0.025  0.00  0.00    +0.080 A 
ATOM     24  N   LIG    1       -1.155   1.774   0.017  0.00  0.00    -0.300 NA
ATOM     25  N   LIG    1       -0.011   0.966   0.007  0.00  0.00    -0.480 N 
ATOM     26  H   LIG    1        0.002  -0.004   0.002  0.00  0.00    +0.440 HD
ATOM     27  C   LIG    1        1.069   1.774   0.001  0.00  0.00    +0.240 A 
ATOM     28  C   LIG    1        0.627   3.053   0.012  0.00  0.00    -0.240 A 
ENDBRANCH  21  28
ENDBRANCH  20  21
ENDBRANCH  19  20
ENDBRANCH   1  19
TORSDOF 6
