REMARK  Name = ZINCpk00000eaVmx.0
REMARK                            x       y       z     vdW  Elec       q    Type
REMARK                         _______ _______ _______ _____ _____    ______ ____
ROOT
ATOM      1  C   LIG    1        1.924  -2.256  -1.472  0.00  0.00    +0.150 C 
ATOM      2  C   LIG    1        2.306  -3.739  -1.486  0.00  0.00    +0.160 C 
ATOM      3  N   LIG    1        2.528  -4.168  -2.875  0.00  0.00    -0.510 NA
ATOM      4  C   LIG    1        3.587  -3.368  -3.506  0.00  0.00    +0.150 C 
ATOM      5  C   LIG    1        3.192  -1.889  -3.471  0.00  0.00    +0.230 C 
ATOM      6  O   LIG    1        2.951  -1.498  -2.116  0.00  0.00    -0.370 OA
ENDROOT
BRANCH   3   7
ATOM      7  C   LIG    1        2.843  -5.602  -2.938  0.00  0.00    +0.180 C 
ATOM      8  C   LIG    1        4.173  -5.864  -2.229  0.00  0.00    +0.020 C 
BRANCH   7   9
ATOM      9  C   LIG    1        2.949  -6.029  -4.379  0.00  0.00    +0.520 C 
ATOM     10  N   LIG    1        3.232  -7.312  -4.683  0.00  0.00    -0.730 N 
ATOM     11  H   LIG    1        3.368  -7.959  -3.973  0.00  0.00    +0.400 HD
ATOM     12  O   LIG    1        2.779  -5.220  -5.266  0.00  0.00    -0.520 OA
BRANCH  10  13
ATOM     13  C   LIG    1        3.336  -7.728  -6.084  0.00  0.00    +0.390 C 
BRANCH  13  14
ATOM     14  C   LIG    1        3.659  -9.198  -6.149  0.00  0.00    -0.040 A 
ATOM     15  C   LIG    1        2.761 -10.199  -6.192  0.00  0.00    -0.030 A 
ATOM     16  C   LIG    1        3.496 -11.406  -6.246  0.00  0.00    -0.070 A 
ATOM     17  C   LIG    1        4.799 -11.070  -6.232  0.00  0.00    +0.180 A 
ATOM     18  O   LIG    1        4.891  -9.731  -6.179  0.00  0.00    -0.170 OA
ENDBRANCH  13  14
ENDBRANCH  10  13
ENDBRANCH   7   9
ENDBRANCH   3   7
BRANCH   1  19
ATOM     19  C   LIG    1        1.771  -1.782  -0.025  0.00  0.00    +0.350 C 
BRANCH  19  26
ATOM     20  C   LIG    1       -1.203  -0.909   0.009  0.00  0.00    +0.150 C 
ATOM     21  C   LIG    1        0.002  -0.004   0.002  0.00  0.00    +0.080 A 
ATOM     22  C   LIG    1       -0.016   1.349   0.009  0.00  0.00    -0.130 A 
ATOM     23  C   LIG    1        1.308   1.797  -0.001  0.00  0.00    +0.070 A 
ATOM     24  N   LIG    1        2.094   0.751  -0.014  0.00  0.00    -0.280 NA
ATOM     25  C   LIG    1        1.754   3.237   0.003  0.00  0.00    +0.150 C 
ATOM     26  N   LIG    1        1.293  -0.398  -0.012  0.00  0.00    -0.360 N 
ENDBRANCH  19  26
ENDBRANCH   1  19
TORSDOF 6
