REMARK  Name = ZINCqH0000004Bzq.0
REMARK                            x       y       z     vdW  Elec       q    Type
REMARK                         _______ _______ _______ _____ _____    ______ ____
ROOT
ATOM      1  C   LIG    1        0.022  -0.684   1.165  0.00  0.00    +0.520 C 
ATOM      2  N   LIG    1        0.002  -0.004   0.002  0.00  0.00    -0.620 N 
ATOM      3  C   LIG    1       -0.000  -0.730  -1.271  0.00  0.00    +0.290 C 
ATOM      4  O   LIG    1        0.024  -0.083   2.219  0.00  0.00    -0.510 OA
ENDROOT
BRANCH   1   5
ATOM      5  C   LIG    1        0.043  -2.191   1.157  0.00  0.00    +0.070 C 
BRANCH   5   6
ATOM      6  C   LIG    1        0.064  -2.709   2.597  0.00  0.00    +0.070 C 
BRANCH   6   7
ATOM      7  C   LIG    1        0.084  -4.215   2.588  0.00  0.00    +0.400 C 
ATOM      8  O   LIG    1        0.082  -4.816   1.535  0.00  0.00    -0.460 OA
BRANCH   7  12
ATOM      9  C   LIG    1        0.147  -6.356   6.250  0.00  0.00    -0.050 A 
ATOM     10  C   LIG    1        0.146  -7.045   5.050  0.00  0.00    +0.000 A 
ATOM     11  C   LIG    1        0.125  -6.356   3.855  0.00  0.00    +0.070 A 
ATOM     12  C   LIG    1        0.106  -4.958   3.859  0.00  0.00    -0.180 A 
ATOM     13  C   LIG    1        0.114  -4.269   5.076  0.00  0.00    +0.070 A 
ATOM     14  C   LIG    1        0.129  -4.972   6.262  0.00  0.00    +0.000 A 
BRANCH   9  16
ATOM     15  C   LIG    1        1.620  -7.354   7.978  0.00  0.00    +0.030 C 
ATOM     16  C   LIG    1        0.170  -7.116   7.551  0.00  0.00    +0.070 C 
ENDBRANCH   9  16
ENDBRANCH   7  12
ENDBRANCH   6   7
ENDBRANCH   5   6
ENDBRANCH   1   5
BRANCH   2  17
ATOM     17  C   LIG    1       -0.018   1.461   0.010  0.00  0.00    +0.410 C 
BRANCH  17  18
ATOM     18  C   LIG    1        1.396   1.982  -0.001  0.00  0.00    +0.260 A 
ATOM     19  N   LIG    1        2.138   2.147   1.056  0.00  0.00    -0.460 NA
ATOM     20  C   LIG    1        3.352   2.632   0.690  0.00  0.00    +0.040 A 
ATOM     21  C   LIG    1        4.503   2.982   1.399  0.00  0.00    +0.070 A 
ATOM     22  C   LIG    1        5.598   3.454   0.731  0.00  0.00    +0.000 A 
ATOM     23  C   LIG    1        5.580   3.589  -0.650  0.00  0.00    +0.030 A 
ATOM     24  C   LIG    1        4.455   3.248  -1.371  0.00  0.00    +0.010 A 
ATOM     25  C   LIG    1        3.334   2.768  -0.709  0.00  0.00    +0.050 A 
ATOM     26  N   LIG    1        2.085   2.344  -1.117  0.00  0.00    -0.600 N 
ATOM     27  H   LIG    1        1.758   2.312  -2.029  0.00  0.00    +0.420 HD
ENDBRANCH  17  18
ENDBRANCH   2  17
TORSDOF 7
