REMARK  Name = ZINCqH0000006Mx6.0
REMARK                            x       y       z     vdW  Elec       q    Type
REMARK                         _______ _______ _______ _____ _____    ______ ____
ROOT
ATOM      1  N   LIG    1        1.211  -2.671  -1.409  0.00  0.00    -0.510 NA
ATOM      2  C   LIG    1        2.550  -2.292  -1.879  0.00  0.00    +0.200 C 
ENDROOT
BRANCH   1   3
ATOM      3  C   LIG    1        0.953  -4.097  -1.651  0.00  0.00    +0.190 C 
ATOM      4  C   LIG    1        1.794  -4.971  -0.692  0.00  0.00    +0.020 C 
ATOM      5  C   LIG    1        0.822  -6.132  -0.390  0.00  0.00    +0.270 C 
ATOM      6  N   LIG    1       -0.523  -5.582  -0.597  0.00  0.00    -0.580 N 
ATOM      7  C   LIG    1       -0.480  -4.441  -1.307  0.00  0.00    +0.530 C 
ATOM      8  O   LIG    1       -1.448  -3.784  -1.625  0.00  0.00    -0.490 OA
BRANCH   6   9
ATOM      9  C   LIG    1       -1.700  -6.168  -0.115  0.00  0.00    +0.110 A 
ATOM     10  C   LIG    1       -2.386  -7.090  -0.893  0.00  0.00    +0.060 A 
ATOM     11  C   LIG    1       -3.547  -7.668  -0.415  0.00  0.00    +0.020 A 
ATOM     12  C   LIG    1       -4.026  -7.329   0.836  0.00  0.00    +0.060 A 
ATOM     13  C   LIG    1       -3.346  -6.411   1.615  0.00  0.00    -0.010 A 
ATOM     14  C   LIG    1       -2.181  -5.833   1.146  0.00  0.00    +0.110 A 
ATOM     15  F   LIG    1       -1.513  -4.940   1.909  0.00  0.00    -0.130 F 
ENDBRANCH   6   9
ENDBRANCH   1   3
BRANCH   1  16
ATOM     16  C   LIG    1        1.038  -2.339   0.012  0.00  0.00    +0.220 C 
BRANCH  16  19
ATOM     17  C   LIG    1        1.743   1.343   0.470  0.00  0.00    +0.140 A 
ATOM     18  C   LIG    1        1.927  -0.022   0.335  0.00  0.00    -0.050 A 
ATOM     19  C   LIG    1        0.835  -0.853   0.159  0.00  0.00    -0.040 A 
ATOM     20  C   LIG    1       -0.441  -0.325   0.118  0.00  0.00    +0.020 A 
ATOM     21  C   LIG    1       -0.634   1.037   0.253  0.00  0.00    +0.030 A 
ATOM     22  C   LIG    1        0.456   1.877   0.429  0.00  0.00    -0.120 A 
BRANCH  17  24
ATOM     23  C   LIG    1        4.104   1.544   0.676  0.00  0.00    +0.240 C 
ATOM     24  O   LIG    1        2.816   2.162   0.644  0.00  0.00    -0.310 OA
ENDBRANCH  17  24
BRANCH  22  25
ATOM     25  S   LIG    1        0.215   3.614   0.601  0.00  0.00    -0.090 S 
ATOM     26  C   LIG    1       -1.587   3.790   0.480  0.00  0.00    +0.120 C 
ENDBRANCH  22  25
ENDBRANCH  16  19
ENDBRANCH   1  16
TORSDOF 6
