REMARK  Name = ZINCtV000002D0hK.0
REMARK                            x       y       z     vdW  Elec       q    Type
REMARK                         _______ _______ _______ _____ _____    ______ ____
ROOT
ATOM      1  C   LIG    1        1.651   2.009  -2.423  0.00  0.00    +0.200 A 
ATOM      2  N   LIG    1        1.686   1.370  -1.278  0.00  0.00    -0.460 NA
ATOM      3  C   LIG    1        0.826   0.330  -1.312  0.00  0.00    +0.110 A 
ATOM      4  C   LIG    1        0.224   0.324  -2.561  0.00  0.00    +0.070 A 
ATOM      5  N   LIG    1        0.756   1.400  -3.252  0.00  0.00    -0.540 N 
ATOM      6  H   LIG    1        0.536   1.669  -4.158  0.00  0.00    +0.430 HD
ENDROOT
BRANCH   4   7
ATOM      7  C   LIG    1       -0.777  -0.631  -3.052  0.00  0.00    -0.140 A 
ATOM      8  C   LIG    1       -1.916  -0.302  -3.725  0.00  0.00    +0.030 A 
ATOM      9  C   LIG    1       -2.696  -1.382  -4.084  0.00  0.00    +0.000 A 
ATOM     10  C   LIG    1       -2.224  -2.574  -3.712  0.00  0.00    -0.040 A 
ATOM     11  S   LIG    1       -0.700  -2.377  -2.857  0.00  0.00    +0.170 S 
ENDBRANCH   4   7
BRANCH   3  12
ATOM     12  C   LIG    1        0.576  -0.629  -0.220  0.00  0.00    -0.120 A 
ATOM     13  C   LIG    1        1.504  -1.077   0.652  0.00  0.00    +0.030 A 
ATOM     14  C   LIG    1        1.029  -1.973   1.588  0.00  0.00    +0.000 A 
ATOM     15  C   LIG    1       -0.272  -2.259   1.489  0.00  0.00    -0.050 A 
ATOM     16  S   LIG    1       -0.979  -1.362   0.152  0.00  0.00    +0.140 S 
ENDBRANCH   3  12
BRANCH   1  17
ATOM     17  S   LIG    1        2.610   3.431  -2.826  0.00  0.00    +0.060 S 
BRANCH  17  19
ATOM     18  C   LIG    1        2.552   3.983  -0.151  0.00  0.00    +0.090 C 
ATOM     19  C   LIG    1        3.527   3.640  -1.279  0.00  0.00    +0.030 C 
BRANCH  19  20
ATOM     20  C   LIG    1        4.527   4.756  -1.436  0.00  0.00    +0.540 C 
ATOM     21  N   LIG    1        5.632   4.784  -0.664  0.00  0.00    -0.670 N 
ATOM     22  H   LIG    1        5.748   4.128   0.041  0.00  0.00    +0.420 HD
ATOM     23  O   LIG    1        4.338   5.630  -2.256  0.00  0.00    -0.500 OA
BRANCH  21  24
ATOM     24  C   LIG    1        6.614   5.760  -0.881  0.00  0.00    +0.060 A 
ATOM     25  C   LIG    1        7.652   5.519  -1.773  0.00  0.00    +0.140 A 
ATOM     26  C   LIG    1        8.616   6.487  -1.989  0.00  0.00    -0.010 A 
ATOM     27  C   LIG    1        8.554   7.690  -1.309  0.00  0.00    +0.100 A 
ATOM     28  C   LIG    1        7.526   7.932  -0.417  0.00  0.00    -0.010 A 
ATOM     29  F   LIG    1        7.716   4.342  -2.433  0.00  0.00    -0.120 F 
ATOM     30  C   LIG    1        6.555   6.971  -0.200  0.00  0.00    +0.140 A 
ATOM     31  F   LIG    1        5.551   7.207   0.672  0.00  0.00    -0.120 F 
ENDBRANCH  21  24
ENDBRANCH  19  20
ENDBRANCH  17  19
ENDBRANCH   1  17
TORSDOF 6
