REMARK  Name = ZINCvU0000000BoR.0
REMARK                            x       y       z     vdW  Elec       q    Type
REMARK                         _______ _______ _______ _____ _____    ______ ____
ROOT
ATOM      1  C   LIG    1       -7.096   5.849  -2.045  0.00  0.00    +0.210 A 
ATOM      2  C   LIG    1       -8.195   6.693  -2.135  0.00  0.00    +0.000 A 
ATOM      3  C   LIG    1       -8.016   8.061  -2.172  0.00  0.00    +0.070 A 
ATOM      4  C   LIG    1       -6.742   8.603  -2.120  0.00  0.00    +0.010 A 
ATOM      5  C   LIG    1       -5.639   7.783  -2.024  0.00  0.00    +0.090 A 
ATOM      6  C   LIG    1       -5.803   6.395  -1.991  0.00  0.00    -0.140 A 
ENDROOT
BRANCH   1   7
ATOM      7  N   LIG    1       -7.274   4.472  -2.008  0.00  0.00    -0.690 N 
ATOM      8  H   LIG    1       -7.473   3.986  -2.824  0.00  0.00    +0.410 HD
BRANCH   7  14
ATOM      9  C   LIG    1       -7.238   0.221   0.459  0.00  0.00    +0.090 C 
ATOM     10  C   LIG    1       -7.145   1.724   0.430  0.00  0.00    -0.040 A 
ATOM     11  C   LIG    1       -6.952   2.427   1.606  0.00  0.00    -0.050 A 
ATOM     12  C   LIG    1       -6.866   3.807   1.584  0.00  0.00    +0.040 A 
ATOM     13  C   LIG    1       -6.972   4.488   0.388  0.00  0.00    -0.080 A 
ATOM     14  C   LIG    1       -7.166   3.786  -0.795  0.00  0.00    +0.240 A 
ATOM     15  C   LIG    1       -7.258   2.400  -0.769  0.00  0.00    -0.150 A 
ATOM     16  C   LIG    1       -7.475   1.634  -2.049  0.00  0.00    +0.090 C 
ENDBRANCH   7  14
ENDBRANCH   1   7
BRANCH   6  17
ATOM     17  C   LIG    1       -4.628   5.512  -1.895  0.00  0.00    +0.510 C 
ATOM     18  O   LIG    1       -4.768   4.306  -1.954  0.00  0.00    -0.480 OA
BRANCH  17  19
ATOM     19  O   LIG    1       -3.398   6.041  -1.741  0.00  0.00    -0.330 OA
BRANCH  19  20
ATOM     20  C   LIG    1       -2.287   5.110  -1.654  0.00  0.00    +0.270 C 
BRANCH  20  21
ATOM     21  C   LIG    1       -1.001   5.878  -1.485  0.00  0.00    +0.520 C 
ATOM     22  N   LIG    1        0.178   5.226  -1.487  0.00  0.00    -0.550 N 
ATOM     23  C   LIG    1        0.220   3.758  -1.530  0.00  0.00    +0.260 C 
ATOM     24  C   LIG    1        1.256   3.288  -0.501  0.00  0.00    +0.020 C 
ATOM     25  C   LIG    1        2.633   3.810  -0.911  0.00  0.00    +0.080 C 
ATOM     26  C   LIG    1        2.580   5.293  -1.168  0.00  0.00    -0.110 A 
ATOM     27  C   LIG    1        3.757   6.022  -1.126  0.00  0.00    +0.030 A 
ATOM     28  C   LIG    1        3.742   7.383  -1.366  0.00  0.00    -0.020 A 
ATOM     29  C   LIG    1        2.551   8.026  -1.643  0.00  0.00    +0.030 A 
ATOM     30  C   LIG    1        1.374   7.306  -1.691  0.00  0.00    +0.020 A 
ATOM     31  C   LIG    1        1.386   5.937  -1.448  0.00  0.00    +0.150 A 
ATOM     32  O   LIG    1       -1.028   7.083  -1.347  0.00  0.00    -0.490 OA
ENDBRANCH  20  21
ENDBRANCH  19  20
ENDBRANCH  17  19
ENDBRANCH   6  17
TORSDOF 6
