REMARK  Name = ZINCpk00000ebpFQ.0
REMARK                            x       y       z     vdW  Elec       q    Type
REMARK                         _______ _______ _______ _____ _____    ______ ____
ROOT
ATOM      1  N   LIG    1       -3.362  -5.118   0.008  0.00  0.00    -0.670 N 
ATOM      2  H   LIG    1       -4.261  -4.764   0.093  0.00  0.00    +0.420 HD
ATOM      3  C   LIG    1       -2.307  -4.280   0.000  0.00  0.00    +0.520 C 
ATOM      4  O   LIG    1       -1.179  -4.726  -0.022  0.00  0.00    -0.480 OA
ENDROOT
BRANCH   1   8
ATOM      5  C   LIG    1       -2.763  -9.226  -0.334  0.00  0.00    -0.690 A 
ATOM      6  C   LIG    1       -1.849  -8.451   0.355  0.00  0.00    +0.150 A 
ATOM      7  C   LIG    1       -2.045  -7.089   0.470  0.00  0.00    +0.010 A 
ATOM      8  C   LIG    1       -3.161  -6.498  -0.107  0.00  0.00    +0.200 A 
ATOM      9  C   LIG    1       -4.080  -7.280  -0.794  0.00  0.00    -0.020 A 
ATOM     10  C   LIG    1       -3.876  -8.641  -0.910  0.00  0.00    +0.150 A 
BRANCH   5  11
ATOM     11  S   LIG    1       -2.510 -10.964  -0.478  0.00  0.00    +2.700 S 
ATOM     12  O   LIG    1       -1.116 -11.182  -0.312  0.00  0.00    -0.960 OA
ATOM     13  O   LIG    1       -3.229 -11.380  -1.631  0.00  0.00    -0.960 OA
BRANCH  11  14
ATOM     14  N   LIG    1       -3.253 -11.677   0.819  0.00  0.00    -1.250 NA
ATOM     15  H   LIG    1       -3.326 -11.199   1.659  0.00  0.00    +0.420 HD
ATOM     16  H   LIG    1       -3.615 -12.573   0.738  0.00  0.00    +0.420 HD
ENDBRANCH  11  14
ENDBRANCH   5  11
ENDBRANCH   1   8
BRANCH   3  17
ATOM     17  C   LIG    1       -2.528  -2.789   0.019  0.00  0.00    +0.270 C 
BRANCH  17  18
ATOM     18  O   LIG    1       -1.245  -2.110   0.006  0.00  0.00    -0.330 OA
BRANCH  18  19
ATOM     19  C   LIG    1       -1.266  -0.763   0.020  0.00  0.00    +0.520 C 
ATOM     20  O   LIG    1       -2.327  -0.172   0.043  0.00  0.00    -0.490 OA
BRANCH  19  21
ATOM     21  C   LIG    1        0.002  -0.004   0.009  0.00  0.00    -0.070 A 
ATOM     22  C   LIG    1       -0.017   1.392   0.023  0.00  0.00    +0.060 A 
ATOM     23  C   LIG    1        1.171   2.097   0.013  0.00  0.00    +0.130 A 
ATOM     24  C   LIG    1        2.380   1.421  -0.013  0.00  0.00    +0.010 A 
ATOM     25  C   LIG    1        2.405   0.035  -0.027  0.00  0.00    +0.120 A 
ATOM     26  F   LIG    1        3.588  -0.617  -0.052  0.00  0.00    -0.120 F 
ATOM     27  F   LIG    1        1.154   3.447   0.026  0.00  0.00    -0.120 F 
ATOM     28  C   LIG    1        1.223  -0.680  -0.017  0.00  0.00    +0.050 A 
ENDBRANCH  19  21
ENDBRANCH  18  19
ENDBRANCH  17  18
ENDBRANCH   3  17
TORSDOF 7
