REMARK  Name = ZINCAx0000000enm.0
REMARK                            x       y       z     vdW  Elec       q    Type
REMARK                         _______ _______ _______ _____ _____    ______ ____
ROOT
ATOM      1  C   LIG    1        7.224   4.321  -2.654  0.00  0.00    +0.260 C 
ENDROOT
BRANCH   1   4
ATOM      2  N   LIG    1        5.360   3.201  -1.474  0.00  0.00    -0.730 N 
ATOM      3  H   LIG    1        5.785   3.444  -0.637  0.00  0.00    +0.400 HD
ATOM      4  C   LIG    1        5.928   3.552  -2.645  0.00  0.00    +0.510 C 
ATOM      5  O   LIG    1        5.397   3.248  -3.692  0.00  0.00    -0.510 OA
BRANCH   2   6
ATOM      6  C   LIG    1        4.101   2.453  -1.466  0.00  0.00    +0.270 C 
BRANCH   6   7
ATOM      7  C   LIG    1        3.676   2.185  -0.021  0.00  0.00    +0.070 C 
BRANCH   7  11
ATOM      8  C   LIG    1        0.002  -0.004   0.002  0.00  0.00    +0.100 A 
ATOM      9  C   LIG    1        1.213  -0.677  -0.013  0.00  0.00    -0.030 A 
ATOM     10  C   LIG    1        2.399   0.034  -0.021  0.00  0.00    +0.020 A 
ATOM     11  C   LIG    1        2.380   1.415  -0.013  0.00  0.00    -0.080 A 
ATOM     12  C   LIG    1        1.175   2.094   0.002  0.00  0.00    -0.040 A 
ATOM     13  C   LIG    1       -0.017   1.388   0.010  0.00  0.00    +0.110 A 
BRANCH   8  14
ATOM     14  O   LIG    1       -1.165  -0.702   0.009  0.00  0.00    -0.300 OA
BRANCH  14  16
ATOM     15  C   LIG    1       -2.474  -2.733   0.010  0.00  0.00    +0.070 C 
ATOM     16  C   LIG    1       -1.069  -2.127   0.000  0.00  0.00    +0.170 C 
ENDBRANCH  14  16
ENDBRANCH   8  14
BRANCH  13  17
ATOM     17  O   LIG    1       -1.203   2.053   0.019  0.00  0.00    -0.300 OA
BRANCH  17  18
ATOM     18  C   LIG    1       -1.146   3.481   0.026  0.00  0.00    +0.170 C 
ATOM     19  C   LIG    1       -2.566   4.048   0.036  0.00  0.00    +0.070 C 
ENDBRANCH  17  18
ENDBRANCH  13  17
ENDBRANCH   7  11
ENDBRANCH   6   7
ENDBRANCH   2   6
ENDBRANCH   1   4
BRANCH   1  20
ATOM     20  O   LIG    1        7.627   4.576  -4.025  0.00  0.00    -0.330 OA
BRANCH  20  21
ATOM     21  C   LIG    1        8.774   5.259  -4.209  0.00  0.00    +0.510 C 
ATOM     22  O   LIG    1        9.420   5.632  -3.249  0.00  0.00    -0.450 OA
BRANCH  21  23
ATOM     23  C   LIG    1        9.245   5.554  -5.573  0.00  0.00    -0.100 A 
ATOM     24  C   LIG    1        8.509   5.122  -6.680  0.00  0.00    +0.190 A 
ATOM     25  C   LIG    1        8.952   5.406  -7.953  0.00  0.00    -0.060 A 
ATOM     26  C   LIG    1       10.132   6.108  -8.144  0.00  0.00    +0.150 A 
ATOM     27  C   LIG    1       10.873   6.537  -7.062  0.00  0.00    +0.000 A 
ATOM     28  C   LIG    1       10.440   6.265  -5.770  0.00  0.00    +0.210 A 
BRANCH  28  29
ATOM     29  N   LIG    1       11.184   6.695  -4.679  0.00  0.00    -0.490 N 
ATOM     30  C   LIG    1       11.248   8.163  -4.631  0.00  0.00    +0.160 C 
ATOM     31  C   LIG    1       12.025   8.594  -3.385  0.00  0.00    +0.240 C 
ATOM     32  O   LIG    1       13.323   7.996  -3.407  0.00  0.00    -0.380 OA
ATOM     33  C   LIG    1       13.298   6.567  -3.453  0.00  0.00    +0.240 C 
ATOM     34  C   LIG    1       12.534   6.115  -4.701  0.00  0.00    +0.160 C 
ENDBRANCH  28  29
BRANCH  25  35
ATOM     35  N   LIG    1        8.168   4.954  -9.124  0.00  0.00    +0.030 N 
ATOM     36  O   LIG    1        7.130   4.336  -8.960  0.00  0.00    -0.140 OA
ATOM     37  O   LIG    1        8.559   5.198 -10.251  0.00  0.00    -0.150 OA
ENDBRANCH  25  35
ENDBRANCH  21  23
ENDBRANCH  20  21
ENDBRANCH   1  20
TORSDOF 13
