REMARK  Name = ZINCvU0000000GM4.0
REMARK                            x       y       z     vdW  Elec       q    Type
REMARK                         _______ _______ _______ _____ _____    ______ ____
ROOT
ATOM      1  C   LIG    1       -1.092  -0.630  -0.046  0.00  0.00    +0.070 C 
ATOM      2  C   LIG    1        0.048   0.092  -0.068  0.00  0.00    -0.110 C 
ATOM      3  C   LIG    1        0.147   1.599  -0.148  0.00  0.00    +0.090 C 
ATOM      4  C   LIG    1        1.657   1.891  -0.140  0.00  0.00    +0.070 C 
ATOM      5  C   LIG    1        2.333   0.545  -0.055  0.00  0.00    -0.210 C 
ATOM      6  C   LIG    1        1.404  -0.441  -0.017  0.00  0.00    +0.270 C 
ENDROOT
BRANCH   1  10
ATOM      7  C   LIG    1       -4.842   1.334   0.216  0.00  0.00    +0.010 A 
ATOM      8  C   LIG    1       -4.714   0.196  -0.561  0.00  0.00    +0.010 A 
ATOM      9  C   LIG    1       -3.498  -0.449  -0.652  0.00  0.00    +0.020 A 
ATOM     10  C   LIG    1       -2.393   0.051   0.045  0.00  0.00    -0.070 A 
ATOM     11  C   LIG    1       -2.532   1.198   0.833  0.00  0.00    +0.020 A 
ATOM     12  C   LIG    1       -3.753   1.834   0.908  0.00  0.00    +0.000 A 
ENDBRANCH   1  10
BRANCH   6  13
ATOM     13  N   LIG    1        1.707  -1.798   0.062  0.00  0.00    -0.660 N 
ATOM     14  C   LIG    1        2.402  -2.352   1.236  0.00  0.00    +0.260 C 
ATOM     15  C   LIG    1        1.607  -3.570   1.732  0.00  0.00    +0.220 C 
ATOM     16  O   LIG    1        1.393  -4.467   0.640  0.00  0.00    -0.380 OA
ATOM     17  C   LIG    1        0.609  -3.918  -0.423  0.00  0.00    +0.190 C 
ATOM     18  C   LIG    1        1.348  -2.719  -1.028  0.00  0.00    +0.260 C 
ENDBRANCH   6  13
BRANCH   5  19
ATOM     19  C   LIG    1        3.730   0.342  -0.022  0.00  0.00    +0.400 C 
ATOM     20  N   LIG    1        4.537   1.366   0.039  0.00  0.00    -0.290 N 
ATOM     21  H   LIG    1        4.177   2.267   0.061  0.00  0.00    +0.400 HD
BRANCH  20  22
ATOM     22  N   LIG    1        5.923   1.165   0.072  0.00  0.00    -0.470 NA
BRANCH  22  23
ATOM     23  C   LIG    1        6.779   2.252   0.137  0.00  0.00    +0.350 A 
ATOM     24  N   LIG    1        6.274   3.469   0.160  0.00  0.00    -0.600 NA
ATOM     25  C   LIG    1        7.063   4.547   0.226  0.00  0.00    +0.180 A 
ATOM     26  C   LIG    1        6.519   5.842   0.256  0.00  0.00    -0.010 A 
ATOM     27  C   LIG    1        7.346   6.922   0.319  0.00  0.00    +0.030 A 
ATOM     28  C   LIG    1        8.729   6.765   0.354  0.00  0.00    -0.030 A 
ATOM     29  C   LIG    1        9.293   5.525   0.326  0.00  0.00    +0.050 A 
ATOM     30  C   LIG    1        8.471   4.390   0.262  0.00  0.00    -0.160 A 
ATOM     31  C   LIG    1        9.018   3.091   0.232  0.00  0.00    +0.100 A 
ATOM     32  C   LIG    1        8.164   2.032   0.170  0.00  0.00    -0.040 A 
ENDBRANCH  22  23
ENDBRANCH  20  22
ENDBRANCH   5  19
TORSDOF 5
