REMARK  Name = ZINCpe00000fKt9U.0
REMARK                            x       y       z     vdW  Elec       q    Type
REMARK                         _______ _______ _______ _____ _____    ______ ____
ROOT
ATOM      1  N   LIG    1       -1.524  -3.798   1.374  0.00  0.00    -0.740 N 
ATOM      2  H   LIG    1       -1.253  -3.225   2.108  0.00  0.00    +0.400 HD
ATOM      3  C   LIG    1       -2.209  -4.931   1.620  0.00  0.00    +0.710 C 
ATOM      4  N   LIG    1       -2.520  -5.269   2.887  0.00  0.00    -0.740 N 
ATOM      5  H   LIG    1       -2.250  -4.696   3.622  0.00  0.00    +0.410 HD
ATOM      6  O   LIG    1       -2.548  -5.649   0.699  0.00  0.00    -0.590 OA
ENDROOT
BRANCH   1   7
ATOM      7  C   LIG    1       -1.186  -3.430  -0.004  0.00  0.00    +0.400 C 
BRANCH   7  15
ATOM      8  C   LIG    1        3.686  -0.713  -0.037  0.00  0.00    +0.140 C 
ATOM      9  C   LIG    1        2.376   0.031  -0.021  0.00  0.00    +0.090 A 
ATOM     10  C   LIG    1        2.374   1.381  -0.013  0.00  0.00    +0.010 A 
ATOM     11  C   LIG    1        1.160   2.087   0.002  0.00  0.00    +0.060 A 
ATOM     12  C   LIG    1       -0.017   1.405   0.010  0.00  0.00    +0.060 A 
ATOM     13  C   LIG    1        0.002  -0.004   0.002  0.00  0.00    +0.230 A 
ATOM     14  N   LIG    1       -0.966  -0.910   0.007  0.00  0.00    -0.480 NA
ATOM     15  C   LIG    1       -0.424  -2.130  -0.005  0.00  0.00    +0.040 A 
ATOM     16  C   LIG    1        0.921  -2.005  -0.017  0.00  0.00    +0.110 A 
ATOM     17  N   LIG    1        1.203  -0.666  -0.013  0.00  0.00    -0.360 N 
ENDBRANCH   7  15
ENDBRANCH   1   7
BRANCH   4  18
ATOM     18  C   LIG    1       -3.266  -6.501   3.155  0.00  0.00    +0.440 C 
BRANCH  18  19
ATOM     19  C   LIG    1       -3.483  -6.645   4.639  0.00  0.00    +0.280 A 
ATOM     20  N   LIG    1       -3.071  -5.816   5.544  0.00  0.00    -0.280 NA
ATOM     21  N   LIG    1       -3.473  -6.302   6.796  0.00  0.00    -0.540 N 
ATOM     22  H   LIG    1       -3.304  -5.886   7.655  0.00  0.00    +0.460 HD
ATOM     23  C   LIG    1       -4.133  -7.460   6.584  0.00  0.00    +0.650 A 
ATOM     24  O   LIG    1       -4.627  -8.175   7.437  0.00  0.00    -0.540 OA
ATOM     25  N   LIG    1       -4.144  -7.680   5.254  0.00  0.00    -0.520 N 
BRANCH  25  26
ATOM     26  C   LIG    1       -4.757  -8.827   4.580  0.00  0.00    +0.210 C 
ATOM     27  C   LIG    1       -5.621  -9.765   5.425  0.00  0.00    +0.060 C 
ATOM     28  C   LIG    1       -4.240 -10.220   4.945  0.00  0.00    +0.030 C 
ENDBRANCH  25  26
ENDBRANCH  18  19
ENDBRANCH   4  18
TORSDOF 5
