REMARK  Name = ZINCtV000002Br8r.0
REMARK                            x       y       z     vdW  Elec       q    Type
REMARK                         _______ _______ _______ _____ _____    ______ ____
ROOT
ATOM      1  N   LIG    1       -2.410  -6.826  -1.179  0.00  0.00    -0.630 N 
ATOM      2  H   LIG    1       -2.370  -6.339  -2.017  0.00  0.00    +0.420 HD
ATOM      3  C   LIG    1       -2.332  -6.162  -0.009  0.00  0.00    +0.560 C 
ATOM      4  O   LIG    1       -2.381  -6.772   1.041  0.00  0.00    -0.460 OA
ENDROOT
BRANCH   1  10
ATOM      5  C   LIG    1       -3.018 -12.959  -1.021  0.00  0.00    +0.140 A 
ATOM      6  C   LIG    1       -2.968 -12.597   0.321  0.00  0.00    -0.040 A 
ATOM      7  C   LIG    1       -2.833 -11.281   0.684  0.00  0.00    +0.120 A 
ATOM      8  C   LIG    1       -2.744 -10.273  -0.299  0.00  0.00    +0.070 A 
ATOM      9  N   LIG    1       -2.604  -8.941  -0.131  0.00  0.00    -0.460 NA
ATOM     10  C   LIG    1       -2.547  -8.204  -1.185  0.00  0.00    +0.330 A 
ATOM     11  S   LIG    1       -2.661  -9.195  -2.633  0.00  0.00    +0.070 S 
ATOM     12  C   LIG    1       -2.796 -10.648  -1.645  0.00  0.00    -0.140 A 
ATOM     13  C   LIG    1       -2.933 -11.987  -2.000  0.00  0.00    +0.030 A 
BRANCH   5  15
ATOM     14  C   LIG    1       -3.234 -15.216  -0.305  0.00  0.00    +0.240 C 
ATOM     15  O   LIG    1       -3.152 -14.267  -1.369  0.00  0.00    -0.310 OA
ENDBRANCH   5  15
ENDBRANCH   1  10
BRANCH   3  16
ATOM     16  C   LIG    1       -2.185  -4.691  -0.002  0.00  0.00    -0.130 A 
ATOM     17  C   LIG    1       -2.103  -4.000   1.208  0.00  0.00    +0.090 A 
ATOM     18  C   LIG    1       -1.966  -2.627   1.207  0.00  0.00    +0.040 A 
ATOM     19  C   LIG    1       -1.909  -1.936   0.010  0.00  0.00    -0.050 A 
ATOM     20  C   LIG    1       -1.995  -2.614  -1.193  0.00  0.00    +0.040 A 
ATOM     21  C   LIG    1       -2.127  -3.987  -1.206  0.00  0.00    +0.050 A 
BRANCH  19  22
ATOM     22  C   LIG    1       -1.760  -0.436   0.017  0.00  0.00    +0.120 C 
BRANCH  22  23
ATOM     23  S   LIG    1        0.002  -0.004   0.002  0.00  0.00    -0.090 S 
BRANCH  23  24
ATOM     24  C   LIG    1       -0.022   1.758   0.012  0.00  0.00    -0.090 A 
ATOM     25  C   LIG    1       -1.234   2.438   0.021  0.00  0.00    +0.010 A 
ATOM     26  C   LIG    1       -1.249   3.818   0.034  0.00  0.00    +0.050 A 
ATOM     27  C   LIG    1       -0.059   4.525   0.027  0.00  0.00    -0.040 A 
ATOM     28  C   LIG    1        1.149   3.851   0.012  0.00  0.00    +0.050 A 
ATOM     29 CL   LIG    1       -0.083   6.261   0.037  0.00  0.00    -0.060 Cl
ATOM     30  C   LIG    1        1.171   2.470   0.004  0.00  0.00    +0.050 A 
ENDBRANCH  23  24
ENDBRANCH  22  23
ENDBRANCH  19  22
ENDBRANCH   3  16
TORSDOF 6
