REMARK  Name = ZINCpe000000T6qc.0
REMARK                            x       y       z     vdW  Elec       q    Type
REMARK                         _______ _______ _______ _____ _____    ______ ____
ROOT
ATOM      1  N   LIG    1       -3.363  -3.599  -3.862  0.00  0.00    -0.340 N 
ATOM      2  N   LIG    1       -2.494  -4.212  -3.146  0.00  0.00    -0.210 NA
ATOM      3  C   LIG    1       -1.275  -3.765  -2.976  0.00  0.00    +0.060 A 
ATOM      4  C   LIG    1       -0.325  -4.553  -2.110  0.00  0.00    +0.100 C 
ATOM      5  C   LIG    1        1.113  -4.113  -2.385  0.00  0.00    +0.240 C 
ATOM      6  N   LIG    1        1.185  -2.646  -2.290  0.00  0.00    -0.500 NA
ATOM      7  C   LIG    1        0.518  -2.027  -3.440  0.00  0.00    +0.290 C 
ATOM      8  C   LIG    1       -0.873  -2.575  -3.593  0.00  0.00    -0.060 A 
ATOM      9  C   LIG    1       -1.779  -1.896  -4.361  0.00  0.00    -0.030 A 
ATOM     10  C   LIG    1       -3.074  -2.442  -4.490  0.00  0.00    +0.480 A 
ATOM     11  O   LIG    1       -3.921  -1.875  -5.161  0.00  0.00    -0.530 OA
ENDROOT
BRANCH   1  13
ATOM     12  C   LIG    1       -4.603  -5.561  -4.632  0.00  0.00    +0.050 C 
ATOM     13  C   LIG    1       -4.704  -4.171  -4.002  0.00  0.00    +0.250 C 
ATOM     14  C   LIG    1       -5.357  -4.282  -2.623  0.00  0.00    +0.050 C 
ENDBRANCH   1  13
BRANCH   6  15
ATOM     15  C   LIG    1        0.606  -2.171  -1.026  0.00  0.00    +0.120 C 
ATOM     16  C   LIG    1        1.305  -2.861   0.147  0.00  0.00    +0.070 C 
BRANCH  15  17
ATOM     17  C   LIG    1        0.792  -0.680  -0.917  0.00  0.00    +0.520 C 
ATOM     18  N   LIG    1       -0.083   0.059  -0.206  0.00  0.00    -0.730 N 
ATOM     19  H   LIG    1       -0.833  -0.370   0.234  0.00  0.00    +0.400 HD
ATOM     20  O   LIG    1        1.731  -0.144  -1.468  0.00  0.00    -0.520 OA
BRANCH  18  21
ATOM     21  C   LIG    1        0.099   1.508  -0.100  0.00  0.00    +0.260 C 
BRANCH  21  22
ATOM     22  C   LIG    1       -1.023   2.102   0.754  0.00  0.00    +0.160 C 
ATOM     23  C   LIG    1       -0.909   3.641   0.773  0.00  0.00    +0.020 C 
ATOM     24  C   LIG    1       -1.270   3.980   2.246  0.00  0.00    +0.010 C 
ATOM     25  C   LIG    1       -0.676   2.754   2.985  0.00  0.00    +0.200 C 
ATOM     26  O   LIG    1       -0.900   1.641   2.105  0.00  0.00    -0.380 OA
ENDBRANCH  21  22
ENDBRANCH  18  21
ENDBRANCH  15  17
ENDBRANCH   6  15
TORSDOF 5
