REMARK  Name = ZINCtV000002AhQ9.0
REMARK                            x       y       z     vdW  Elec       q    Type
REMARK                         _______ _______ _______ _____ _____    ______ ____
ROOT
ATOM      1  C   LIG    1        5.515   2.295   0.798  0.00  0.00    +0.130 C 
ATOM      2  C   LIG    1        4.721   1.827  -0.205  0.00  0.00    +0.000 C 
ENDROOT
BRANCH   2   3
ATOM      3  C   LIG    1        4.923   0.465  -0.732  0.00  0.00    +0.160 A 
ATOM      4  N   LIG    1        4.013  -0.453  -0.773  0.00  0.00    -0.430 NA
ATOM      5  C   LIG    1        4.349  -1.648  -1.287  0.00  0.00    +0.080 A 
ATOM      6  C   LIG    1        3.546  -2.799  -1.446  0.00  0.00    +0.080 A 
ATOM      7  C   LIG    1        4.066  -3.935  -1.988  0.00  0.00    +0.030 A 
ATOM      8  C   LIG    1        5.391  -3.986  -2.395  0.00  0.00    +0.050 A 
ATOM      9  C   LIG    1        6.199  -2.879  -2.252  0.00  0.00    +0.050 A 
ATOM     10  C   LIG    1        5.686  -1.708  -1.700  0.00  0.00    -0.170 A 
ATOM     11  S   LIG    1        6.436  -0.145  -1.385  0.00  0.00    +0.080 S 
ENDBRANCH   2   3
BRANCH   2  12
ATOM     12  C   LIG    1        3.660   2.683  -0.765  0.00  0.00    +0.160 A 
ATOM     13  N   LIG    1        2.854   2.336  -1.714  0.00  0.00    -0.440 NA
ATOM     14  C   LIG    1        1.935   3.229  -2.117  0.00  0.00    +0.080 A 
ATOM     15  C   LIG    1        0.952   3.094  -3.123  0.00  0.00    +0.080 A 
ATOM     16  C   LIG    1        0.101   4.120  -3.400  0.00  0.00    +0.030 A 
ATOM     17  C   LIG    1        0.173   5.313  -2.695  0.00  0.00    +0.050 A 
ATOM     18  C   LIG    1        1.121   5.474  -1.709  0.00  0.00    +0.050 A 
ATOM     19  C   LIG    1        2.004   4.438  -1.414  0.00  0.00    -0.170 A 
ATOM     20  S   LIG    1        3.308   4.322  -0.235  0.00  0.00    +0.070 S 
ENDBRANCH   2  12
BRANCH   1  23
ATOM     21  C   LIG    1        8.534   1.049   2.640  0.00  0.00    +0.100 A 
ATOM     22  C   LIG    1        7.646   1.902   2.016  0.00  0.00    -0.020 A 
ATOM     23  C   LIG    1        6.463   1.394   1.464  0.00  0.00    -0.060 A 
ATOM     24  C   LIG    1        6.186   0.024   1.554  0.00  0.00    +0.020 A 
ATOM     25  C   LIG    1        7.080  -0.820   2.174  0.00  0.00    +0.030 A 
ATOM     26  C   LIG    1        8.253  -0.315   2.720  0.00  0.00    +0.100 A 
BRANCH  21  28
ATOM     27  C   LIG    1        9.908   2.944   3.058  0.00  0.00    +0.240 C 
ATOM     28  O   LIG    1        9.684   1.538   3.177  0.00  0.00    -0.310 OA
ENDBRANCH  21  28
BRANCH  26  29
ATOM     29  O   LIG    1        9.128  -1.152   3.336  0.00  0.00    -0.480 OA
ATOM     30  H   LIG    1        8.967  -1.264   4.282  0.00  0.00    +0.390 HD
ENDBRANCH  26  29
ENDBRANCH   1  23
TORSDOF 5
