REMARK  Name = ZINCkj000005k07W.1
REMARK                            x       y       z     vdW  Elec       q    Type
REMARK                         _______ _______ _______ _____ _____    ______ ____
ROOT
ATOM      1  C   LIG    1        3.523   5.862  -2.129  0.00  0.00    +0.390 C 
ENDROOT
BRANCH   1   2
ATOM      2  N   LIG    1        2.822   4.577  -2.181  0.00  0.00    -0.450 N 
ATOM      3  N   LIG    1        2.825   3.591  -1.184  0.00  0.00    -0.300 NA
ATOM      4  C   LIG    1        2.084   2.592  -1.603  0.00  0.00    +0.320 A 
ATOM      5  C   LIG    1        1.742   1.350  -1.011  0.00  0.00    +0.020 A 
ATOM      6  C   LIG    1        0.937   0.493  -1.684  0.00  0.00    +0.140 A 
ATOM      7  C   LIG    1        0.458   0.838  -2.964  0.00  0.00    +0.000 A 
ATOM      8  C   LIG    1        0.784   2.017  -3.522  0.00  0.00    +0.300 A 
ATOM      9  N   LIG    1        1.595   2.906  -2.858  0.00  0.00    -0.480 N 
ATOM     10  C   LIG    1        2.058   4.127  -3.197  0.00  0.00    +0.650 A 
ATOM     11  O   LIG    1        1.826   4.718  -4.237  0.00  0.00    -0.530 OA
ENDBRANCH   1   2
BRANCH   1  12
ATOM     12  C   LIG    1        2.606   6.918  -1.507  0.00  0.00    +0.250 C 
BRANCH  12  20
ATOM     13  C   LIG    1        2.438   9.304  -3.301  0.00  0.00    +0.100 C 
ATOM     14  C   LIG    1        3.691   8.712  -2.654  0.00  0.00    +0.160 C 
ATOM     15  C   LIG    1        4.755   9.806  -2.511  0.00  0.00    +0.020 C 
ATOM     16  S   LIG    1        4.053  11.166  -1.528  0.00  0.00    -0.180 S 
ATOM     17  C   LIG    1        3.397  10.280  -0.080  0.00  0.00    +0.140 C 
ATOM     18  C   LIG    1        2.529   9.118  -0.576  0.00  0.00    +0.280 C 
ATOM     19  C   LIG    1        5.151  10.323  -3.895  0.00  0.00    +0.120 C 
ATOM     20  N   LIG    1        3.350   8.173  -1.336  0.00  0.00    -0.380 N 
ATOM     21  H   LIG    1        4.199   7.987  -0.824  0.00  0.00    +0.420 HD
ENDBRANCH  12  20
ENDBRANCH   1  12
TORSDOF 3
