REMARK  Name = ZINCkj000005k07W.0
REMARK                            x       y       z     vdW  Elec       q    Type
REMARK                         _______ _______ _______ _____ _____    ______ ____
ROOT
ATOM      1  C   LIG    1       -1.179   3.105  -0.251  0.00  0.00    +0.390 C 
ENDROOT
BRANCH   1   2
ATOM      2  N   LIG    1        0.097   2.419  -0.471  0.00  0.00    -0.450 N 
ATOM      3  N   LIG    1        1.374   2.982  -0.336  0.00  0.00    -0.300 NA
ATOM      4  C   LIG    1        2.256   2.054  -0.623  0.00  0.00    +0.320 A 
ATOM      5  C   LIG    1        3.674   2.068  -0.650  0.00  0.00    +0.020 A 
ATOM      6  C   LIG    1        4.343   0.940  -0.991  0.00  0.00    +0.140 A 
ATOM      7  C   LIG    1        3.626  -0.231  -1.314  0.00  0.00    +0.000 A 
ATOM      8  C   LIG    1        2.281  -0.239  -1.286  0.00  0.00    +0.300 A 
ATOM      9  N   LIG    1        1.579   0.892  -0.944  0.00  0.00    -0.480 N 
ATOM     10  C   LIG    1        0.257   1.133  -0.845  0.00  0.00    +0.650 A 
ATOM     11  O   LIG    1       -0.637   0.332  -1.057  0.00  0.00    -0.530 OA
ENDBRANCH   1   2
BRANCH   1  12
ATOM     12  C   LIG    1       -1.599   2.942   1.212  0.00  0.00    +0.250 C 
BRANCH  12  20
ATOM     13  C   LIG    1       -1.939   4.006   3.657  0.00  0.00    +0.110 C 
ATOM     14  C   LIG    1       -3.189   3.620   2.863  0.00  0.00    +0.180 C 
ATOM     15  C   LIG    1       -4.310   4.622   3.161  0.00  0.00    +0.070 C 
ATOM     16  S   LIG    1       -5.806   4.089   2.274  0.00  0.00    -0.180 S 
ATOM     17  C   LIG    1       -5.172   3.843   0.586  0.00  0.00    +0.140 C 
ATOM     18  C   LIG    1       -3.925   2.955   0.662  0.00  0.00    +0.280 C 
ATOM     19  C   LIG    1       -3.900   6.017   2.685  0.00  0.00    +0.070 C 
ATOM     20  N   LIG    1       -2.879   3.630   1.432  0.00  0.00    -0.380 N 
ATOM     21  H   LIG    1       -2.800   4.585   1.117  0.00  0.00    +0.420 HD
ENDBRANCH  12  20
ENDBRANCH   1  12
TORSDOF 3
