REMARK  Name = ZINCpe000000Y8gN.0
REMARK                            x       y       z     vdW  Elec       q    Type
REMARK                         _______ _______ _______ _____ _____    ______ ____
ROOT
ATOM      1  C   LIG    1        1.408   5.728   4.975  0.00  0.00    +0.610 C 
ATOM      2  N   LIG    1        1.557   5.401   3.677  0.00  0.00    -0.710 N 
ATOM      3  H   LIG    1        2.444   5.350   3.288  0.00  0.00    +0.400 HD
ATOM      4  O   LIG    1        0.296   5.791   5.463  0.00  0.00    -0.530 OA
ENDROOT
BRANCH   1  15
ATOM      5  C   LIG    1        2.771   8.571   5.367  0.00  0.00    +0.160 C 
ATOM      6  C   LIG    1        3.211   7.271   5.989  0.00  0.00    +0.110 A 
ATOM      7  N   LIG    1        4.227   7.110   6.794  0.00  0.00    -0.290 NA
ATOM      8  N   LIG    1        4.313   5.763   7.149  0.00  0.00    -0.350 N 
ATOM      9  C   LIG    1        3.312   5.099   6.542  0.00  0.00    +0.130 A 
ATOM     10  C   LIG    1        3.061   3.618   6.675  0.00  0.00    +0.120 C 
ATOM     11  C   LIG    1        3.857   3.105   7.883  0.00  0.00    +0.030 C 
ATOM     12  C   LIG    1        5.295   3.625   7.795  0.00  0.00    +0.050 C 
ATOM     13  C   LIG    1        5.307   5.139   8.029  0.00  0.00    +0.250 C 
ATOM     14  C   LIG    1        6.696   5.695   7.708  0.00  0.00    +0.050 C 
ATOM     15  C   LIG    1        2.594   6.011   5.805  0.00  0.00    -0.290 A 
ENDBRANCH   1  15
BRANCH   2  16
ATOM     16  C   LIG    1        0.379   5.120   2.852  0.00  0.00    +0.230 C 
ATOM     17  C   LIG    1        0.606   5.360   1.351  0.00  0.00    +0.040 C 
ATOM     18  C   LIG    1        1.076   3.898   1.268  0.00  0.00    +0.000 C 
ATOM     19  C   LIG    1        0.206   3.631   2.508  0.00  0.00    +0.030 C 
BRANCH  18  20
ATOM     20  C   LIG    1        0.593   3.169   0.013  0.00  0.00    +0.230 C 
ATOM     21  N   LIG    1       -0.873   3.023   0.025  0.00  0.00    -0.720 N 
ATOM     22  H   LIG    1       -1.526   3.740   0.034  0.00  0.00    +0.440 HD
ATOM     23  C   LIG    1       -1.128   1.702   0.016  0.00  0.00    +0.700 C 
ATOM     24  N   LIG    1       -0.011   0.966   0.007  0.00  0.00    -0.680 N 
ATOM     25  H   LIG    1        0.002  -0.004   0.002  0.00  0.00    +0.430 HD
ATOM     26  O   LIG    1       -2.248   1.231   0.019  0.00  0.00    -0.540 OA
ATOM     27  C   LIG    1        1.093   1.738   0.001  0.00  0.00    +0.530 C 
ATOM     28  O   LIG    1        2.247   1.366  -0.012  0.00  0.00    -0.460 OA
ENDBRANCH  18  20
ENDBRANCH   2  16
TORSDOF 3
