REMARK  Name = ZINCqH0000001lDN.0
REMARK                            x       y       z     vdW  Elec       q    Type
REMARK                         _______ _______ _______ _____ _____    ______ ____
ROOT
ATOM      1  C   LIG    1       -1.246  -0.732   0.009  0.00  0.00    +0.250 C 
ENDROOT
BRANCH   1   2
ATOM      2  C   LIG    1       -1.260  -2.163   0.483  0.00  0.00    +0.520 C 
ATOM      3  N   LIG    1       -2.426  -2.835   0.564  0.00  0.00    -0.610 N 
ATOM      4  C   LIG    1       -2.478  -4.195   1.122  0.00  0.00    +0.260 C 
ATOM      5  C   LIG    1       -3.587  -4.234   2.186  0.00  0.00    +0.190 C 
ATOM      6  O   LIG    1       -4.800  -3.734   1.619  0.00  0.00    -0.370 OA
ATOM      7  C   LIG    1       -4.731  -2.368   1.202  0.00  0.00    +0.140 C 
ATOM      8  C   LIG    1       -6.096  -1.925   0.672  0.00  0.00    +0.070 C 
ATOM      9  C   LIG    1       -3.185  -3.367   3.381  0.00  0.00    +0.020 C 
ATOM     10  C   LIG    1       -3.682  -2.231   0.092  0.00  0.00    +0.260 C 
ATOM     11  O   LIG    1       -0.222  -2.710   0.791  0.00  0.00    -0.530 OA
ENDBRANCH   1   2
BRANCH   1  12
ATOM     12  N   LIG    1       -0.034  -0.069   0.495  0.00  0.00    -0.710 N 
ATOM     13  H   LIG    1        0.755  -0.593   0.705  0.00  0.00    +0.410 HD
ATOM     14  C   LIG    1       -0.015   1.270   0.651  0.00  0.00    +0.560 C 
ATOM     15  O   LIG    1       -1.002   1.927   0.383  0.00  0.00    -0.500 OA
BRANCH  14  16
ATOM     16  C   LIG    1        1.207   1.939   1.141  0.00  0.00    -0.130 A 
ATOM     17  C   LIG    1        2.345   1.188   1.444  0.00  0.00    +0.090 A 
ATOM     18  C   LIG    1        3.482   1.818   1.901  0.00  0.00    +0.040 A 
ATOM     19  C   LIG    1        3.500   3.194   2.060  0.00  0.00    +0.000 A 
ATOM     20  C   LIG    1        2.376   3.946   1.762  0.00  0.00    +0.040 A 
ATOM     21 CL   LIG    1        4.937   3.979   2.637  0.00  0.00    -0.050 Cl
ATOM     22  C   LIG    1        1.232   3.328   1.298  0.00  0.00    +0.030 A 
ATOM     23 CL   LIG    1       -0.174   4.272   0.917  0.00  0.00    -0.010 Cl
ENDBRANCH  14  16
ENDBRANCH   1  12
BRANCH   1  24
ATOM     24  C   LIG    1       -1.266  -0.701  -1.520  0.00  0.00    +0.030 C 
BRANCH  24  26
ATOM     25  C   LIG    1       -1.320   0.789  -3.525  0.00  0.00    +0.010 C 
ATOM     26  C   LIG    1       -1.425   0.743  -1.999  0.00  0.00    -0.010 C 
ATOM     27  C   LIG    1       -2.792   1.277  -1.566  0.00  0.00    +0.020 C 
ENDBRANCH  24  26
ENDBRANCH   1  24
TORSDOF 5
