REMARK  Name = ZINCrD0000074oB3.0
REMARK                            x       y       z     vdW  Elec       q    Type
REMARK                         _______ _______ _______ _____ _____    ______ ____
ROOT
ATOM      1  C   LIG    1       -2.752   0.625   5.038  0.00  0.00    +0.530 C 
ATOM      2  N   LIG    1       -2.140   1.759   4.643  0.00  0.00    -0.560 N 
ATOM      3  C   LIG    1       -2.538   2.437   3.399  0.00  0.00    +0.300 C 
ATOM      4  C   LIG    1       -1.746   1.928   2.224  0.00  0.00    +0.030 C 
ATOM      5  C   LIG    1       -0.266   2.276   2.233  0.00  0.00    +0.030 C 
ATOM      6  S   LIG    1        0.589   1.325   3.523  0.00  0.00    -0.150 S 
ATOM      7  C   LIG    1        0.213   2.265   4.983  0.00  0.00    -0.100 A 
ATOM      8  C   LIG    1        1.216   2.918   5.674  0.00  0.00    +0.080 A 
ATOM      9  C   LIG    1        0.896   3.620   6.826  0.00  0.00    +0.030 A 
ATOM     10  C   LIG    1       -0.411   3.655   7.273  0.00  0.00    +0.040 A 
ATOM     11  C   LIG    1       -1.414   3.010   6.573  0.00  0.00    +0.010 A 
ATOM     12  C   LIG    1        0.343   1.942   0.870  0.00  0.00    +0.080 C 
ATOM     13  C   LIG    1       -1.107   2.321   5.406  0.00  0.00    +0.140 A 
ATOM     14  O   LIG    1       -3.644   0.152   4.366  0.00  0.00    -0.500 OA
ENDROOT
BRANCH   1  15
ATOM     15  C   LIG    1       -2.329  -0.054   6.315  0.00  0.00    +0.260 C 
BRANCH  15  16
ATOM     16  O   LIG    1       -3.134  -1.245   6.519  0.00  0.00    -0.320 OA
BRANCH  16  17
ATOM     17  C   LIG    1       -2.880  -1.973   7.624  0.00  0.00    +0.530 C 
ATOM     18  O   LIG    1       -2.010  -1.622   8.396  0.00  0.00    -0.500 OA
BRANCH  17  27
ATOM     19  C   LIG    1       -5.160  -2.657   5.917  0.00  0.00    +0.140 C 
ATOM     20  C   LIG    1       -4.764  -3.536   7.076  0.00  0.00    +0.060 A 
ATOM     21  C   LIG    1       -5.462  -4.670   7.353  0.00  0.00    -0.110 A 
ATOM     22  C   LIG    1       -5.070  -5.473   8.441  0.00  0.00    +0.500 A 
ATOM     23  O   LIG    1       -4.018  -5.125   9.202  0.00  0.00    -0.250 OA
ATOM     24  C   LIG    1       -3.313  -4.018   8.945  0.00  0.00    +0.240 A 
ATOM     25  C   LIG    1       -2.135  -3.664   9.816  0.00  0.00    +0.200 C 
ATOM     26  O   LIG    1       -5.689  -6.491   8.696  0.00  0.00    -0.460 OA
ATOM     27  C   LIG    1       -3.658  -3.195   7.896  0.00  0.00    -0.260 A 
ENDBRANCH  17  27
ENDBRANCH  16  17
ENDBRANCH  15  16
ENDBRANCH   1  15
TORSDOF 4
