REMARK  Name = ZINCvU000000090C.0
REMARK                            x       y       z     vdW  Elec       q    Type
REMARK                         _______ _______ _______ _____ _____    ______ ____
ROOT
ATOM      1  N   LIG    1       -5.467   7.423  -1.488  0.00  0.00    -0.620 N 
ATOM      2  H   LIG    1       -4.524   7.650  -1.513  0.00  0.00    +0.430 HD
ATOM      3  C   LIG    1       -5.849   6.133  -1.417  0.00  0.00    +0.520 C 
ATOM      4  O   LIG    1       -7.028   5.850  -1.386  0.00  0.00    -0.490 OA
ENDROOT
BRANCH   3   5
ATOM      5  C   LIG    1       -4.811   5.041  -1.376  0.00  0.00    +0.000 C 
ATOM      6  C   LIG    1       -5.503   3.679  -1.293  0.00  0.00    +0.060 C 
ATOM      7  C   LIG    1       -4.450   2.569  -1.284  0.00  0.00    +0.030 C 
ATOM      8  C   LIG    1       -3.553   2.731  -0.059  0.00  0.00    +0.280 C 
ATOM      9  N   LIG    1       -2.997   4.091  -0.049  0.00  0.00    -0.600 N 
ATOM     10  C   LIG    1       -1.666   4.288   0.041  0.00  0.00    +0.610 C 
ATOM     11  O   LIG    1       -1.223   5.419   0.118  0.00  0.00    -0.520 OA
ATOM     12  C   LIG    1       -3.918   5.231  -0.145  0.00  0.00    +0.300 C 
BRANCH  10  13
ATOM     13  C   LIG    1       -0.753   3.140   0.046  0.00  0.00    -0.090 A 
ATOM     14  C   LIG    1        0.610   3.199  -0.000  0.00  0.00    +0.050 A 
ATOM     15  C   LIG    1        1.072   1.874   0.025  0.00  0.00    -0.060 A 
ATOM     16  C   LIG    1       -0.015   1.074   0.085  0.00  0.00    +0.200 A 
ATOM     17  O   LIG    1       -1.114   1.841   0.092  0.00  0.00    -0.160 OA
ENDBRANCH  10  13
ENDBRANCH   3   5
BRANCH   1  21
ATOM     18  C   LIG    1       -7.217  10.518  -1.622  0.00  0.00    +0.130 A 
ATOM     19  C   LIG    1       -8.421   9.921  -1.575  0.00  0.00    -0.110 A 
ATOM     20  S   LIG    1       -8.168   8.178  -1.497  0.00  0.00    +0.200 S 
ATOM     21  C   LIG    1       -6.425   8.430  -1.526  0.00  0.00    +0.270 A 
ATOM     22  N   LIG    1       -6.174   9.700  -1.595  0.00  0.00    -0.500 NA
BRANCH  18  26
ATOM     23  C   LIG    1       -6.785  14.742  -1.844  0.00  0.00    -0.060 A 
ATOM     24  C   LIG    1       -5.662  13.935  -1.819  0.00  0.00    +0.000 A 
ATOM     25  C   LIG    1       -5.796  12.564  -1.746  0.00  0.00    +0.050 A 
ATOM     26  C   LIG    1       -7.066  11.992  -1.700  0.00  0.00    -0.030 A 
ATOM     27  C   LIG    1       -8.194  12.810  -1.732  0.00  0.00    +0.020 A 
ATOM     28  C   LIG    1       -8.048  14.181  -1.798  0.00  0.00    +0.010 A 
BRANCH  23  30
ATOM     29  C   LIG    1       -5.880  16.608  -3.204  0.00  0.00    +0.040 C 
ATOM     30  C   LIG    1       -6.631  16.239  -1.923  0.00  0.00    -0.030 C 
ATOM     31  C   LIG    1       -5.845  16.736  -0.709  0.00  0.00    +0.040 C 
ATOM     32  C   LIG    1       -8.015  16.894  -1.937  0.00  0.00    +0.030 C 
ENDBRANCH  23  30
ENDBRANCH  18  26
ENDBRANCH   1  21
TORSDOF 5
