REMARK  Name = ZINCvU000000082d.0
REMARK                            x       y       z     vdW  Elec       q    Type
REMARK                         _______ _______ _______ _____ _____    ______ ____
ROOT
ATOM      1  C   LIG    1        1.732   5.732   0.016  0.00  0.00    +0.540 C 
ATOM      2  N   LIG    1        1.998   4.411   0.007  0.00  0.00    -0.610 N 
ATOM      3  H   LIG    1        2.917   4.101  -0.003  0.00  0.00    +0.430 HD
ATOM      4  O   LIG    1        0.582   6.119   0.028  0.00  0.00    -0.480 OA
ENDROOT
BRANCH   2   5
ATOM      5  C   LIG    1        0.955   3.492   0.011  0.00  0.00    +0.270 A 
ATOM      6  N   LIG    1        1.093   2.203   0.004  0.00  0.00    -0.490 NA
ATOM      7  C   LIG    1       -0.018   1.479   0.010  0.00  0.00    +0.120 A 
ATOM      8  C   LIG    1       -1.164   2.182   0.019  0.00  0.00    -0.100 A 
ATOM      9  S   LIG    1       -0.758   3.897   0.029  0.00  0.00    +0.220 S 
BRANCH   7  10
ATOM     10  C   LIG    1        0.002  -0.004   0.002  0.00  0.00    -0.000 A 
ATOM     11  C   LIG    1       -1.194  -0.719   0.015  0.00  0.00    +0.060 A 
ATOM     12  C   LIG    1       -1.172  -2.099   0.002  0.00  0.00    +0.030 A 
ATOM     13  C   LIG    1        0.037  -2.775  -0.013  0.00  0.00    +0.070 A 
ATOM     14  C   LIG    1        1.231  -2.068  -0.020  0.00  0.00    +0.070 A 
ATOM     15  F   LIG    1        2.408  -2.731  -0.034  0.00  0.00    -0.130 F 
ATOM     16  F   LIG    1        0.053  -4.125  -0.020  0.00  0.00    -0.130 F 
ATOM     17  C   LIG    1        1.218  -0.686  -0.013  0.00  0.00    +0.060 A 
ENDBRANCH   7  10
ENDBRANCH   2   5
BRANCH   1  19
ATOM     18  C   LIG    1        3.423   6.870   1.428  0.00  0.00    +0.100 C 
ATOM     19  C   LIG    1        2.862   6.728   0.011  0.00  0.00    +0.030 C 
BRANCH  19  20
ATOM     20  S   LIG    1        2.248   8.337  -0.560  0.00  0.00    +0.100 S 
BRANCH  20  21
ATOM     21  C   LIG    1        3.712   9.314  -0.641  0.00  0.00    +0.210 A 
ATOM     22  N   LIG    1        4.920   8.908  -0.345  0.00  0.00    -0.290 NA
ATOM     23  N   LIG    1        5.797   9.982  -0.540  0.00  0.00    -0.260 NA
ATOM     24  C   LIG    1        5.088  11.005  -0.949  0.00  0.00    +0.180 A 
ATOM     25  S   LIG    1        5.184  12.700  -1.443  0.00  0.00    +0.210 S 
ATOM     26  C   LIG    1        3.452  12.860  -1.760  0.00  0.00    -0.140 A 
ATOM     27  C   LIG    1        2.682  13.925  -2.199  0.00  0.00    +0.100 A 
ATOM     28  C   LIG    1        1.318  13.770  -2.353  0.00  0.00    +0.060 A 
ATOM     29  C   LIG    1        0.735  12.547  -2.067  0.00  0.00    +0.070 A 
ATOM     30  C   LIG    1        1.497  11.488  -1.632  0.00  0.00    +0.050 A 
ATOM     31  C   LIG    1        2.883  11.624  -1.468  0.00  0.00    +0.100 A 
ATOM     32  N   LIG    1        3.780  10.640  -1.035  0.00  0.00    -0.440 N 
ENDBRANCH  20  21
ENDBRANCH  19  20
ENDBRANCH   1  19
TORSDOF 5
