REMARK  Name = ZINCrH000004liRR.0
REMARK                            x       y       z     vdW  Elec       q    Type
REMARK                         _______ _______ _______ _____ _____    ______ ____
ROOT
ATOM      1  C   LIG    1        0.707  -2.220   0.354  0.00  0.00    -0.270 A 
ATOM      2  C   LIG    1        1.498  -3.146   0.916  0.00  0.00    +0.170 A 
ATOM      3  C   LIG    1        1.172  -4.475   0.613  0.00  0.00    -0.220 A 
ATOM      4  C   LIG    1        0.074  -4.586  -0.225  0.00  0.00    -0.030 A 
ATOM      5  N   LIG    1       -0.140  -5.921  -0.443  0.00  0.00    -0.300 N 
ATOM      6  N   LIG    1        0.830  -6.638   0.263  0.00  0.00    -0.250 NA
ATOM      7  C   LIG    1        1.609  -5.808   0.890  0.00  0.00    +0.140 A 
ATOM      8  C   LIG    1        2.779  -6.188   1.761  0.00  0.00    +0.180 C 
ATOM      9  S   LIG    1       -0.541  -2.985  -0.615  0.00  0.00    +0.300 S 
ENDROOT
BRANCH   5  10
ATOM     10  C   LIG    1       -1.155  -6.473  -1.237  0.00  0.00    +0.180 A 
ATOM     11  C   LIG    1       -2.062  -5.643  -1.882  0.00  0.00    -0.010 A 
ATOM     12  C   LIG    1       -3.058  -6.189  -2.668  0.00  0.00    +0.060 A 
ATOM     13  C   LIG    1       -3.160  -7.561  -2.804  0.00  0.00    +0.020 A 
ATOM     14  C   LIG    1       -2.263  -8.392  -2.158  0.00  0.00    +0.060 A 
ATOM     15  C   LIG    1       -1.260  -7.851  -1.375  0.00  0.00    -0.050 A 
ATOM     16 CL   LIG    1       -0.133  -8.894  -0.564  0.00  0.00    -0.030 Cl
ENDBRANCH   5  10
BRANCH   1  18
ATOM     17  N   LIG    1       -0.078   0.067   0.049  0.00  0.00    -0.610 N 
ATOM     18  C   LIG    1        0.860  -0.772   0.530  0.00  0.00    +0.600 C 
ATOM     19  O   LIG    1        1.833  -0.329   1.110  0.00  0.00    -0.500 OA
BRANCH  17  20
ATOM     20  C   LIG    1        0.136   1.515   0.106  0.00  0.00    +0.310 C 
BRANCH  20  21
ATOM     21  C   LIG    1       -0.417   2.061   1.424  0.00  0.00    +0.150 C 
BRANCH  21  23
ATOM     22  C   LIG    1       -0.105   1.973   3.799  0.00  0.00    +0.200 C 
ATOM     23  O   LIG    1        0.333   1.524   2.515  0.00  0.00    -0.370 OA
ENDBRANCH  21  23
ENDBRANCH  20  21
ENDBRANCH  17  20
BRANCH  17  24
ATOM     24  C   LIG    1       -1.312  -0.468  -0.531  0.00  0.00    +0.300 C 
BRANCH  24  25
ATOM     25  C   LIG    1       -1.172  -0.538  -2.053  0.00  0.00    +0.150 C 
BRANCH  25  26
ATOM     26  O   LIG    1       -0.153  -1.481  -2.394  0.00  0.00    -0.370 OA
ATOM     27  C   LIG    1        0.059  -1.624  -3.800  0.00  0.00    +0.200 C 
ENDBRANCH  25  26
ENDBRANCH  24  25
ENDBRANCH  17  24
ENDBRANCH   1  18
TORSDOF 8
