REMARK  Name = ZINCpe00000MHehW.0
REMARK                            x       y       z     vdW  Elec       q    Type
REMARK                         _______ _______ _______ _____ _____    ______ ____
ROOT
ATOM      1  C   LIG    1       -1.907   4.366   0.213  0.00  0.00    +0.180 A 
ATOM      2  C   LIG    1       -0.838   5.253   0.228  0.00  0.00    +0.010 A 
ATOM      3  C   LIG    1        0.456   4.780   0.122  0.00  0.00    +0.050 A 
ATOM      4  C   LIG    1        0.692   3.425   0.003  0.00  0.00    -0.030 A 
ATOM      5  C   LIG    1       -0.373   2.532  -0.011  0.00  0.00    +0.160 A 
ATOM      6  C   LIG    1       -1.674   3.004   0.088  0.00  0.00    -0.010 A 
ENDROOT
BRANCH   1  10
ATOM      7  N   LIG    1       -4.779   6.543  -0.042  0.00  0.00    -0.730 N 
ATOM      8  H   LIG    1       -5.425   6.063   0.499  0.00  0.00    +0.410 HD
ATOM      9  C   LIG    1       -3.549   6.027  -0.237  0.00  0.00    +0.710 C 
ATOM     10  N   LIG    1       -3.217   4.846   0.319  0.00  0.00    -0.680 N 
ATOM     11  H   LIG    1       -3.886   4.328   0.793  0.00  0.00    +0.410 HD
ATOM     12  O   LIG    1       -2.739   6.629  -0.916  0.00  0.00    -0.570 OA
BRANCH   7  13
ATOM     13  C   LIG    1       -5.140   7.827  -0.647  0.00  0.00    +0.320 C 
BRANCH  13  17
ATOM     14  N   LIG    1       -7.110   9.321  -0.724  0.00  0.00    -0.850 N 
ATOM     15  H   LIG    1       -8.023   9.545  -0.487  0.00  0.00    +0.410 HD
ATOM     16  H   LIG    1       -6.593   9.922  -1.284  0.00  0.00    +0.410 HD
ATOM     17  C   LIG    1       -6.559   8.175  -0.277  0.00  0.00    +0.510 C 
ATOM     18  O   LIG    1       -7.205   7.424   0.422  0.00  0.00    -0.540 OA
ENDBRANCH  13  17
ENDBRANCH   7  13
ENDBRANCH   1  10
BRANCH   5  19
ATOM     19  N   LIG    1       -0.134   1.159  -0.131  0.00  0.00    -0.670 N 
ATOM     20  H   LIG    1        0.600   0.841  -0.680  0.00  0.00    +0.410 HD
ATOM     21  C   LIG    1       -0.923   0.278   0.515  0.00  0.00    +0.580 C 
ATOM     22  O   LIG    1       -1.892   0.672   1.135  0.00  0.00    -0.530 OA
BRANCH  21  23
ATOM     23  C   LIG    1       -0.611  -1.162   0.470  0.00  0.00    -0.230 A 
ATOM     24  C   LIG    1        0.562  -1.608  -0.144  0.00  0.00    +0.090 A 
ATOM     25  C   LIG    1        0.853  -2.954  -0.179  0.00  0.00    -0.050 A 
ATOM     26  C   LIG    1       -0.018  -3.874   0.382  0.00  0.00    +0.070 A 
ATOM     27  C   LIG    1       -1.187  -3.451   0.989  0.00  0.00    +0.010 A 
ATOM     28  C   LIG    1       -1.493  -2.092   1.039  0.00  0.00    +0.270 A 
BRANCH  28  29
ATOM     29  N   LIG    1       -2.667  -1.661   1.648  0.00  0.00    -0.850 N 
ATOM     30  H   LIG    1       -3.312  -2.310   1.973  0.00  0.00    +0.400 HD
ATOM     31  H   LIG    1       -2.842  -0.712   1.748  0.00  0.00    +0.420 HD
ENDBRANCH  28  29
BRANCH  27  32
ATOM     32  O   LIG    1       -2.037  -4.360   1.538  0.00  0.00    -0.490 OA
ATOM     33  H   LIG    1       -2.708  -4.691   0.926  0.00  0.00    +0.380 HD
ENDBRANCH  27  32
ENDBRANCH  21  23
ENDBRANCH   5  19
TORSDOF 7
