REMARK  Name = ZINCtV00000L6jIC.0
REMARK                            x       y       z     vdW  Elec       q    Type
REMARK                         _______ _______ _______ _____ _____    ______ ____
ROOT
ATOM      1  N   LIG    1       -0.072   2.529  -2.274  0.00  0.00    -0.490 N 
ATOM      2  C   LIG    1       -1.058   1.647  -2.534  0.00  0.00    +0.470 A 
ATOM      3  N   LIG    1       -1.737   2.098  -3.609  0.00  0.00    -0.360 N 
ATOM      4  N   LIG    1       -1.131   3.294  -4.019  0.00  0.00    -0.230 NA
ATOM      5  S   LIG    1       -1.392   0.216  -1.656  0.00  0.00    -0.580 S 
ATOM      6  C   LIG    1       -0.137   3.540  -3.212  0.00  0.00    +0.300 A 
ENDROOT
BRANCH   6   7
ATOM      7  C   LIG    1        0.771   4.706  -3.290  0.00  0.00    -0.030 A 
ATOM      8  C   LIG    1        1.507   5.096  -2.171  0.00  0.00    +0.060 A 
ATOM      9  C   LIG    1        2.354   6.181  -2.250  0.00  0.00    +0.040 A 
ATOM     10  C   LIG    1        2.467   6.890  -3.434  0.00  0.00    -0.010 A 
ATOM     11  C   LIG    1        1.735   6.511  -4.547  0.00  0.00    +0.040 A 
ATOM     12 CL   LIG    1        3.531   8.259  -3.525  0.00  0.00    -0.050 Cl
ATOM     13  C   LIG    1        0.888   5.424  -4.480  0.00  0.00    +0.100 A 
ENDBRANCH   6   7
BRANCH   1  15
ATOM     14  C   LIG    1        0.317   3.043   0.085  0.00  0.00    +0.050 C 
ATOM     15  C   LIG    1        0.904   2.428  -1.187  0.00  0.00    +0.330 C 
ENDBRANCH   1  15
BRANCH   3  16
ATOM     16  C   LIG    1       -2.893   1.453  -4.237  0.00  0.00    +0.520 C 
BRANCH  16  17
ATOM     17  N   LIG    1       -2.474   0.811  -5.490  0.00  0.00    -0.530 NA
ATOM     18  C   LIG    1       -1.853  -0.495  -5.231  0.00  0.00    +0.220 C 
BRANCH  17  19
ATOM     19  C   LIG    1       -3.605   0.681  -6.418  0.00  0.00    +0.240 C 
ATOM     20  C   LIG    1       -3.124   0.042  -7.722  0.00  0.00    +0.080 C 
BRANCH  19  21
ATOM     21  C   LIG    1       -4.176   2.046  -6.709  0.00  0.00    +0.080 A 
ATOM     22  N   LIG    1       -3.470   3.079  -6.977  0.00  0.00    -0.420 NA
ATOM     23  C   LIG    1       -4.115   4.235  -7.220  0.00  0.00    +0.080 A 
ATOM     24  C   LIG    1       -3.596   5.506  -7.539  0.00  0.00    +0.070 A 
ATOM     25  C   LIG    1       -4.432   6.561  -7.744  0.00  0.00    +0.030 A 
ATOM     26  C   LIG    1       -5.808   6.408  -7.643  0.00  0.00    +0.040 A 
ATOM     27  C   LIG    1       -6.343   5.178  -7.332  0.00  0.00    +0.060 A 
ATOM     28  C   LIG    1       -5.503   4.087  -7.120  0.00  0.00    -0.180 A 
ATOM     29  S   LIG    1       -5.843   2.408  -6.714  0.00  0.00    +0.090 S 
ENDBRANCH  19  21
ENDBRANCH  17  19
ENDBRANCH  16  17
ENDBRANCH   3  16
TORSDOF 6
