REMARK  Name = ZINCkj00000dD3XH.1
REMARK                            x       y       z     vdW  Elec       q    Type
REMARK                         _______ _______ _______ _____ _____    ______ ____
ROOT
ATOM      1  C   LIG    1        3.631   5.894  -0.102  0.00  0.00    +0.220 C 
ENDROOT
BRANCH   1   2
ATOM      2  O   LIG    1        4.321   5.476   1.077  0.00  0.00    -0.540 OA
ATOM      3  H   LIG    1        3.889   5.741   1.901  0.00  0.00    +0.390 HD
ENDBRANCH   1   2
BRANCH   1   4
ATOM      4  C   LIG    1        3.528   7.420  -0.118  0.00  0.00    +0.250 C 
BRANCH   4   8
ATOM      5  N   LIG    1        6.876   9.714  -1.238  0.00  0.00    -0.540 NA
ATOM      6  C   LIG    1        6.957   8.255  -1.396  0.00  0.00    +0.210 C 
ATOM      7  C   LIG    1        5.546   7.665  -1.392  0.00  0.00    +0.270 C 
ATOM      8  N   LIG    1        4.877   8.002  -0.129  0.00  0.00    -0.380 N 
ATOM      9  C   LIG    1        4.781   9.462   0.002  0.00  0.00    +0.280 C 
ATOM     10  H   LIG    1        5.410   7.630   0.643  0.00  0.00    +0.430 HD
ATOM     11  C   LIG    1        6.187  10.067   0.011  0.00  0.00    +0.210 C 
BRANCH   5  13
ATOM     12  C   LIG    1        8.072  11.847  -1.378  0.00  0.00    +0.040 C 
ATOM     13  C   LIG    1        8.211  10.325  -1.294  0.00  0.00    +0.190 C 
ENDBRANCH   5  13
ENDBRANCH   4   8
ENDBRANCH   1   4
BRANCH   1  14
ATOM     14  C   LIG    1        2.227   5.288  -0.114  0.00  0.00    +0.190 C 
BRANCH  14  15
ATOM     15  O   LIG    1        2.322   3.866  -0.216  0.00  0.00    -0.300 OA
BRANCH  15  16
ATOM     16  C   LIG    1        1.156   3.169  -0.239  0.00  0.00    +0.110 A 
ATOM     17  C   LIG    1        1.175   1.785  -0.337  0.00  0.00    -0.010 A 
ATOM     18  C   LIG    1       -0.012   1.079  -0.361  0.00  0.00    +0.050 A 
ATOM     19  C   LIG    1       -1.219   1.751  -0.293  0.00  0.00    -0.110 A 
ATOM     20  C   LIG    1       -1.240   3.129  -0.190  0.00  0.00    +0.050 A 
ATOM     21  C   LIG    1       -2.513   0.978  -0.326  0.00  0.00    +0.090 C 
ATOM     22  C   LIG    1       -0.056   3.840  -0.165  0.00  0.00    -0.080 A 
ENDBRANCH  15  16
ENDBRANCH  14  15
ENDBRANCH   1  14
TORSDOF 7
