REMARK  Name = ZINCkj00000dD3XH.0
REMARK                            x       y       z     vdW  Elec       q    Type
REMARK                         _______ _______ _______ _____ _____    ______ ____
ROOT
ATOM      1  C   LIG    1        3.630   5.900   0.021  0.00  0.00    +0.230 C 
ENDROOT
BRANCH   1   2
ATOM      2  O   LIG    1        4.285   5.576   1.249  0.00  0.00    -0.540 OA
ATOM      3  H   LIG    1        3.829   5.905   2.036  0.00  0.00    +0.380 HD
ENDBRANCH   1   2
BRANCH   1   4
ATOM      4  C   LIG    1        3.528   7.420  -0.118  0.00  0.00    +0.170 C 
BRANCH   4   8
ATOM      5  N   LIG    1        6.899   9.789  -1.065  0.00  0.00    -0.390 N 
ATOM      6  C   LIG    1        6.955   8.353  -1.372  0.00  0.00    +0.280 C 
ATOM      7  C   LIG    1        5.535   7.787  -1.424  0.00  0.00    +0.200 C 
ATOM      8  N   LIG    1        4.877   8.002  -0.127  0.00  0.00    -0.530 NA
ATOM      9  C   LIG    1        4.836   9.433   0.205  0.00  0.00    +0.210 C 
ATOM     10  C   LIG    1        6.262   9.986   0.244  0.00  0.00    +0.270 C 
ATOM     11  H   LIG    1        6.363  10.264  -1.775  0.00  0.00    +0.420 HD
BRANCH   5  13
ATOM     12  C   LIG    1        8.213  11.800  -0.592  0.00  0.00    +0.080 C 
ATOM     13  C   LIG    1        8.262  10.336  -1.033  0.00  0.00    +0.250 C 
ENDBRANCH   5  13
ENDBRANCH   4   8
ENDBRANCH   1   4
BRANCH   1  14
ATOM     14  C   LIG    1        2.225   5.293   0.016  0.00  0.00    +0.170 C 
BRANCH  14  15
ATOM     15  O   LIG    1        2.323   3.867   0.029  0.00  0.00    -0.300 OA
BRANCH  15  16
ATOM     16  C   LIG    1        1.157   3.169   0.027  0.00  0.00    +0.120 A 
ATOM     17  C   LIG    1        1.178   1.782   0.038  0.00  0.00    -0.010 A 
ATOM     18  C   LIG    1       -0.009   1.075   0.036  0.00  0.00    +0.050 A 
ATOM     19  C   LIG    1       -1.217   1.748   0.018  0.00  0.00    -0.120 A 
ATOM     20  C   LIG    1       -1.240   3.130   0.012  0.00  0.00    +0.050 A 
ATOM     21  C   LIG    1       -2.509   0.974   0.010  0.00  0.00    +0.100 C 
ATOM     22  C   LIG    1       -0.056   3.842   0.014  0.00  0.00    -0.090 A 
ENDBRANCH  15  16
ENDBRANCH  14  15
ENDBRANCH   1  14
TORSDOF 7
