REMARK  Name = ZINCkj000005gks7.0
REMARK                            x       y       z     vdW  Elec       q    Type
REMARK                         _______ _______ _______ _____ _____    ______ ____
ROOT
ATOM      1  C   LIG    1        1.070   7.486  -2.158  0.00  0.00    +0.150 C 
ATOM      2  C   LIG    1        1.397   6.973  -0.745  0.00  0.00    +0.090 C 
ATOM      3  C   LIG    1        2.496   6.117  -1.396  0.00  0.00    +0.020 C 
ATOM      4  C   LIG    1        2.528   7.156  -2.530  0.00  0.00    -0.060 C 
ATOM      5  C   LIG    1        2.683   6.539  -3.921  0.00  0.00    +0.060 C 
ATOM      6  C   LIG    1        3.501   8.309  -2.278  0.00  0.00    +0.100 C 
ENDROOT
BRANCH   3   7
ATOM      7  N   LIG    1        2.033   4.791  -1.825  0.00  0.00    -0.480 N 
ATOM      8  H   LIG    1        1.235   4.894  -2.434  0.00  0.00    +0.420 HD
ATOM      9  H   LIG    1        2.775   4.319  -2.320  0.00  0.00    +0.430 HD
BRANCH   7  10
ATOM     10  C   LIG    1        1.650   4.001  -0.647  0.00  0.00    +0.400 C 
BRANCH  10  11
ATOM     11  C   LIG    1        1.045   2.695  -1.093  0.00  0.00    -0.000 A 
ATOM     12  N   LIG    1       -0.223   2.478  -1.331  0.00  0.00    -0.260 NA
ATOM     13  N   LIG    1       -0.372   1.142  -1.726  0.00  0.00    -0.350 N 
ATOM     14  C   LIG    1        0.848   0.565  -1.709  0.00  0.00    +0.260 A 
ATOM     15  C   LIG    1       -1.631   0.486  -2.090  0.00  0.00    +0.380 C 
ATOM     16  C   LIG    1        1.743   1.504  -1.324  0.00  0.00    -0.220 A 
ATOM     17  C   LIG    1        3.229   1.304  -1.172  0.00  0.00    +0.130 C 
ENDBRANCH  10  11
ENDBRANCH   7  10
ENDBRANCH   3   7
BRANCH   1  18
ATOM     18  O   LIG    1        0.767   8.882  -2.204  0.00  0.00    -0.350 OA
BRANCH  18  20
ATOM     19  C   LIG    1       -0.814  10.686  -2.497  0.00  0.00    +0.060 C 
ATOM     20  C   LIG    1       -0.607   9.171  -2.470  0.00  0.00    +0.150 C 
ENDBRANCH  18  20
ENDBRANCH   1  18
BRANCH   3  21
ATOM     21  C   LIG    1        3.790   6.059  -0.582  0.00  0.00    +0.250 C 
BRANCH  21  22
ATOM     22  O   LIG    1        3.560   5.332   0.627  0.00  0.00    -0.570 OA
ATOM     23  H   LIG    1        4.340   5.255   1.194  0.00  0.00    +0.410 HD
ENDBRANCH  21  22
ENDBRANCH   3  21
TORSDOF 7
