REMARK  Name = ZINCrD0000074vG5.0
REMARK                            x       y       z     vdW  Elec       q    Type
REMARK                         _______ _______ _______ _____ _____    ______ ____
ROOT
ATOM      1  N   LIG    1       -4.787   0.142   0.051  0.00  0.00    -0.580 N 
ATOM      2  C   LIG    1       -5.367   0.612  -1.210  0.00  0.00    +0.300 C 
ENDROOT
BRANCH   1   6
ATOM      3  C   LIG    1       -4.639   0.308   4.968  0.00  0.00    +0.130 C 
ATOM      4  C   LIG    1       -5.261   0.668   3.644  0.00  0.00    +0.210 A 
ATOM      5  C   LIG    1       -4.702   0.216   2.464  0.00  0.00    -0.170 A 
ATOM      6  C   LIG    1       -5.312   0.573   1.258  0.00  0.00    +0.460 A 
ATOM      7  N   LIG    1       -6.398   1.336   1.286  0.00  0.00    -0.570 NA
ATOM      8  C   LIG    1       -6.906   1.746   2.441  0.00  0.00    +0.410 A 
ATOM      9  N   LIG    1       -6.349   1.422   3.599  0.00  0.00    -0.550 NA
BRANCH   8  10
ATOM     10  C   LIG    1       -8.125   2.591   2.436  0.00  0.00    -0.050 A 
ATOM     11  C   LIG    1       -8.723   2.948   1.229  0.00  0.00    +0.070 A 
ATOM     12  C   LIG    1       -9.859   3.732   1.230  0.00  0.00    +0.000 A 
ATOM     13  C   LIG    1      -10.398   4.171   2.426  0.00  0.00    +0.020 A 
ATOM     14  C   LIG    1       -9.806   3.824   3.627  0.00  0.00    +0.000 A 
ATOM     15  C   LIG    1       -8.672   3.037   3.637  0.00  0.00    +0.070 A 
ENDBRANCH   8  10
ENDBRANCH   1   6
BRANCH   1  16
ATOM     16  C   LIG    1       -3.651  -0.783   0.034  0.00  0.00    +0.410 C 
BRANCH  16  17
ATOM     17  C   LIG    1       -2.364   0.002   0.026  0.00  0.00    +0.410 A 
ATOM     18  N   LIG    1       -2.434   1.304   0.034  0.00  0.00    -0.570 NA
ATOM     19  C   LIG    1       -1.329   2.074   0.032  0.00  0.00    +0.530 A 
ATOM     20  C   LIG    1       -0.017   1.403   0.010  0.00  0.00    -0.210 A 
ATOM     21  C   LIG    1        1.179   2.117   0.002  0.00  0.00    +0.110 A 
ATOM     22  C   LIG    1        2.376   1.433  -0.013  0.00  0.00    -0.010 A 
ATOM     23  C   LIG    1        2.394   0.046  -0.021  0.00  0.00    +0.080 A 
ATOM     24  C   LIG    1        1.218  -0.674  -0.013  0.00  0.00    -0.020 A 
ATOM     25  C   LIG    1        0.002  -0.004   0.002  0.00  0.00    +0.180 A 
ATOM     26  O   LIG    1       -1.412   3.290   0.040  0.00  0.00    -0.480 OA
ATOM     27  N   LIG    1       -1.204  -0.677   0.010  0.00  0.00    -0.620 N 
ATOM     28  H   LIG    1       -1.214  -1.647   0.006  0.00  0.00    +0.420 HD
ENDBRANCH  16  17
ENDBRANCH   1  16
TORSDOF 4
