REMARK  Name = ZINCrH000004k88I.2
REMARK                            x       y       z     vdW  Elec       q    Type
REMARK                         _______ _______ _______ _____ _____    ______ ____
ROOT
ATOM      1  C   LIG    1        2.451   3.936  -0.001  0.00  0.00    +0.250 C 
ENDROOT
BRANCH   1   2
ATOM      2  C   LIG    1        2.744   4.412  -1.400  0.00  0.00    -0.080 A 
ATOM      3  C   LIG    1        2.186   5.591  -1.860  0.00  0.00    +0.060 A 
ATOM      4  C   LIG    1        2.458   6.030  -3.142  0.00  0.00    +0.030 A 
ATOM      5  C   LIG    1        3.279   5.285  -3.969  0.00  0.00    -0.030 A 
ATOM      6  C   LIG    1        3.832   4.103  -3.510  0.00  0.00    +0.030 A 
ATOM      7 CL   LIG    1        3.615   5.832  -5.582  0.00  0.00    -0.070 Cl
ATOM      8  C   LIG    1        3.564   3.667  -2.226  0.00  0.00    +0.030 A 
ENDBRANCH   1   2
BRANCH   1   9
ATOM      9  C   LIG    1        1.156   3.166   0.007  0.00  0.00    -0.110 A 
ATOM     10  C   LIG    1        1.175   1.783   0.000  0.00  0.00    +0.030 A 
ATOM     11  C   LIG    1       -0.013   1.076   0.008  0.00  0.00    +0.020 A 
ATOM     12  C   LIG    1       -1.220   1.751   0.017  0.00  0.00    -0.030 A 
ATOM     13  C   LIG    1       -1.238   3.135   0.030  0.00  0.00    +0.030 A 
ATOM     14 CL   LIG    1       -2.712   0.864   0.020  0.00  0.00    -0.070 Cl
ATOM     15  C   LIG    1       -0.050   3.841   0.023  0.00  0.00    +0.070 A 
ENDBRANCH   1   9
BRANCH   1  16
ATOM     16  O   LIG    1        2.341   5.062   0.872  0.00  0.00    -0.360 OA
BRANCH  16  17
ATOM     17  C   LIG    1        2.734   4.794   2.219  0.00  0.00    +0.150 C 
BRANCH  17  18
ATOM     18  C   LIG    1        2.576   6.064   3.059  0.00  0.00    +0.230 C 
BRANCH  18  19
ATOM     19  O   LIG    1        1.193   6.417   3.132  0.00  0.00    -0.540 OA
ATOM     20  H   LIG    1        0.634   5.737   3.534  0.00  0.00    +0.370 HD
ENDBRANCH  18  19
BRANCH  18  21
ATOM     21  C   LIG    1        3.114   5.812   4.469  0.00  0.00    +0.160 C 
BRANCH  21  26
ATOM     22  C   LIG    1        3.703  10.333   7.804  0.00  0.00    +0.190 C 
ATOM     23  N   LIG    1        3.855   9.114   6.998  0.00  0.00    -0.550 NA
ATOM     24  C   LIG    1        2.998   8.035   7.508  0.00  0.00    +0.180 C 
ATOM     25  C   LIG    1        3.244   6.763   6.693  0.00  0.00    +0.180 C 
ATOM     26  N   LIG    1        2.962   7.031   5.276  0.00  0.00    -0.530 NA
ATOM     27  C   LIG    1        3.818   8.110   4.765  0.00  0.00    +0.170 C 
ATOM     28  C   LIG    1        3.572   9.382   5.581  0.00  0.00    +0.190 C 
ENDBRANCH  21  26
ENDBRANCH  18  21
ENDBRANCH  17  18
ENDBRANCH  16  17
ENDBRANCH   1  16
TORSDOF 8
