REMARK  Name = ZINCrD00000F5LDn.0
REMARK                            x       y       z     vdW  Elec       q    Type
REMARK                         _______ _______ _______ _____ _____    ______ ____
ROOT
ATOM      1  C   LIG    1        5.177   5.053  -0.243  0.00  0.00    +0.190 C 
ATOM      2  C   LIG    1        4.833   3.591  -0.121  0.00  0.00    +0.130 A 
ATOM      3  C   LIG    1        5.714   2.547  -0.087  0.00  0.00    -0.100 A 
ATOM      4  N   LIG    1        5.016   1.404   0.028  0.00  0.00    -0.200 NA
ATOM      5  N   LIG    1        3.757   1.671   0.074  0.00  0.00    -0.030 NA
ATOM      6  N   LIG    1        3.595   3.060  -0.025  0.00  0.00    -0.310 N 
ENDROOT
BRANCH   3   7
ATOM      7  C   LIG    1        7.183   2.655  -0.164  0.00  0.00    +0.620 C 
ATOM      8  N   LIG    1        7.944   1.544  -0.120  0.00  0.00    -0.610 N 
ATOM      9  C   LIG    1        7.445   0.153   0.010  0.00  0.00    +0.280 C 
ATOM     10  C   LIG    1        8.688  -0.727   0.090  0.00  0.00    -0.030 C 
ATOM     11  C   LIG    1        8.609  -2.098  -0.549  0.00  0.00    +0.040 C 
ATOM     12  C   LIG    1        9.985  -2.760  -0.371  0.00  0.00    +0.000 C 
ATOM     13  C   LIG    1       11.099  -1.915  -0.980  0.00  0.00    +0.000 C 
ATOM     14  C   LIG    1       11.083  -0.477  -0.434  0.00  0.00    +0.040 C 
ATOM     15  C   LIG    1        9.714   0.101  -0.742  0.00  0.00    -0.020 C 
ATOM     16  C   LIG    1        9.429   1.502  -0.187  0.00  0.00    +0.270 C 
ATOM     17  O   LIG    1        7.707   3.748  -0.268  0.00  0.00    -0.540 OA
ENDBRANCH   3   7
BRANCH   6  18
ATOM     18  C   LIG    1        2.383   3.762  -0.018  0.00  0.00    +0.140 A 
ATOM     19  C   LIG    1        2.224   4.863   0.792  0.00  0.00    +0.060 A 
ATOM     20  C   LIG    1        1.025   5.571   0.808  0.00  0.00    +0.030 A 
ATOM     21  C   LIG    1       -0.021   5.193   0.023  0.00  0.00    +0.070 A 
ATOM     22  C   LIG    1        0.102   4.074  -0.817  0.00  0.00    -0.100 A 
ATOM     23  C   LIG    1       -0.962   3.657  -1.640  0.00  0.00    +0.100 A 
ATOM     24  C   LIG    1       -0.769   2.564  -2.437  0.00  0.00    -0.030 A 
ATOM     25  C   LIG    1        0.449   1.890  -2.410  0.00  0.00    +0.300 A 
ATOM     26  N   LIG    1        1.436   2.281  -1.641  0.00  0.00    -0.460 NA
ATOM     27  C   LIG    1        1.316   3.345  -0.843  0.00  0.00    +0.140 A 
ENDBRANCH   6  18
TORSDOF 2
