REMARK  Name = ZINCtV00001bB3vf.0
REMARK                            x       y       z     vdW  Elec       q    Type
REMARK                         _______ _______ _______ _____ _____    ______ ____
ROOT
ATOM      1  C   LIG    1       -3.053   4.158   1.255  0.00  0.00    +0.300 A 
ATOM      2  N   LIG    1       -4.176   4.789   1.385  0.00  0.00    -0.440 NA
ATOM      3  C   LIG    1       -4.596   5.025   2.629  0.00  0.00    +0.100 A 
ATOM      4  C   LIG    1       -3.780   4.566   3.605  0.00  0.00    -0.050 A 
ATOM      5  S   LIG    1       -2.398   3.782   2.845  0.00  0.00    +0.100 S 
ENDROOT
BRANCH   1   8
ATOM      6  C   LIG    1       -2.410   3.797  -2.429  0.00  0.00    +0.110 C 
ATOM      7  C   LIG    1       -3.055   4.160  -1.117  0.00  0.00    +0.510 C 
ATOM      8  N   LIG    1       -2.458   3.824   0.044  0.00  0.00    -0.470 N 
ATOM      9  O   LIG    1       -4.113   4.754  -1.104  0.00  0.00    -0.460 OA
BRANCH   8  10
ATOM     10  C   LIG    1       -1.236   3.138   0.029  0.00  0.00    +0.090 A 
ATOM     11  C   LIG    1       -1.218   1.749   0.017  0.00  0.00    -0.060 A 
ATOM     12  C   LIG    1       -0.013   1.076   0.008  0.00  0.00    +0.010 A 
ATOM     13  C   LIG    1        1.176   1.783   0.000  0.00  0.00    +0.040 A 
ATOM     14  C   LIG    1        1.161   3.166   0.008  0.00  0.00    +0.010 A 
ATOM     15  C   LIG    1       -2.513   0.978   0.019  0.00  0.00    +0.100 C 
ATOM     16  C   LIG    1       -0.041   3.845   0.022  0.00  0.00    -0.060 A 
ATOM     17  C   LIG    1       -0.056   5.352   0.029  0.00  0.00    +0.110 C 
ENDBRANCH   8  10
ENDBRANCH   1   8
BRANCH   3  18
ATOM     18  C   LIG    1       -5.853   5.730   2.917  0.00  0.00    +0.150 C 
ATOM     19  C   LIG    1       -6.630   6.167   1.904  0.00  0.00    -0.030 C 
ATOM     20 CL   LIG    1       -6.144   5.896   0.260  0.00  0.00    +0.030 Cl
BRANCH  19  21
ATOM     21  C   LIG    1       -7.882   6.870   2.191  0.00  0.00    +0.150 A 
ATOM     22  N   LIG    1       -8.336   7.118   3.379  0.00  0.00    -0.460 NA
ATOM     23  C   LIG    1       -9.502   7.777   3.480  0.00  0.00    +0.080 A 
ATOM     24  C   LIG    1      -10.199   8.166   4.646  0.00  0.00    +0.080 A 
ATOM     25  C   LIG    1      -11.393   8.835   4.550  0.00  0.00    +0.030 A 
ATOM     26  C   LIG    1      -11.935   9.140   3.311  0.00  0.00    +0.040 A 
ATOM     27  C   LIG    1      -11.275   8.772   2.160  0.00  0.00    +0.060 A 
ATOM     28  C   LIG    1      -10.061   8.092   2.235  0.00  0.00    -0.180 A 
ATOM     29  S   LIG    1       -8.988   7.492   0.974  0.00  0.00    +0.100 S 
ENDBRANCH  19  21
ENDBRANCH   3  18
TORSDOF 4
