REMARK  Name = ZINCtV000002EyV1.0
REMARK                            x       y       z     vdW  Elec       q    Type
REMARK                         _______ _______ _______ _____ _____    ______ ____
ROOT
ATOM      1  C   LIG    1        1.401   1.607  -0.003  0.00  0.00    +0.460 A 
ATOM      2  N   LIG    1        1.634   2.794   0.485  0.00  0.00    -0.550 NA
ATOM      3  C   LIG    1        2.873   3.313   0.503  0.00  0.00    +0.540 A 
ATOM      4  C   LIG    1        3.986   2.511  -0.045  0.00  0.00    -0.220 A 
ATOM      5  C   LIG    1        3.680   1.262  -0.547  0.00  0.00    +0.050 A 
ATOM      6  S   LIG    1        5.139   0.488  -1.142  0.00  0.00    +0.170 S 
ATOM      7  C   LIG    1        6.136   1.865  -0.702  0.00  0.00    -0.190 A 
ATOM      8  C   LIG    1        7.636   1.945  -0.923  0.00  0.00    +0.120 C 
ATOM      9  C   LIG    1        8.074   3.407  -0.808  0.00  0.00    -0.010 C 
ATOM     10  C   LIG    1        9.601   3.483  -0.776  0.00  0.00    +0.030 C 
ATOM     11  C   LIG    1        7.502   3.998   0.485  0.00  0.00    +0.020 C 
ATOM     12  C   LIG    1        5.988   4.153   0.339  0.00  0.00    +0.110 C 
ATOM     13  C   LIG    1        5.403   2.833  -0.146  0.00  0.00    -0.030 A 
ATOM     14  O   LIG    1        3.074   4.426   0.963  0.00  0.00    -0.480 OA
ATOM     15  N   LIG    1        2.371   0.830  -0.509  0.00  0.00    -0.580 N 
ATOM     16  H   LIG    1        2.147  -0.048  -0.856  0.00  0.00    +0.420 HD
ENDROOT
BRANCH   1  18
ATOM     17  C   LIG    1       -0.753   1.593  -1.232  0.00  0.00    +0.090 C 
ATOM     18  C   LIG    1       -0.013   1.086   0.008  0.00  0.00    +0.070 C 
BRANCH  18  19
ATOM     19  S   LIG    1       -0.862   1.671   1.500  0.00  0.00    -0.140 S 
BRANCH  19  20
ATOM     20  C   LIG    1       -2.467   0.830   1.413  0.00  0.00    +0.120 C 
BRANCH  20  21
ATOM     21  C   LIG    1       -3.303   1.219   2.604  0.00  0.00    -0.060 A 
ATOM     22  C   LIG    1       -3.245   0.486   3.750  0.00  0.00    +0.040 A 
ATOM     23  C   LIG    1       -4.007   0.835   4.864  0.00  0.00    +0.010 A 
ATOM     24  C   LIG    1       -4.840   1.911   4.835  0.00  0.00    +0.030 A 
ATOM     25  C   LIG    1       -4.931   2.688   3.667  0.00  0.00    -0.050 A 
ATOM     26  C   LIG    1       -5.779   3.806   3.600  0.00  0.00    +0.020 A 
ATOM     27  C   LIG    1       -5.841   4.536   2.453  0.00  0.00    +0.000 A 
ATOM     28  C   LIG    1       -5.076   4.191   1.341  0.00  0.00    +0.010 A 
ATOM     29  C   LIG    1       -4.243   3.115   1.370  0.00  0.00    +0.030 A 
ATOM     30  C   LIG    1       -4.152   2.337   2.537  0.00  0.00    -0.030 A 
ENDBRANCH  20  21
ENDBRANCH  19  20
ENDBRANCH  18  19
ENDBRANCH   1  18
TORSDOF 4
