REMARK  Name = ZINCrD000000gVQr.0
REMARK                            x       y       z     vdW  Elec       q    Type
REMARK                         _______ _______ _______ _____ _____    ______ ____
ROOT
ATOM      1  N   LIG    1       -2.942   0.775   1.402  0.00  0.00    -0.700 N 
ATOM      2  H   LIG    1       -2.390   1.083   2.138  0.00  0.00    +0.420 HD
ENDROOT
BRANCH   1   9
ATOM      3  C   LIG    1       -7.011  -1.531   0.090  0.00  0.00    +0.220 A 
ATOM      4  N   LIG    1       -7.931  -2.061   0.859  0.00  0.00    -0.260 NA
ATOM      5  N   LIG    1       -7.623  -1.896   2.098  0.00  0.00    -0.250 NA
ATOM      6  C   LIG    1       -6.475  -1.243   2.179  0.00  0.00    +0.110 A 
ATOM      7  C   LIG    1       -5.680  -0.799   3.253  0.00  0.00    +0.190 A 
ATOM      8  C   LIG    1       -4.522  -0.138   2.991  0.00  0.00    -0.020 A 
ATOM      9  C   LIG    1       -4.129   0.097   1.658  0.00  0.00    +0.420 A 
ATOM     10  N   LIG    1       -4.871  -0.312   0.656  0.00  0.00    -0.330 NA
ATOM     11  N   LIG    1       -6.064  -0.999   0.892  0.00  0.00    -0.270 N 
BRANCH   3  13
ATOM     12  C   LIG    1       -5.765  -2.244  -1.931  0.00  0.00    +0.050 C 
ATOM     13  C   LIG    1       -7.010  -1.519  -1.417  0.00  0.00    +0.020 C 
ATOM     14  C   LIG    1       -7.000  -0.072  -1.915  0.00  0.00    +0.050 C 
ATOM     15  C   LIG    1       -8.263  -2.228  -1.933  0.00  0.00    +0.080 C 
ENDBRANCH   3  13
ENDBRANCH   1   9
BRANCH   1  16
ATOM     16  C   LIG    1       -2.524   1.023   0.020  0.00  0.00    +0.340 C 
BRANCH  16  17
ATOM     17  C   LIG    1       -1.215   1.769   0.017  0.00  0.00    -0.200 A 
ATOM     18  C   LIG    1       -0.013   1.076   0.008  0.00  0.00    +0.130 A 
ATOM     19  C   LIG    1        1.167   1.800   0.001  0.00  0.00    -0.030 A 
ATOM     20  C   LIG    1        1.109   3.187   0.008  0.00  0.00    +0.330 A 
ATOM     21  N   LIG    1       -0.057   3.813   0.023  0.00  0.00    -0.540 NA
ATOM     22  C   LIG    1       -1.198   3.150   0.030  0.00  0.00    +0.340 A 
BRANCH  20  23
ATOM     23  O   LIG    1        2.258   3.909   0.001  0.00  0.00    -0.290 OA
BRANCH  23  24
ATOM     24  C   LIG    1        2.131   5.332   0.009  0.00  0.00    +0.270 C 
BRANCH  24  25
ATOM     25  C   LIG    1        3.522   5.968  -0.000  0.00  0.00    +0.460 C 
ATOM     26  F   LIG    1        4.231   5.557   1.133  0.00  0.00    -0.170 F 
ATOM     27  F   LIG    1        3.397   7.362   0.008  0.00  0.00    -0.170 F 
ATOM     28  F   LIG    1        4.210   5.568  -1.151  0.00  0.00    -0.170 F 
ENDBRANCH  24  25
ENDBRANCH  23  24
ENDBRANCH  20  23
ENDBRANCH  16  17
ENDBRANCH   1  16
TORSDOF 7
