REMARK  Name = ZINCtV000002wz6F.0
REMARK                            x       y       z     vdW  Elec       q    Type
REMARK                         _______ _______ _______ _____ _____    ______ ____
ROOT
ATOM      1  C   LIG    1       -1.254  -0.752   0.010  0.00  0.00    -0.180 A 
ATOM      2  C   LIG    1       -1.920  -1.129  -1.127  0.00  0.00    +0.040 A 
ATOM      3  S   LIG    1       -3.342  -1.987  -0.746  0.00  0.00    +0.330 S 
ATOM      4  C   LIG    1       -3.066  -1.842   0.981  0.00  0.00    -0.080 A 
ATOM      5  C   LIG    1       -1.934  -1.171   1.225  0.00  0.00    -0.010 A 
ENDROOT
BRANCH   5   6
ATOM      6  C   LIG    1       -1.428  -0.884   2.588  0.00  0.00    -0.020 A 
ATOM      7  C   LIG    1       -0.107  -1.181   2.921  0.00  0.00    +0.040 A 
ATOM      8  C   LIG    1        0.361  -0.907   4.190  0.00  0.00    +0.050 A 
ATOM      9  C   LIG    1       -0.483  -0.350   5.136  0.00  0.00    -0.090 A 
ATOM     10  C   LIG    1       -1.797  -0.058   4.812  0.00  0.00    +0.050 A 
ATOM     11 BR   LIG    1        0.163   0.015   6.875  0.00  0.00    -0.050 Br
ATOM     12  C   LIG    1       -2.273  -0.323   3.545  0.00  0.00    +0.050 A 
ENDBRANCH   5   6
BRANCH   2  13
ATOM     13  N   LIG    1       -1.493  -0.853  -2.414  0.00  0.00    -0.620 N 
ATOM     14  H   LIG    1       -0.669  -0.359  -2.556  0.00  0.00    +0.420 HD
ATOM     15  C   LIG    1       -2.220  -1.268  -3.470  0.00  0.00    +0.600 C 
ATOM     16  O   LIG    1       -3.253  -1.886  -3.291  0.00  0.00    -0.480 OA
BRANCH  15  17
ATOM     17  C   LIG    1       -1.767  -0.974  -4.835  0.00  0.00    -0.040 A 
ATOM     18  C   LIG    1       -2.413  -1.346  -5.971  0.00  0.00    +0.100 A 
ATOM     19  C   LIG    1       -1.607  -0.839  -7.081  0.00  0.00    -0.150 A 
ATOM     20  C   LIG    1       -1.726  -0.886  -8.472  0.00  0.00    +0.090 A 
ATOM     21  C   LIG    1       -0.769  -0.302  -9.253  0.00  0.00    +0.000 A 
ATOM     22  C   LIG    1        0.319   0.336  -8.674  0.00  0.00    +0.070 A 
ATOM     23  C   LIG    1        0.455   0.393  -7.304  0.00  0.00    +0.030 A 
ATOM     24  C   LIG    1       -0.505  -0.194  -6.488  0.00  0.00    +0.080 A 
ATOM     25  O   LIG    1       -0.642  -0.299  -5.152  0.00  0.00    -0.190 OA
ENDBRANCH  15  17
ENDBRANCH   2  13
BRANCH   1  26
ATOM     26  C   LIG    1        0.002  -0.004   0.002  0.00  0.00    +0.540 C 
ATOM     27  O   LIG    1        1.064  -0.598  -0.011  0.00  0.00    -0.490 OA
BRANCH  26  28
ATOM     28  O   LIG    1       -0.016   1.345   0.009  0.00  0.00    -0.340 OA
BRANCH  28  30
ATOM     29  C   LIG    1        1.027   3.525   0.011  0.00  0.00    +0.070 C 
ATOM     30  C   LIG    1        1.248   2.011   0.001  0.00  0.00    +0.200 C 
ENDBRANCH  28  30
ENDBRANCH  26  28
ENDBRANCH   1  26
TORSDOF 6
