REMARK  Name = ZINCvU000000058b.0
REMARK                            x       y       z     vdW  Elec       q    Type
REMARK                         _______ _______ _______ _____ _____    ______ ____
ROOT
ATOM      1  C   LIG    1       10.091   3.242  -0.089  0.00  0.00    -0.660 A 
ATOM      2  C   LIG    1       10.929   2.153  -0.242  0.00  0.00    +0.110 A 
ATOM      3  C   LIG    1       10.421   0.869  -0.162  0.00  0.00    +0.020 A 
ATOM      4  C   LIG    1        9.075   0.671   0.076  0.00  0.00    +0.060 A 
ATOM      5  C   LIG    1        8.230   1.764   0.225  0.00  0.00    +0.120 A 
ATOM      6  C   LIG    1        8.744   3.051   0.145  0.00  0.00    +0.140 A 
ENDROOT
BRANCH   5   7
ATOM      7  N   LIG    1        6.866   1.567   0.462  0.00  0.00    -0.660 N 
ATOM      8  H   LIG    1        6.570   0.816   1.000  0.00  0.00    +0.420 HD
ATOM      9  C   LIG    1        5.962   2.420  -0.059  0.00  0.00    +0.600 C 
ATOM     10  O   LIG    1        6.335   3.408  -0.664  0.00  0.00    -0.490 OA
BRANCH   9  11
ATOM     11  C   LIG    1        4.525   2.159   0.104  0.00  0.00    -0.050 A 
ATOM     12  C   LIG    1        3.528   2.946  -0.376  0.00  0.00    -0.060 A 
ATOM     13  C   LIG    1        2.276   2.301   0.022  0.00  0.00    -0.150 A 
ATOM     14  C   LIG    1        0.925   2.603  -0.161  0.00  0.00    +0.080 A 
ATOM     15  C   LIG    1       -0.030   1.770   0.351  0.00  0.00    -0.010 A 
ATOM     16  C   LIG    1        0.334   0.628   1.050  0.00  0.00    +0.060 A 
ATOM     17  C   LIG    1        1.662   0.312   1.241  0.00  0.00    +0.030 A 
ATOM     18  C   LIG    1        2.652   1.144   0.730  0.00  0.00    +0.080 A 
ATOM     19  C   LIG    1        3.680   4.224  -1.159  0.00  0.00    +0.140 C 
ATOM     20  O   LIG    1        3.998   1.100   0.754  0.00  0.00    -0.190 OA
ENDBRANCH   9  11
ENDBRANCH   5   7
BRANCH   1  21
ATOM     21  S   LIG    1       10.744   4.876  -0.190  0.00  0.00    +2.690 S 
ATOM     22  O   LIG    1        9.659   5.720  -0.547  0.00  0.00    -0.930 OA
ATOM     23  O   LIG    1       11.940   4.783  -0.952  0.00  0.00    -0.940 OA
BRANCH  21  24
ATOM     24  N   LIG    1       11.198   5.319   1.340  0.00  0.00    -1.060 N 
ATOM     25  H   LIG    1       10.794   6.094   1.760  0.00  0.00    +0.430 HD
BRANCH  24  31
ATOM     26  C   LIG    1       15.337   2.670   1.269  0.00  0.00    +0.110 C 
ATOM     27  C   LIG    1       14.179   3.279   2.017  0.00  0.00    -0.030 A 
ATOM     28  C   LIG    1       14.070   3.102   3.384  0.00  0.00    +0.010 A 
ATOM     29  C   LIG    1       13.009   3.659   4.074  0.00  0.00    +0.070 A 
ATOM     30  C   LIG    1       12.055   4.395   3.400  0.00  0.00    -0.130 A 
ATOM     31  C   LIG    1       12.161   4.575   2.026  0.00  0.00    +0.190 A 
ATOM     32  I   LIG    1       10.448   5.239   4.446  0.00  0.00    -0.030 I 
ATOM     33  C   LIG    1       13.225   4.009   1.335  0.00  0.00    +0.000 A 
ENDBRANCH  24  31
ENDBRANCH  21  24
ENDBRANCH   1  21
TORSDOF 5
