REMARK  Name = ZINCpe00000gM6LK.0
REMARK                            x       y       z     vdW  Elec       q    Type
REMARK                         _______ _______ _______ _____ _____    ______ ____
ROOT
ATOM      1  C   LIG    1       -2.227   5.741   3.841  0.00  0.00    -0.690 A 
ATOM      2  C   LIG    1       -1.587   5.235   2.730  0.00  0.00    +0.230 A 
ATOM      3  C   LIG    1       -1.481   3.853   2.557  0.00  0.00    -0.140 A 
ATOM      4  C   LIG    1       -2.015   2.993   3.519  0.00  0.00    +0.170 A 
ATOM      5  C   LIG    1       -2.648   3.511   4.629  0.00  0.00    +0.020 A 
ATOM      6  C   LIG    1       -2.754   4.882   4.791  0.00  0.00    +0.080 A 
ATOM      7 CL   LIG    1       -3.553   5.527   6.192  0.00  0.00    -0.030 Cl
ENDROOT
BRANCH   1   8
ATOM      8  S   LIG    1       -2.367   7.484   4.057  0.00  0.00    +2.690 S 
ATOM      9  O   LIG    1       -1.768   8.080   2.915  0.00  0.00    -0.940 OA
ATOM     10  O   LIG    1       -1.947   7.759   5.387  0.00  0.00    -0.930 OA
BRANCH   8  12
ATOM     11  C   LIG    1       -4.783   7.861   5.213  0.00  0.00    +0.300 C 
ATOM     12  N   LIG    1       -3.978   7.859   3.989  0.00  0.00    -1.000 NA
ATOM     13  C   LIG    1       -4.600   8.187   2.703  0.00  0.00    +0.310 C 
ENDBRANCH   8  12
ENDBRANCH   1   8
BRANCH   3  14
ATOM     14  C   LIG    1       -0.803   3.304   1.366  0.00  0.00    +0.510 C 
ATOM     15  O   LIG    1       -0.339   4.055   0.531  0.00  0.00    -0.480 OA
BRANCH  14  16
ATOM     16  O   LIG    1       -0.698   1.971   1.205  0.00  0.00    -0.340 OA
BRANCH  16  17
ATOM     17  C   LIG    1       -0.018   1.503   0.010  0.00  0.00    +0.300 C 
BRANCH  17  18
ATOM     18  C   LIG    1        0.002  -0.004   0.002  0.00  0.00    +0.530 C 
ATOM     19  N   LIG    1        0.585  -0.664  -1.018  0.00  0.00    -0.580 N 
ATOM     20  C   LIG    1        0.665  -2.126  -1.120  0.00  0.00    +0.280 C 
ATOM     21  C   LIG    1        0.998  -2.417  -2.602  0.00  0.00    +0.060 C 
ATOM     22  C   LIG    1        1.712  -1.112  -3.024  0.00  0.00    +0.090 C 
ATOM     23  C   LIG    1        1.173  -0.069  -2.070  0.00  0.00    +0.520 C 
ATOM     24  O   LIG    1        1.260   1.130  -2.230  0.00  0.00    -0.480 OA
ATOM     25  O   LIG    1       -0.506  -0.622   0.913  0.00  0.00    -0.470 OA
ENDBRANCH  17  18
ENDBRANCH  16  17
ENDBRANCH  14  16
ENDBRANCH   3  14
TORSDOF 6
