REMARK  Name = ZINCrg00000fSJcs.0
REMARK                            x       y       z     vdW  Elec       q    Type
REMARK                         _______ _______ _______ _____ _____    ______ ____
ROOT
ATOM      1  C   LIG    1       -0.833   0.616  -2.323  0.00  0.00    +0.530 C 
ATOM      2  N   LIG    1        0.307   0.299  -2.968  0.00  0.00    -0.610 N 
ATOM      3  C   LIG    1        1.603   0.840  -2.525  0.00  0.00    +0.250 C 
ATOM      4  C   LIG    1        2.589  -0.325  -2.384  0.00  0.00    +0.220 C 
ATOM      5  O   LIG    1        2.599  -1.084  -3.595  0.00  0.00    -0.360 OA
ATOM      6  C   LIG    1        1.345  -1.692  -3.914  0.00  0.00    +0.150 C 
ATOM      7  C   LIG    1        0.295  -0.602  -4.131  0.00  0.00    +0.270 C 
ATOM      8  O   LIG    1       -1.877   0.087  -2.643  0.00  0.00    -0.520 OA
ENDROOT
BRANCH   1  12
ATOM      9  O   LIG    1       -1.503   1.723   2.303  0.00  0.00    -0.520 OA
ATOM     10  C   LIG    1       -1.547   1.758   1.091  0.00  0.00    +0.520 C 
ATOM     11  C   LIG    1       -0.680   0.930   0.168  0.00  0.00    +0.080 C 
ATOM     12  C   LIG    1       -0.812   1.627  -1.206  0.00  0.00    -0.010 C 
ATOM     13  C   LIG    1       -2.179   2.333  -1.072  0.00  0.00    +0.300 C 
ATOM     14  N   LIG    1       -2.374   2.538   0.368  0.00  0.00    -0.610 N 
BRANCH  14  15
ATOM     15  C   LIG    1       -3.344   3.473   0.946  0.00  0.00    +0.380 C 
BRANCH  15  16
ATOM     16  C   LIG    1       -4.658   2.766   1.157  0.00  0.00    +0.100 A 
ATOM     17  C   LIG    1       -4.946   2.215   2.391  0.00  0.00    -0.010 A 
ATOM     18  C   LIG    1       -6.158   1.567   2.575  0.00  0.00    +0.060 A 
ATOM     19  C   LIG    1       -7.038   1.498   1.507  0.00  0.00    -0.030 A 
ATOM     20  C   LIG    1       -6.681   2.072   0.301  0.00  0.00    +0.260 A 
ATOM     21  N   LIG    1       -5.521   2.685   0.164  0.00  0.00    -0.470 NA
ENDBRANCH  15  16
ENDBRANCH  14  15
ENDBRANCH   1  12
BRANCH   6  22
ATOM     22  C   LIG    1        1.491  -2.525  -5.190  0.00  0.00    +0.200 C 
BRANCH  22  23
ATOM     23  O   LIG    1        2.388  -3.611  -4.950  0.00  0.00    -0.380 OA
BRANCH  23  24
ATOM     24  C   LIG    1        2.595  -4.455  -6.084  0.00  0.00    +0.190 C 
BRANCH  24  25
ATOM     25  C   LIG    1        3.566  -5.577  -5.714  0.00  0.00    -0.050 C 
ATOM     26  C   LIG    1        4.907  -5.622  -6.449  0.00  0.00    +0.020 C 
ATOM     27  C   LIG    1        3.828  -6.660  -6.763  0.00  0.00    +0.030 C 
ENDBRANCH  24  25
ENDBRANCH  23  24
ENDBRANCH  22  23
ENDBRANCH   6  22
TORSDOF 7
