REMARK  Name = ZINCpk00000jW1Ic.1
REMARK                            x       y       z     vdW  Elec       q    Type
REMARK                         _______ _______ _______ _____ _____    ______ ____
ROOT
ATOM      1  C   LIG    1       -1.736   4.222   5.566  0.00  0.00    +0.260 C 
ATOM      2  C   LIG    1       -2.599   3.625   6.692  0.00  0.00    +0.280 C 
ATOM      3  N   LIG    1       -2.700   5.004   7.209  0.00  0.00    -0.640 N 
ATOM      4  C   LIG    1       -2.931   5.543   8.422  0.00  0.00    +0.600 C 
ATOM      5  O   LIG    1       -2.860   6.747   8.576  0.00  0.00    -0.530 OA
ATOM      6  C   LIG    1       -2.447   5.555   5.864  0.00  0.00    +0.280 C 
ENDROOT
BRANCH   4   7
ATOM      7  C   LIG    1       -3.271   4.672   9.565  0.00  0.00    -0.220 A 
ATOM      8  C   LIG    1       -3.369   5.202  10.857  0.00  0.00    +0.380 A 
ATOM      9  N   LIG    1       -3.675   4.445  11.886  0.00  0.00    -0.500 NA
ATOM     10  C   LIG    1       -3.896   3.142  11.756  0.00  0.00    +0.300 A 
ATOM     11  N   LIG    1       -4.219   2.155  12.652  0.00  0.00    -0.580 N 
ATOM     12  H   LIG    1       -4.343   2.289  13.605  0.00  0.00    +0.420 HD
ATOM     13  C   LIG    1       -4.340   0.954  12.007  0.00  0.00    +0.240 A 
ATOM     14  C   LIG    1       -4.105   1.113  10.695  0.00  0.00    -0.030 A 
ATOM     15  C   LIG    1       -3.810   2.533  10.487  0.00  0.00    -0.160 A 
ATOM     16  C   LIG    1       -3.493   3.306   9.373  0.00  0.00    +0.150 A 
ENDBRANCH   4   7
BRANCH   1  18
ATOM     17  C   LIG    1       -3.418   3.350   3.878  0.00  0.00    +0.290 C 
ATOM     18  N   LIG    1       -2.037   3.676   4.240  0.00  0.00    -0.610 N 
ATOM     19  C   LIG    1       -1.042   3.474   3.353  0.00  0.00    +0.520 C 
ATOM     20  O   LIG    1        0.102   3.744   3.653  0.00  0.00    -0.520 OA
BRANCH  19  21
ATOM     21  C   LIG    1       -1.351   2.913   1.989  0.00  0.00    +0.090 C 
BRANCH  21  22
ATOM     22  C   LIG    1       -0.056   2.784   1.186  0.00  0.00    +0.170 C 
ATOM     23  C   LIG    1       -0.357   2.327  -0.265  0.00  0.00    +0.010 C 
ATOM     24  C   LIG    1        0.980   1.664  -0.680  0.00  0.00    +0.000 C 
ATOM     25  C   LIG    1        1.666   1.327   0.658  0.00  0.00    +0.190 C 
ATOM     26  O   LIG    1        0.771   1.720   1.712  0.00  0.00    -0.360 OA
ENDBRANCH  21  22
ENDBRANCH  19  21
ENDBRANCH   1  18
TORSDOF 4
