REMARK  Name = ZINCpk00000jW1Ic.0
REMARK                            x       y       z     vdW  Elec       q    Type
REMARK                         _______ _______ _______ _____ _____    ______ ____
ROOT
ATOM      1  C   LIG    1        2.636   7.077   0.459  0.00  0.00    +0.250 C 
ATOM      2  C   LIG    1        3.585   6.084  -0.227  0.00  0.00    +0.290 C 
ATOM      3  N   LIG    1        2.531   5.067  -0.098  0.00  0.00    -0.640 N 
ATOM      4  C   LIG    1        2.485   3.723  -0.002  0.00  0.00    +0.610 C 
ATOM      5  O   LIG    1        3.515   3.084   0.088  0.00  0.00    -0.540 OA
ATOM      6  C   LIG    1        1.548   6.161  -0.125  0.00  0.00    +0.280 C 
ENDROOT
BRANCH   4   7
ATOM      7  C   LIG    1        1.183   3.027  -0.007  0.00  0.00    -0.240 A 
ATOM      8  C   LIG    1        1.132   1.663   0.228  0.00  0.00    +0.400 A 
ATOM      9  N   LIG    1       -0.021   0.985   0.234  0.00  0.00    -0.490 N 
ATOM     10  H   LIG    1       -0.016   0.030   0.403  0.00  0.00    +0.430 HD
ATOM     11  C   LIG    1       -1.212   1.626  -0.001  0.00  0.00    +0.240 A 
ATOM     12  N   LIG    1       -2.474   1.243  -0.052  0.00  0.00    -0.520 NA
ATOM     13  C   LIG    1       -3.276   2.277  -0.312  0.00  0.00    +0.220 A 
ATOM     14  C   LIG    1       -2.561   3.423  -0.444  0.00  0.00    -0.080 A 
ATOM     15  C   LIG    1       -1.204   3.074  -0.250  0.00  0.00    -0.160 A 
ATOM     16  C   LIG    1        0.005   3.753  -0.251  0.00  0.00    +0.190 A 
ENDBRANCH   4   7
BRANCH   1  18
ATOM     17  C   LIG    1        2.422   5.846   2.667  0.00  0.00    +0.280 C 
ATOM     18  N   LIG    1        2.716   7.072   1.922  0.00  0.00    -0.600 N 
ATOM     19  C   LIG    1        3.061   8.195   2.582  0.00  0.00    +0.520 C 
ATOM     20  O   LIG    1        3.304   9.210   1.964  0.00  0.00    -0.520 OA
BRANCH  19  21
ATOM     21  C   LIG    1        3.143   8.190   4.086  0.00  0.00    +0.050 C 
BRANCH  21  22
ATOM     22  C   LIG    1        3.551   9.580   4.579  0.00  0.00    +0.190 C 
ATOM     23  C   LIG    1        3.755   9.554   6.109  0.00  0.00    +0.020 C 
ATOM     24  C   LIG    1        3.152  10.919   6.544  0.00  0.00    +0.000 C 
ATOM     25  C   LIG    1        1.999  11.072   5.521  0.00  0.00    +0.200 C 
ATOM     26  O   LIG    1        2.509  10.521   4.296  0.00  0.00    -0.360 OA
ENDBRANCH  21  22
ENDBRANCH  19  21
ENDBRANCH   1  18
TORSDOF 4
