REMARK  Name = ZINCrH000004mQyF.0
REMARK                            x       y       z     vdW  Elec       q    Type
REMARK                         _______ _______ _______ _____ _____    ______ ____
ROOT
ATOM      1  C   LIG    1        7.684   1.196  -0.535  0.00  0.00    -0.010 C 
ATOM      2  C   LIG    1        7.863   0.389   0.752  0.00  0.00    +0.080 C 
ENDROOT
BRANCH   1   5
ATOM      3  N   LIG    1        9.980   1.532  -1.393  0.00  0.00    -0.670 N 
ATOM      4  H   LIG    1        9.944   0.633  -1.755  0.00  0.00    +0.410 HD
ATOM      5  C   LIG    1        8.904   2.050  -0.766  0.00  0.00    +0.540 C 
ATOM      6  O   LIG    1        8.919   3.202  -0.389  0.00  0.00    -0.490 OA
BRANCH   3  10
ATOM      7  C   LIG    1       13.458   3.804  -1.780  0.00  0.00    +0.090 A 
ATOM      8  C   LIG    1       12.218   4.418  -1.841  0.00  0.00    -0.010 A 
ATOM      9  C   LIG    1       11.066   3.665  -1.718  0.00  0.00    +0.040 A 
ATOM     10  C   LIG    1       11.149   2.293  -1.522  0.00  0.00    +0.140 A 
ATOM     11  C   LIG    1       12.390   1.675  -1.461  0.00  0.00    -0.060 A 
ATOM     12  C   LIG    1       13.545   2.428  -1.589  0.00  0.00    +0.120 A 
BRANCH   7  14
ATOM     13  C   LIG    1       14.428   5.953  -2.099  0.00  0.00    +0.240 C 
ATOM     14  O   LIG    1       14.591   4.546  -1.907  0.00  0.00    -0.310 OA
ENDBRANCH   7  14
BRANCH  12  15
ATOM     15  O   LIG    1       14.762   1.825  -1.529  0.00  0.00    -0.300 OA
ATOM     16  C   LIG    1       14.775   0.409  -1.332  0.00  0.00    +0.230 C 
ENDBRANCH  12  15
ENDBRANCH   3  10
ENDBRANCH   1   5
BRANCH   1  17
ATOM     17  S   LIG    1        6.222   2.260  -0.384  0.00  0.00    -0.090 S 
BRANCH  17  18
ATOM     18  C   LIG    1        4.860   1.067  -0.267  0.00  0.00    +0.090 C 
BRANCH  18  19
ATOM     19  C   LIG    1        3.554   1.807  -0.134  0.00  0.00    +0.530 C 
ATOM     20  N   LIG    1        2.399   1.121  -0.032  0.00  0.00    -0.670 N 
ATOM     21  H   LIG    1        2.413   0.153   0.025  0.00  0.00    +0.410 HD
ATOM     22  O   LIG    1        3.543   3.020  -0.120  0.00  0.00    -0.490 OA
BRANCH  20  23
ATOM     23  C   LIG    1        1.179   1.806  -0.006  0.00  0.00    +0.130 A 
ATOM     24  C   LIG    1        0.056   1.251  -0.606  0.00  0.00    -0.010 A 
ATOM     25  C   LIG    1       -1.145   1.933  -0.584  0.00  0.00    +0.030 A 
ATOM     26  C   LIG    1       -1.233   3.162   0.044  0.00  0.00    -0.100 A 
ATOM     27  C   LIG    1       -0.117   3.717   0.642  0.00  0.00    +0.030 A 
ATOM     28  C   LIG    1       -2.547   3.900   0.071  0.00  0.00    +0.090 C 
ATOM     29  C   LIG    1        1.088   3.043   0.619  0.00  0.00    +0.030 A 
ENDBRANCH  20  23
ENDBRANCH  18  19
ENDBRANCH  17  18
ENDBRANCH   1  17
TORSDOF 8
