REMARK  Name = ZINCtV00000m8ZNa.0
REMARK                            x       y       z     vdW  Elec       q    Type
REMARK                         _______ _______ _______ _____ _____    ______ ____
ROOT
ATOM      1  O   LIG    1        3.502  -2.009  -1.220  0.00  0.00    -0.570 OA
ATOM      2  C   LIG    1        3.176  -1.971  -0.049  0.00  0.00    +0.710 C 
ATOM      3  N   LIG    1        2.235  -1.097   0.361  0.00  0.00    -0.730 N 
ATOM      4  H   LIG    1        1.975  -1.067   1.295  0.00  0.00    +0.400 HD
ATOM      5  N   LIG    1        3.756  -2.803   0.839  0.00  0.00    -0.690 N 
ATOM      6  H   LIG    1        3.553  -2.721   1.784  0.00  0.00    +0.410 HD
ENDROOT
BRANCH   5   7
ATOM      7  C   LIG    1        4.650  -3.784   0.398  0.00  0.00    +0.200 A 
ATOM      8  C   LIG    1        4.464  -4.390  -0.838  0.00  0.00    +0.030 A 
ATOM      9  C   LIG    1        5.351  -5.355  -1.273  0.00  0.00    +0.090 A 
ATOM     10  C   LIG    1        6.418  -5.726  -0.474  0.00  0.00    -0.200 A 
ATOM     11  C   LIG    1        6.602  -5.129   0.759  0.00  0.00    +0.090 A 
ATOM     12  C   LIG    1        5.721  -4.160   1.197  0.00  0.00    -0.010 A 
BRANCH  10  13
ATOM     13  C   LIG    1        7.380  -6.784  -0.949  0.00  0.00    +0.510 C 
ATOM     14  F   LIG    1        8.647  -6.537  -0.409  0.00  0.00    -0.180 F 
ATOM     15  F   LIG    1        7.455  -6.753  -2.346  0.00  0.00    -0.180 F 
ATOM     16  F   LIG    1        6.933  -8.042  -0.534  0.00  0.00    -0.180 F 
ENDBRANCH  10  13
ENDBRANCH   5   7
BRANCH   3  17
ATOM     17  C   LIG    1        1.605  -0.193  -0.605  0.00  0.00    +0.270 C 
ATOM     18  C   LIG    1        2.437   1.100  -0.740  0.00  0.00    +0.020 C 
ATOM     19  C   LIG    1        1.752   2.095   0.229  0.00  0.00    +0.010 C 
ATOM     20  C   LIG    1        0.249   1.765   0.052  0.00  0.00    +0.050 C 
ATOM     21  C   LIG    1        0.214   0.230  -0.101  0.00  0.00    +0.010 C 
BRANCH  21  22
ATOM     22  C   LIG    1       -0.840  -0.165  -1.102  0.00  0.00    -0.020 A 
ATOM     23  C   LIG    1       -0.778   0.315  -2.397  0.00  0.00    +0.020 A 
ATOM     24  C   LIG    1       -1.746  -0.048  -3.316  0.00  0.00    +0.060 A 
ATOM     25  C   LIG    1       -2.775  -0.891  -2.939  0.00  0.00    +0.020 A 
ATOM     26  C   LIG    1       -2.837  -1.371  -1.644  0.00  0.00    +0.070 A 
ATOM     27  C   LIG    1       -1.867  -1.012  -0.728  0.00  0.00    -0.180 A 
BRANCH  27  28
ATOM     28  C   LIG    1       -1.931  -1.541   0.682  0.00  0.00    +0.510 C 
ATOM     29  F   LIG    1       -2.032  -0.470   1.577  0.00  0.00    -0.180 F 
ATOM     30  F   LIG    1       -0.770  -2.272   0.960  0.00  0.00    -0.180 F 
ATOM     31  F   LIG    1       -3.049  -2.370   0.819  0.00  0.00    -0.180 F 
ENDBRANCH  27  28
ENDBRANCH  21  22
ENDBRANCH   3  17
TORSDOF 5
