REMARK  Name = ZINCrD000000CH7R.0
REMARK                            x       y       z     vdW  Elec       q    Type
REMARK                         _______ _______ _______ _____ _____    ______ ____
ROOT
ATOM      1  O   LIG    1        1.930  -0.898  -2.775  0.00  0.00    -0.520 OA
ATOM      2  C   LIG    1        1.671  -0.322  -1.736  0.00  0.00    +0.590 C 
ATOM      3  N   LIG    1        0.456  -0.466  -1.171  0.00  0.00    -0.610 N 
ATOM      4  C   LIG    1       -0.608  -1.374  -1.639  0.00  0.00    +0.270 C 
ATOM      5  C   LIG    1       -1.484  -1.636  -0.388  0.00  0.00    +0.040 C 
ATOM      6  C   LIG    1       -1.457  -0.249   0.307  0.00  0.00    +0.050 C 
ATOM      7  C   LIG    1       -0.029   0.258   0.013  0.00  0.00    +0.210 C 
ENDROOT
BRANCH   2   8
ATOM      8  C   LIG    1        2.688   0.534  -1.093  0.00  0.00    -0.250 A 
ATOM      9  C   LIG    1        2.423   1.174   0.125  0.00  0.00    +0.350 A 
ATOM     10  N   LIG    1        3.360   1.927   0.669  0.00  0.00    -0.520 NA
ATOM     11  C   LIG    1        4.535   2.090   0.074  0.00  0.00    +0.390 A 
ATOM     12  N   LIG    1        4.822   1.505  -1.081  0.00  0.00    -0.480 NA
ATOM     13  C   LIG    1        3.941   0.733  -1.688  0.00  0.00    +0.400 A 
BRANCH  11  14
ATOM     14  C   LIG    1        5.556   2.950   0.720  0.00  0.00    +0.160 A 
ATOM     15  C   LIG    1        5.269   3.571   1.933  0.00  0.00    +0.030 A 
ATOM     16  C   LIG    1        6.233   4.372   2.524  0.00  0.00    +0.060 A 
ATOM     17  C   LIG    1        7.451   4.525   1.880  0.00  0.00    -0.010 A 
ATOM     18  C   LIG    1        7.668   3.878   0.675  0.00  0.00    +0.260 A 
ATOM     19  N   LIG    1        6.737   3.119   0.139  0.00  0.00    -0.440 NA
ENDBRANCH  11  14
ENDBRANCH   2   8
BRANCH   7  20
ATOM     20  C   LIG    1       -0.059   1.761  -0.271  0.00  0.00    -0.010 C 
BRANCH  20  21
ATOM     21  C   LIG    1       -0.468   2.512   0.998  0.00  0.00    +0.310 C 
BRANCH  21  22
ATOM     22  C   LIG    1       -0.583   3.984   0.695  0.00  0.00    -0.220 A 
ATOM     23  C   LIG    1       -1.724   4.633   0.460  0.00  0.00    +0.020 A 
ATOM     24  C   LIG    1       -1.583   5.987   0.208  0.00  0.00    +0.000 A 
ATOM     25  C   LIG    1       -0.327   6.435   0.229  0.00  0.00    -0.030 A 
ATOM     26  S   LIG    1        0.767   5.106   0.589  0.00  0.00    +0.110 S 
ENDBRANCH  21  22
BRANCH  21  27
ATOM     27  O   LIG    1        0.520   2.310   2.010  0.00  0.00    -0.550 OA
ATOM     28  H   LIG    1        1.402   2.621   1.767  0.00  0.00    +0.380 HD
ENDBRANCH  21  27
ENDBRANCH  20  21
ENDBRANCH   7  20
TORSDOF 6
