REMARK  Name = ZINCpk00000xRj3u.0
REMARK                            x       y       z     vdW  Elec       q    Type
REMARK                         _______ _______ _______ _____ _____    ______ ____
ROOT
ATOM      1  C   LIG    1       -2.610   5.806   2.811  0.00  0.00    +0.580 C 
ATOM      2  N   LIG    1       -2.562   4.712   2.025  0.00  0.00    -0.620 N 
ATOM      3  C   LIG    1       -3.003   4.644   0.624  0.00  0.00    +0.240 C 
ATOM      4  C   LIG    1       -2.735   3.208   0.129  0.00  0.00    +0.050 C 
ATOM      5  C   LIG    1       -1.637   2.704   1.103  0.00  0.00    +0.130 C 
ATOM      6  C   LIG    1       -2.059   3.386   2.428  0.00  0.00    +0.280 C 
ATOM      7  O   LIG    1       -2.300   5.726   3.984  0.00  0.00    -0.510 OA
ENDROOT
BRANCH   1  12
ATOM      8  C   LIG    1       -4.289  10.854   0.614  0.00  0.00    +0.100 C 
ATOM      9  C   LIG    1       -3.846   9.534   1.190  0.00  0.00    -0.050 A 
ATOM     10  C   LIG    1       -4.584   8.389   0.936  0.00  0.00    +0.000 A 
ATOM     11  C   LIG    1       -4.186   7.176   1.455  0.00  0.00    +0.060 A 
ATOM     12  C   LIG    1       -3.039   7.101   2.249  0.00  0.00    -0.160 A 
ATOM     13  C   LIG    1       -2.296   8.261   2.504  0.00  0.00    +0.160 A 
ATOM     14  C   LIG    1       -2.708   9.473   1.970  0.00  0.00    -0.010 A 
BRANCH  13  15
ATOM     15  O   LIG    1       -1.178   8.200   3.270  0.00  0.00    -0.480 OA
ATOM     16  H   LIG    1       -0.367   8.029   2.770  0.00  0.00    +0.390 HD
ENDBRANCH  13  15
ENDBRANCH   1  12
BRANCH   5  17
ATOM     17  N   LIG    1       -1.676   1.240   1.228  0.00  0.00    -0.520 NA
ATOM     18  C   LIG    1       -1.400   0.594  -0.061  0.00  0.00    +0.200 C 
BRANCH  17  19
ATOM     19  C   LIG    1       -0.740   0.776   2.261  0.00  0.00    +0.280 C 
BRANCH  19  20
ATOM     20  C   LIG    1       -0.980  -0.687   2.535  0.00  0.00    +0.370 A 
ATOM     21  N   LIG    1       -1.840  -1.030   3.471  0.00  0.00    -0.540 NA
ATOM     22  C   LIG    1       -2.085  -2.305   3.740  0.00  0.00    +0.350 A 
ATOM     23  C   LIG    1       -1.415  -3.283   3.032  0.00  0.00    -0.150 A 
ATOM     24  C   LIG    1       -0.505  -2.885   2.050  0.00  0.00    +0.440 A 
ATOM     25  N   LIG    1       -0.319  -1.586   1.835  0.00  0.00    -0.580 NA
BRANCH  24  26
ATOM     26  N   LIG    1        0.191  -3.828   1.312  0.00  0.00    -0.840 N 
ATOM     27  H   LIG    1        0.049  -4.774   1.475  0.00  0.00    +0.410 HD
ATOM     28  H   LIG    1        0.822  -3.543   0.632  0.00  0.00    +0.410 HD
ENDBRANCH  24  26
ENDBRANCH  19  20
ENDBRANCH  17  19
ENDBRANCH   5  17
TORSDOF 6
