REMARK  Name = ZINCvU0000000I4l.0
REMARK                            x       y       z     vdW  Elec       q    Type
REMARK                         _______ _______ _______ _____ _____    ______ ____
ROOT
ATOM      1  C   LIG    1       -3.179  -0.519  -4.560  0.00  0.00    +0.100 C 
ENDROOT
BRANCH   1   2
ATOM      2  C   LIG    1       -3.963   0.591  -5.213  0.00  0.00    +0.450 C 
ATOM      3  O   LIG    1       -4.243   1.588  -4.581  0.00  0.00    -0.460 OA
BRANCH   2   4
ATOM      4  C   LIG    1       -4.386   0.465  -6.609  0.00  0.00    -0.260 A 
ATOM      5  C   LIG    1       -5.110   1.385  -7.345  0.00  0.00    +0.130 A 
ATOM      6  N   LIG    1       -5.284   0.885  -8.584  0.00  0.00    -0.390 N 
ATOM      7  C   LIG    1       -4.703  -0.347  -8.687  0.00  0.00    +0.020 A 
ATOM      8  C   LIG    1       -4.700  -1.212  -9.921  0.00  0.00    +0.120 C 
ATOM      9  C   LIG    1       -5.613   2.716  -6.849  0.00  0.00    +0.150 C 
ATOM     10  C   LIG    1       -4.134  -0.666  -7.512  0.00  0.00    +0.000 A 
BRANCH   6  11
ATOM     11  C   LIG    1       -5.970   1.535  -9.619  0.00  0.00    +0.100 A 
ATOM     12  C   LIG    1       -5.475   2.721 -10.145  0.00  0.00    +0.020 A 
ATOM     13  C   LIG    1       -6.150   3.356 -11.169  0.00  0.00    +0.020 A 
ATOM     14  C   LIG    1       -7.325   2.818 -11.662  0.00  0.00    +0.020 A 
ATOM     15  C   LIG    1       -7.824   1.640 -11.137  0.00  0.00    +0.020 A 
ATOM     16  C   LIG    1       -7.150   0.998 -10.117  0.00  0.00    +0.020 A 
ENDBRANCH   6  11
ENDBRANCH   2   4
ENDBRANCH   1   2
BRANCH   1  17
ATOM     17  S   LIG    1       -2.808  -0.069  -2.847  0.00  0.00    +0.050 S 
BRANCH  17  19
ATOM     18  N   LIG    1       -1.371  -1.725  -1.107  0.00  0.00    -0.450 N 
ATOM     19  C   LIG    1       -1.914  -1.501  -2.342  0.00  0.00    +0.150 A 
ATOM     20  N   LIG    1       -1.642  -2.551  -3.081  0.00  0.00    -0.290 NA
ATOM     21  N   LIG    1       -0.979  -3.414  -2.397  0.00  0.00    -0.270 NA
ATOM     22  C   LIG    1       -0.782  -2.965  -1.180  0.00  0.00    +0.270 A 
BRANCH  22  23
ATOM     23  C   LIG    1       -0.062  -3.662  -0.092  0.00  0.00    -0.130 A 
ATOM     24  C   LIG    1        1.143  -4.288  -0.173  0.00  0.00    +0.060 A 
ATOM     25  O   LIG    1        1.441  -4.792   1.033  0.00  0.00    -0.170 OA
ATOM     26  C   LIG    1        0.469  -4.519   1.917  0.00  0.00    +0.190 A 
ATOM     27  C   LIG    1        1.997  -4.398  -1.410  0.00  0.00    +0.180 C 
ATOM     28  C   LIG    1       -0.497  -3.817   1.302  0.00  0.00    -0.050 A 
ENDBRANCH  22  23
BRANCH  18  29
ATOM     29  C   LIG    1       -1.414  -0.832   0.054  0.00  0.00    +0.350 C 
BRANCH  29  31
ATOM     30  C   LIG    1       -0.225   1.298   0.144  0.00  0.00    +0.060 C 
ATOM     31  C   LIG    1       -0.153  -0.009   0.102  0.00  0.00    -0.070 C 
ENDBRANCH  29  31
ENDBRANCH  18  29
ENDBRANCH  17  19
ENDBRANCH   1  17
TORSDOF 8
