REMARK  Name = ZINCpe000027pGVa.1
REMARK                            x       y       z     vdW  Elec       q    Type
REMARK                         _______ _______ _______ _____ _____    ______ ____
ROOT
ATOM      1  C   LIG    1       -0.666   3.122   1.126  0.00  0.00    +0.150 C 
ATOM      2  C   LIG    1        0.695   3.847   1.202  0.00  0.00    +0.280 C 
ATOM      3  N   LIG    1        0.503   5.050   2.024  0.00  0.00    -0.600 N 
ATOM      4  C   LIG    1       -0.910   5.120   2.439  0.00  0.00    +0.310 C 
ATOM      5  C   LIG    1        1.461   5.942   2.346  0.00  0.00    +0.590 C 
ATOM      6  O   LIG    1        2.598   5.783   1.948  0.00  0.00    -0.510 OA
ATOM      7  C   LIG    1       -1.418   3.656   2.374  0.00  0.00    +0.270 C 
ENDROOT
BRANCH   5   8
ATOM      8  C   LIG    1        1.128   7.117   3.187  0.00  0.00    +0.060 A 
ATOM      9  N   LIG    1       -0.112   7.287   3.613  0.00  0.00    -0.390 NA
ATOM     10  C   LIG    1       -0.409   8.342   4.373  0.00  0.00    +0.080 A 
ATOM     11  C   LIG    1       -1.718   8.548   4.847  0.00  0.00    +0.060 A 
ATOM     12  C   LIG    1       -1.993   9.636   5.617  0.00  0.00    +0.040 A 
ATOM     13  C   LIG    1       -0.996  10.554   5.944  0.00  0.00    +0.060 A 
ATOM     14  C   LIG    1        0.282  10.388   5.505  0.00  0.00    +0.060 A 
ATOM     15  C   LIG    1        0.606   9.277   4.708  0.00  0.00    +0.100 A 
ATOM     16  N   LIG    1        1.854   9.089   4.262  0.00  0.00    -0.420 NA
ATOM     17  C   LIG    1        2.131   8.043   3.520  0.00  0.00    +0.320 A 
ENDBRANCH   5   8
BRANCH   7  18
ATOM     18  N   LIG    1       -1.032   2.914   3.577  0.00  0.00    -0.260 N 
ATOM     19  C   LIG    1        0.049   3.166   4.351  0.00  0.00    +0.130 A 
ATOM     20  C   LIG    1        0.022   2.249   5.346  0.00  0.00    +0.140 A 
ATOM     21  N   LIG    1       -1.060   1.491   5.135  0.00  0.00    -0.270 NA
ATOM     22  N   LIG    1       -1.666   1.915   4.083  0.00  0.00    -0.070 NA
ENDBRANCH   7  18
BRANCH   1  24
ATOM     23  C   LIG    1       -1.774   0.970   1.110  0.00  0.00    +0.200 C 
ATOM     24  N   LIG    1       -0.485   1.667   1.211  0.00  0.00    -0.530 NA
ATOM     25  C   LIG    1        0.452   1.192   0.185  0.00  0.00    +0.200 C 
ENDBRANCH   1  24
TORSDOF 3
