REMARK  Name = ZINCpk00000KfLB6.0
REMARK                            x       y       z     vdW  Elec       q    Type
REMARK                         _______ _______ _______ _____ _____    ______ ____
ROOT
ATOM      1  N   LIG    1       -5.234   1.683   3.807  0.00  0.00    -0.730 N 
ATOM      2  H   LIG    1       -5.214   0.716   3.732  0.00  0.00    +0.400 HD
ATOM      3  C   LIG    1       -4.081   2.381   3.816  0.00  0.00    +0.710 C 
ATOM      4  N   LIG    1       -2.901   1.736   3.721  0.00  0.00    -0.730 N 
ATOM      5  H   LIG    1       -2.882   0.769   3.645  0.00  0.00    +0.390 HD
ATOM      6  O   LIG    1       -4.105   3.593   3.911  0.00  0.00    -0.590 OA
ENDROOT
BRANCH   1   7
ATOM      7  C   LIG    1       -6.516   2.384   3.911  0.00  0.00    +0.290 C 
BRANCH   7   8
ATOM      8  C   LIG    1       -7.658   1.366   3.877  0.00  0.00    +0.160 C 
ATOM      9  C   LIG    1       -8.998   2.104   3.859  0.00  0.00    +0.000 C 
BRANCH   8  13
ATOM     10  C   LIG    1       -9.451  -2.466   1.363  0.00  0.00    +0.050 C 
ATOM     11  C   LIG    1       -8.353  -1.402   1.419  0.00  0.00    +0.160 C 
ATOM     12  C   LIG    1       -8.550  -0.529   2.661  0.00  0.00    +0.150 C 
ATOM     13  N   LIG    1       -7.539   0.538   2.669  0.00  0.00    -0.530 NA
ATOM     14  C   LIG    1       -7.639   1.360   1.454  0.00  0.00    +0.160 C 
ATOM     15  C   LIG    1       -7.452   0.468   0.224  0.00  0.00    +0.190 C 
ATOM     16  C   LIG    1       -6.046  -0.136   0.241  0.00  0.00    +0.020 C 
ATOM     17  O   LIG    1       -8.423  -0.582   0.250  0.00  0.00    -0.380 OA
ENDBRANCH   8  13
ENDBRANCH   7   8
ENDBRANCH   1   7
BRANCH   4  18
ATOM     18  C   LIG    1       -1.649   2.495   3.731  0.00  0.00    +0.350 C 
BRANCH  18  19
ATOM     19  C   LIG    1       -0.485   1.546   3.612  0.00  0.00    -0.130 A 
ATOM     20  C   LIG    1        0.268   1.216   4.725  0.00  0.00    +0.090 A 
ATOM     21  C   LIG    1        1.335   0.342   4.569  0.00  0.00    -0.040 A 
ATOM     22  C   LIG    1        1.609  -0.174   3.318  0.00  0.00    +0.280 A 
ATOM     23  N   LIG    1        0.870   0.153   2.275  0.00  0.00    -0.510 NA
ATOM     24  C   LIG    1       -0.155   0.984   2.383  0.00  0.00    +0.310 A 
BRANCH  24  25
ATOM     25  N   LIG    1       -0.907   1.301   1.257  0.00  0.00    -0.490 N 
ATOM     26  C   LIG    1       -0.089   2.006   0.261  0.00  0.00    +0.220 C 
ATOM     27  C   LIG    1       -1.522   0.099   0.679  0.00  0.00    +0.210 C 
ENDBRANCH  24  25
ENDBRANCH  18  19
ENDBRANCH   4  18
TORSDOF 6
