REMARK  Name = ZINCrg000000qpqr.0
REMARK                            x       y       z     vdW  Elec       q    Type
REMARK                         _______ _______ _______ _____ _____    ______ ____
ROOT
ATOM      1  C   LIG    1       -4.098  -2.146   0.695  0.00  0.00    -0.110 A 
ATOM      2  C   LIG    1       -3.264  -3.014  -0.010  0.00  0.00    +0.050 A 
ATOM      3  C   LIG    1       -2.173  -2.519  -0.696  0.00  0.00    +0.040 A 
ATOM      4  C   LIG    1       -1.903  -1.163  -0.686  0.00  0.00    +0.020 A 
ATOM      5  C   LIG    1       -2.728  -0.290   0.013  0.00  0.00    +0.150 A 
ATOM      6  C   LIG    1       -3.822  -0.778   0.709  0.00  0.00    +0.100 A 
ENDROOT
BRANCH   5   7
ATOM      7  N   LIG    1       -2.449   1.083   0.020  0.00  0.00    -0.340 N 
ATOM      8  N   LIG    1       -3.399   2.111   0.030  0.00  0.00    -0.290 NA
ATOM      9  C   LIG    1       -2.786   3.262   0.034  0.00  0.00    +0.340 A 
ATOM     10  C   LIG    1       -1.392   3.021   0.031  0.00  0.00    -0.260 A 
ATOM     11  C   LIG    1       -1.217   1.640   0.017  0.00  0.00    +0.430 A 
BRANCH  11  12
ATOM     12  N   LIG    1       -0.011   0.966   0.007  0.00  0.00    -0.830 N 
ATOM     13  H   LIG    1        0.822   1.462   0.002  0.00  0.00    +0.420 HD
ATOM     14  H   LIG    1        0.002  -0.004   0.002  0.00  0.00    +0.410 HD
ENDBRANCH  11  12
BRANCH  10  15
ATOM     15  C   LIG    1       -0.357   4.011   0.038  0.00  0.00    +0.290 C 
ATOM     16  N   LIG    1        0.464   4.796   0.044  0.00  0.00    -0.440 NA
ENDBRANCH  10  15
ENDBRANCH   5   7
BRANCH   1  19
ATOM     17  N   LIG    1       -5.529  -3.996   1.421  0.00  0.00    -0.710 N 
ATOM     18  H   LIG    1       -4.950  -4.601   0.931  0.00  0.00    +0.400 HD
ATOM     19  C   LIG    1       -5.267  -2.674   1.431  0.00  0.00    +0.570 C 
ATOM     20  O   LIG    1       -5.992  -1.916   2.044  0.00  0.00    -0.520 OA
BRANCH  17  21
ATOM     21  C   LIG    1       -6.687  -4.519   2.149  0.00  0.00    +0.200 C 
ATOM     22  C   LIG    1       -7.965  -3.886   1.597  0.00  0.00    +0.050 C 
BRANCH  21  23
ATOM     23  C   LIG    1       -6.550  -4.181   3.635  0.00  0.00    +0.180 C 
BRANCH  23  25
ATOM     24  C   LIG    1       -5.071  -4.408   5.508  0.00  0.00    +0.200 C 
ATOM     25  O   LIG    1       -5.300  -4.673   4.123  0.00  0.00    -0.390 OA
ENDBRANCH  23  25
ENDBRANCH  21  23
BRANCH  21  26
ATOM     26  C   LIG    1       -6.754  -6.038   1.976  0.00  0.00    +0.120 C 
BRANCH  26  27
ATOM     27  C   LIG    1       -7.946  -6.576   2.726  0.00  0.00    +0.470 C 
ATOM     28  O   LIG    1       -8.666  -5.823   3.336  0.00  0.00    -0.500 OA
BRANCH  27  29
ATOM     29  O   LIG    1       -8.206  -7.893   2.716  0.00  0.00    -0.360 OA
ATOM     30  C   LIG    1       -9.370  -8.341   3.460  0.00  0.00    +0.260 C 
ENDBRANCH  27  29
ENDBRANCH  26  27
ENDBRANCH  21  26
ENDBRANCH  17  21
ENDBRANCH   1  19
TORSDOF 10
