REMARK  Name = ZINCqH00000078B6.1
REMARK                            x       y       z     vdW  Elec       q    Type
REMARK                         _______ _______ _______ _____ _____    ______ ____
ROOT
ATOM      1  C   LIG    1        2.914   7.825   0.015  0.00  0.00    +0.510 C 
ATOM      2  N   LIG    1        3.202   6.509   0.006  0.00  0.00    -0.610 N 
ATOM      3  H   LIG    1        4.126   6.215  -0.004  0.00  0.00    +0.430 HD
ATOM      4  O   LIG    1        1.758   8.193   0.028  0.00  0.00    -0.490 OA
ENDROOT
BRANCH   2   5
ATOM      5  C   LIG    1        2.177   5.574   0.011  0.00  0.00    +0.280 A 
ATOM      6  N   LIG    1        2.290   4.265   0.008  0.00  0.00    -0.540 NA
ATOM      7  C   LIG    1        1.168   3.570   0.010  0.00  0.00    +0.330 A 
ATOM      8  N   LIG    1        0.043   4.239   0.024  0.00  0.00    -0.500 NA
ATOM      9  S   LIG    1        0.482   5.880   0.029  0.00  0.00    +0.330 S 
BRANCH   7  10
ATOM     10  C   LIG    1        1.182   2.086   0.002  0.00  0.00    -0.030 A 
ATOM     11  C   LIG    1       -0.017   1.376   0.010  0.00  0.00    +0.060 A 
ATOM     12  C   LIG    1        0.002  -0.004   0.002  0.00  0.00    +0.000 A 
ATOM     13  C   LIG    1        1.208  -0.682  -0.013  0.00  0.00    +0.030 A 
ATOM     14  C   LIG    1        2.401   0.018  -0.020  0.00  0.00    +0.000 A 
ATOM     15  C   LIG    1        2.394   1.398  -0.013  0.00  0.00    +0.070 A 
ENDBRANCH   7  10
ENDBRANCH   2   5
BRANCH   1  16
ATOM     16  C   LIG    1        4.027   8.840   0.010  0.00  0.00    +0.090 C 
BRANCH  16  17
ATOM     17  C   LIG    1        3.433  10.250   0.023  0.00  0.00    +0.110 C 
BRANCH  17  21
ATOM     18  C   LIG    1        6.593  13.132   0.014  0.00  0.00    +0.100 A 
ATOM     19  C   LIG    1        6.088  12.656   1.214  0.00  0.00    -0.030 A 
ATOM     20  C   LIG    1        5.063  11.728   1.213  0.00  0.00    +0.020 A 
ATOM     21  C   LIG    1        4.546  11.265   0.018  0.00  0.00    -0.090 A 
ATOM     22  C   LIG    1        5.045  11.736  -1.183  0.00  0.00    -0.030 A 
ATOM     23  C   LIG    1        6.069  12.670  -1.190  0.00  0.00    +0.100 A 
BRANCH  18  25
ATOM     24  C   LIG    1        8.085  14.477   1.286  0.00  0.00    +0.250 C 
ATOM     25  O   LIG    1        7.597  14.049   0.013  0.00  0.00    -0.310 OA
ENDBRANCH  18  25
BRANCH  23  26
ATOM     26  O   LIG    1        6.560  13.133  -2.370  0.00  0.00    -0.310 OA
ATOM     27  C   LIG    1        5.975  12.614  -3.565  0.00  0.00    +0.240 C 
ENDBRANCH  23  26
ENDBRANCH  17  21
ENDBRANCH  16  17
ENDBRANCH   1  16
TORSDOF 7
