REMARK  Name = ZINCrH000004vHSs.0
REMARK                            x       y       z     vdW  Elec       q    Type
REMARK                         _______ _______ _______ _____ _____    ______ ____
ROOT
ATOM      1  C   LIG    1       -1.225   5.859   0.046  0.00  0.00    +0.500 C 
ATOM      2  N   LIG    1       -0.153   5.080   0.290  0.00  0.00    -0.550 N 
ATOM      3  O   LIG    1       -2.320   5.357  -0.094  0.00  0.00    -0.460 OA
ENDROOT
BRANCH   2   4
ATOM      4  C   LIG    1       -0.281   3.692   0.272  0.00  0.00    +0.360 A 
ATOM      5  C   LIG    1        0.750   2.899   0.762  0.00  0.00    -0.070 A 
ATOM      6  C   LIG    1        0.611   1.522   0.737  0.00  0.00    +0.090 A 
ATOM      7  C   LIG    1       -0.560   0.985   0.220  0.00  0.00    -0.070 A 
ATOM      8  C   LIG    1       -1.541   1.833  -0.255  0.00  0.00    +0.290 A 
ATOM      9  N   LIG    1       -1.382   3.142  -0.214  0.00  0.00    -0.480 NA
ENDBRANCH   2   4
BRANCH   2  10
ATOM     10  C   LIG    1        1.148   5.692   0.576  0.00  0.00    +0.240 C 
ATOM     11  C   LIG    1        1.060   6.546   1.857  0.00  0.00    +0.010 C 
ATOM     12  C   LIG    1        1.964   7.769   1.562  0.00  0.00    +0.040 C 
ATOM     13  C   LIG    1        1.679   8.050   0.065  0.00  0.00    +0.010 C 
ATOM     14  C   LIG    1        1.541   6.649  -0.564  0.00  0.00    +0.020 C 
ENDBRANCH   2  10
BRANCH   1  15
ATOM     15  C   LIG    1       -1.063   7.354  -0.053  0.00  0.00    +0.330 C 
BRANCH  15  27
ATOM     16  O   LIG    1       -2.421   7.801  -2.351  0.00  0.00    -0.520 OA
ATOM     17  C   LIG    1       -2.958   8.202  -1.340  0.00  0.00    +0.530 C 
ATOM     18  C   LIG    1       -4.266   8.937  -1.428  0.00  0.00    +0.050 C 
ATOM     19  C   LIG    1       -5.433   8.009  -1.089  0.00  0.00    +0.060 C 
ATOM     20  C   LIG    1       -5.071   7.159   0.132  0.00  0.00    +0.080 C 
ATOM     21  C   LIG    1       -4.397   8.006   1.177  0.00  0.00    -0.080 A 
ATOM     22  C   LIG    1       -5.088   8.404   2.305  0.00  0.00    +0.030 A 
ATOM     23  C   LIG    1       -4.451   9.155   3.276  0.00  0.00    +0.010 A 
ATOM     24  C   LIG    1       -3.124   9.511   3.122  0.00  0.00    +0.030 A 
ATOM     25  C   LIG    1       -2.430   9.122   1.992  0.00  0.00    +0.000 A 
ATOM     26  C   LIG    1       -3.069   8.374   1.016  0.00  0.00    +0.140 A 
ATOM     27  N   LIG    1       -2.384   7.983  -0.143  0.00  0.00    -0.550 N 
ENDBRANCH  15  27
ENDBRANCH   1  15
TORSDOF 4
