REMARK  Name = ZINCrH000004jdNm.0
REMARK                            x       y       z     vdW  Elec       q    Type
REMARK                         _______ _______ _______ _____ _____    ______ ____
ROOT
ATOM      1  C   LIG    1        3.704  -0.952   0.202  0.00  0.00    -0.120 A 
ATOM      2  C   LIG    1        4.898  -0.230   0.185  0.00  0.00    +0.030 A 
ATOM      3  C   LIG    1        6.106  -0.892   0.269  0.00  0.00    +0.040 A 
ATOM      4  C   LIG    1        6.139  -2.271   0.358  0.00  0.00    +0.020 A 
ATOM      5  C   LIG    1        4.955  -2.999   0.370  0.00  0.00    +0.130 A 
ATOM      6  C   LIG    1        3.737  -2.344   0.293  0.00  0.00    +0.100 A 
ENDROOT
BRANCH   1   9
ATOM      7  N   LIG    1        2.379   1.100   0.031  0.00  0.00    -0.670 N 
ATOM      8  H   LIG    1        3.207   1.599  -0.044  0.00  0.00    +0.410 HD
ATOM      9  C   LIG    1        2.408  -0.245   0.118  0.00  0.00    +0.560 C 
ATOM     10  O   LIG    1        1.370  -0.876   0.128  0.00  0.00    -0.510 OA
BRANCH   7  16
ATOM     11  C   LIG    1        1.054   3.019   0.659  0.00  0.00    -0.110 A 
ATOM     12  C   LIG    1       -0.157   3.683   0.674  0.00  0.00    +0.030 A 
ATOM     13  C   LIG    1       -1.268   3.111   0.083  0.00  0.00    -0.010 A 
ATOM     14  C   LIG    1       -1.171   1.875  -0.531  0.00  0.00    +0.020 A 
ATOM     15  C   LIG    1        0.036   1.204  -0.545  0.00  0.00    +0.020 A 
ATOM     16  C   LIG    1        1.154   1.775   0.048  0.00  0.00    +0.140 A 
BRANCH  11  18
ATOM     17  C   LIG    1        3.076   4.392   0.244  0.00  0.00    +0.020 C 
ATOM     18  C   LIG    1        2.265   3.643   1.303  0.00  0.00    +0.060 C 
ENDBRANCH  11  18
ENDBRANCH   7  16
ENDBRANCH   1   9
BRANCH   5  19
ATOM     19  N   LIG    1        4.994  -4.396   0.461  0.00  0.00    -0.670 N 
ATOM     20  H   LIG    1        5.680  -4.828   0.994  0.00  0.00    +0.420 HD
ATOM     21  C   LIG    1        4.078  -5.139  -0.191  0.00  0.00    +0.520 C 
ATOM     22  O   LIG    1        3.172  -4.598  -0.788  0.00  0.00    -0.510 OA
BRANCH  21  23
ATOM     23  C   LIG    1        4.180  -6.643  -0.177  0.00  0.00    +0.060 C 
BRANCH  23  24
ATOM     24  C   LIG    1        3.026  -7.239  -0.985  0.00  0.00    +0.330 C 
BRANCH  24  25
ATOM     25  N   LIG    1        3.126  -8.701  -0.972  0.00  0.00    -0.460 N 
ATOM     26  C   LIG    1        2.560  -9.545  -0.055  0.00  0.00    +0.110 A 
ATOM     27  C   LIG    1        2.900 -10.797  -0.416  0.00  0.00    +0.140 A 
ATOM     28  N   LIG    1        3.652 -10.720  -1.524  0.00  0.00    -0.490 NA
ATOM     29  C   LIG    1        3.787  -9.467  -1.866  0.00  0.00    +0.380 A 
ENDBRANCH  24  25
ENDBRANCH  23  24
ENDBRANCH  21  23
ENDBRANCH   5  19
TORSDOF 7
