REMARK  Name = ZINCpk00000KfLfj.0
REMARK                            x       y       z     vdW  Elec       q    Type
REMARK                         _______ _______ _______ _____ _____    ______ ____
ROOT
ATOM      1  C   LIG    1        2.310  -0.037  -0.021  0.00  0.00    +0.320 A 
ATOM      2  C   LIG    1        2.365   1.352  -0.013  0.00  0.00    -0.050 A 
ATOM      3  C   LIG    1        1.184   2.073   0.002  0.00  0.00    +0.110 A 
ATOM      4  C   LIG    1       -0.017   1.376   0.010  0.00  0.00    -0.190 A 
ATOM      5  C   LIG    1        0.002  -0.004   0.002  0.00  0.00    +0.310 A 
ATOM      6  N   LIG    1        1.144  -0.665  -0.013  0.00  0.00    -0.520 NA
ENDROOT
BRANCH   1  10
ATOM      7  C   LIG    1        5.259  -2.680   1.309  0.00  0.00    +0.020 C 
ATOM      8  C   LIG    1        4.530  -2.988  -0.000  0.00  0.00    +0.200 C 
ATOM      9  C   LIG    1        3.208  -2.217  -0.043  0.00  0.00    +0.200 C 
ATOM     10  N   LIG    1        3.489  -0.774  -0.037  0.00  0.00    -0.470 N 
ATOM     11  C   LIG    1        4.327  -0.401  -1.186  0.00  0.00    +0.180 C 
ATOM     12  C   LIG    1        5.637  -1.191  -1.132  0.00  0.00    +0.160 C 
ATOM     13  C   LIG    1        6.480  -0.868  -2.367  0.00  0.00    +0.050 C 
ATOM     14  O   LIG    1        5.344  -2.591  -1.107  0.00  0.00    -0.370 OA
ENDBRANCH   1  10
BRANCH   4  15
ATOM     15  C   LIG    1       -1.327   2.120   0.020  0.00  0.00    +0.350 C 
BRANCH  15  16
ATOM     16  N   LIG    1       -1.746   2.353   1.404  0.00  0.00    -0.740 N 
ATOM     17  H   LIG    1       -1.194   2.038   2.137  0.00  0.00    +0.400 HD
ATOM     18  C   LIG    1       -2.897   3.006   1.660  0.00  0.00    +0.710 C 
ATOM     19  N   LIG    1       -3.282   3.220   2.933  0.00  0.00    -0.740 N 
ATOM     20  H   LIG    1       -2.730   2.905   3.666  0.00  0.00    +0.400 HD
ATOM     21  O   LIG    1       -3.589   3.400   0.741  0.00  0.00    -0.590 OA
BRANCH  19  22
ATOM     22  C   LIG    1       -4.533   3.929   3.211  0.00  0.00    +0.390 C 
BRANCH  22  23
ATOM     23  C   LIG    1       -4.730   4.037   4.701  0.00  0.00    +0.050 A 
ATOM     24  N   LIG    1       -5.277   3.130   5.470  0.00  0.00    -0.270 NA
ATOM     25  N   LIG    1       -5.269   3.610   6.786  0.00  0.00    -0.470 N 
ATOM     26  H   LIG    1       -5.609   3.144   7.566  0.00  0.00    +0.440 HD
ATOM     27  C   LIG    1       -4.707   4.837   6.777  0.00  0.00    +0.240 A 
ATOM     28  C   LIG    1       -4.365   5.125   5.500  0.00  0.00    -0.110 A 
ENDBRANCH  22  23
ENDBRANCH  19  22
ENDBRANCH  15  16
ENDBRANCH   4  15
TORSDOF 5
