REMARK  Name = ZINCnE000001Ql1p.0
REMARK                            x       y       z     vdW  Elec       q    Type
REMARK                         _______ _______ _______ _____ _____    ______ ____
ROOT
ATOM      1  N   LIG    1        1.940   1.421   3.813  0.00  0.00    -0.610 N 
ATOM      2  C   LIG    1        2.627   0.321   4.180  0.00  0.00    +0.520 C 
ATOM      3  O   LIG    1        2.876  -0.539   3.363  0.00  0.00    -0.520 OA
ATOM      4  C   LIG    1        1.639   2.461   4.800  0.00  0.00    +0.270 C 
ENDROOT
BRANCH   1   5
ATOM      5  C   LIG    1        1.493   1.576   2.426  0.00  0.00    +0.280 C 
ATOM      6  C   LIG    1        2.219   2.762   1.787  0.00  0.00    +0.030 C 
BRANCH   5  13
ATOM      7  C   LIG    1       -0.344  -0.612   2.858  0.00  0.00    +0.090 C 
ATOM      8  C   LIG    1       -0.872   0.778   2.609  0.00  0.00    -0.060 A 
ATOM      9  C   LIG    1       -2.235   1.004   2.581  0.00  0.00    +0.000 A 
ATOM     10  C   LIG    1       -2.720   2.280   2.358  0.00  0.00    +0.010 A 
ATOM     11  C   LIG    1       -1.841   3.326   2.151  0.00  0.00    -0.010 A 
ATOM     12  C   LIG    1       -0.477   3.099   2.173  0.00  0.00    +0.020 A 
ATOM     13  C   LIG    1        0.007   1.825   2.402  0.00  0.00    -0.100 A 
ENDBRANCH   5  13
ENDBRANCH   1   5
BRANCH   2  14
ATOM     14  C   LIG    1        3.087   0.161   5.607  0.00  0.00    +0.110 C 
BRANCH  14  15
ATOM     15  C   LIG    1        3.826  -1.143   5.753  0.00  0.00    -0.090 A 
ATOM     16  C   LIG    1        3.135  -2.292   6.095  0.00  0.00    -0.010 A 
ATOM     17  C   LIG    1        3.804  -3.491   6.225  0.00  0.00    +0.040 A 
ATOM     18  C   LIG    1        5.186  -3.541   6.022  0.00  0.00    -0.130 A 
ATOM     19  C   LIG    1        5.878  -2.376   5.682  0.00  0.00    +0.030 A 
ATOM     20  C   LIG    1        5.195  -1.186   5.550  0.00  0.00    -0.010 A 
BRANCH  18  21
ATOM     21  C   LIG    1        5.910  -4.819   6.166  0.00  0.00    +0.520 C 
ATOM     22  O   LIG    1        5.301  -5.837   6.463  0.00  0.00    -0.690 OA
ATOM     23  O   LIG    1        7.119  -4.859   5.988  0.00  0.00    -0.690 OA
ENDBRANCH  18  21
ENDBRANCH  14  15
ENDBRANCH   2  14
TORSDOF 5
