REMARK  Name = ZINCtV00000tRQ2D.0
REMARK                            x       y       z     vdW  Elec       q    Type
REMARK                         _______ _______ _______ _____ _____    ______ ____
ROOT
ATOM      1  P   LIG    1        0.165  -4.414   0.152  0.00  0.00    +2.410 P 
ATOM      2  O   LIG    1       -0.522  -4.985  -1.029  0.00  0.00    -1.010 OA
ENDROOT
BRANCH   1   3
ATOM      3  N   LIG    1        0.097  -2.777   0.085  0.00  0.00    -1.090 N 
ATOM      4  H   LIG    1       -0.348  -2.340  -0.658  0.00  0.00    +0.440 HD
BRANCH   3   9
ATOM      5  C   LIG    1        1.900  -1.872   3.163  0.00  0.00    +0.150 A 
ATOM      6  C   LIG    1        1.843  -0.488   3.105  0.00  0.00    -0.060 A 
ATOM      7  C   LIG    1        1.212   0.137   2.044  0.00  0.00    +0.010 A 
ATOM      8  C   LIG    1        0.627  -0.619   1.043  0.00  0.00    +0.060 A 
ATOM      9  C   LIG    1        0.683  -2.010   1.099  0.00  0.00    +0.180 A 
ATOM     10  C   LIG    1        1.321  -2.634   2.160  0.00  0.00    -0.070 A 
BRANCH   5  12
ATOM     11  C   LIG    1        3.101  -1.636   5.203  0.00  0.00    +0.250 C 
ATOM     12  O   LIG    1        2.526  -2.482   4.205  0.00  0.00    -0.310 OA
ENDBRANCH   5  12
BRANCH   8  13
ATOM     13  O   LIG    1        0.002  -0.004   0.002  0.00  0.00    -0.320 OA
ATOM     14  C   LIG    1       -0.017   1.425   0.010  0.00  0.00    +0.250 C 
ENDBRANCH   8  13
ENDBRANCH   3   9
ENDBRANCH   1   3
BRANCH   1  15
ATOM     15  O   LIG    1       -0.561  -4.926   1.494  0.00  0.00    -0.640 OA
BRANCH  15  16
ATOM     16  C   LIG    1       -1.918  -4.865   1.448  0.00  0.00    +0.100 A 
ATOM     17  C   LIG    1       -2.576  -3.721   1.873  0.00  0.00    +0.010 A 
ATOM     18  C   LIG    1       -3.956  -3.659   1.821  0.00  0.00    +0.060 A 
ATOM     19  C   LIG    1       -4.681  -4.740   1.353  0.00  0.00    -0.030 A 
ATOM     20  C   LIG    1       -4.026  -5.885   0.933  0.00  0.00    +0.060 A 
ATOM     21 CL   LIG    1       -6.414  -4.662   1.294  0.00  0.00    -0.060 Cl
ATOM     22  C   LIG    1       -2.647  -5.949   0.979  0.00  0.00    +0.050 A 
ENDBRANCH  15  16
ENDBRANCH   1  15
BRANCH   1  23
ATOM     23  O   LIG    1        1.703  -4.888   0.158  0.00  0.00    -0.640 OA
BRANCH  23  24
ATOM     24  C   LIG    1        2.347  -4.694  -1.023  0.00  0.00    +0.100 A 
ATOM     25  C   LIG    1        2.345  -5.691  -1.987  0.00  0.00    +0.050 A 
ATOM     26  C   LIG    1        2.996  -5.490  -3.189  0.00  0.00    +0.060 A 
ATOM     27  C   LIG    1        3.658  -4.298  -3.427  0.00  0.00    -0.030 A 
ATOM     28  C   LIG    1        3.665  -3.304  -2.464  0.00  0.00    +0.060 A 
ATOM     29 CL   LIG    1        4.481  -4.050  -4.935  0.00  0.00    -0.060 Cl
ATOM     30  C   LIG    1        3.011  -3.500  -1.263  0.00  0.00    +0.010 A 
ENDBRANCH  23  24
ENDBRANCH   1  23
TORSDOF 8
