REMARK  Name = ZINCrH000004v5ba.0
REMARK                            x       y       z     vdW  Elec       q    Type
REMARK                         _______ _______ _______ _____ _____    ______ ____
ROOT
ATOM      1  O   LIG    1       -2.725  -0.950   0.260  0.00  0.00    -0.480 OA
ATOM      2  C   LIG    1       -2.465   0.104   0.798  0.00  0.00    +0.510 C 
ATOM      3  N   LIG    1       -2.274   0.151   2.132  0.00  0.00    -0.660 N 
ATOM      4  H   LIG    1       -1.991   0.978   2.553  0.00  0.00    +0.420 HD
ENDROOT
BRANCH   3   5
ATOM      5  C   LIG    1       -2.485  -0.994   2.909  0.00  0.00    +0.140 A 
ATOM      6  C   LIG    1       -3.474  -1.902   2.556  0.00  0.00    +0.090 A 
ATOM      7  C   LIG    1       -3.676  -3.034   3.322  0.00  0.00    +0.070 A 
ATOM      8  C   LIG    1       -2.902  -3.257   4.446  0.00  0.00    -0.000 A 
ATOM      9  C   LIG    1       -1.919  -2.350   4.804  0.00  0.00    -0.160 A 
ATOM     10 CL   LIG    1       -3.163  -4.677   5.410  0.00  0.00    -0.030 Cl
ATOM     11  C   LIG    1       -1.709  -1.220   4.039  0.00  0.00    +0.070 A 
BRANCH   9  12
ATOM     12  C   LIG    1       -1.077  -2.597   6.029  0.00  0.00    +0.510 C 
ATOM     13  F   LIG    1       -0.387  -3.805   5.885  0.00  0.00    -0.170 F 
ATOM     14  F   LIG    1       -1.903  -2.663   7.157  0.00  0.00    -0.170 F 
ATOM     15  F   LIG    1       -0.160  -1.552   6.183  0.00  0.00    -0.170 F 
ENDBRANCH   9  12
ENDBRANCH   3   5
BRANCH   2  16
ATOM     16  C   LIG    1       -2.354   1.363  -0.023  0.00  0.00    +0.290 C 
BRANCH  16  17
ATOM     17  N   LIG    1       -1.009   1.925   0.123  0.00  0.00    -0.310 N 
ATOM     18  C   LIG    1        0.137   1.231   0.260  0.00  0.00    +0.390 A 
ATOM     19  N   LIG    1        1.102   2.113   0.355  0.00  0.00    -0.290 NA
ATOM     20  N   LIG    1        0.576   3.287   0.284  0.00  0.00    -0.070 NA
ATOM     21  N   LIG    1       -0.700   3.177   0.148  0.00  0.00    -0.070 NA
ENDBRANCH  16  17
BRANCH  16  22
ATOM     22  C   LIG    1       -2.613   1.036  -1.495  0.00  0.00    +0.130 C 
BRANCH  22  23
ATOM     23  C   LIG    1       -2.623   2.311  -2.299  0.00  0.00    -0.100 A 
ATOM     24  C   LIG    1       -3.808   2.998  -2.488  0.00  0.00    +0.010 A 
ATOM     25  C   LIG    1       -3.817   4.170  -3.221  0.00  0.00    +0.010 A 
ATOM     26  C   LIG    1       -2.643   4.649  -3.773  0.00  0.00    +0.010 A 
ATOM     27  C   LIG    1       -1.460   3.959  -3.588  0.00  0.00    +0.010 A 
ATOM     28  C   LIG    1       -1.450   2.789  -2.851  0.00  0.00    +0.010 A 
ENDBRANCH  22  23
ENDBRANCH  16  22
ENDBRANCH   2  16
TORSDOF 6
