REMARK  Name = ZINCqH0000007zyG.0
REMARK                            x       y       z     vdW  Elec       q    Type
REMARK                         _______ _______ _______ _____ _____    ______ ____
ROOT
ATOM      1  C   LIG    1        0.011  -1.808  -1.635  0.00  0.00    +0.590 C 
ATOM      2  N   LIG    1       -0.004  -0.485  -1.382  0.00  0.00    -0.730 N 
ATOM      3  H   LIG    1       -0.020   0.149  -2.116  0.00  0.00    +0.400 HD
ATOM      4  O   LIG    1        0.031  -2.604  -0.715  0.00  0.00    -0.510 OA
ENDROOT
BRANCH   1  10
ATOM      5  C   LIG    1       -0.029  -3.076  -7.533  0.00  0.00    +0.160 A 
ATOM      6  C   LIG    1       -0.007  -4.396  -7.087  0.00  0.00    -0.090 A 
ATOM      7  C   LIG    1        0.010  -4.677  -5.753  0.00  0.00    +0.120 A 
ATOM      8  C   LIG    1        0.005  -3.632  -4.819  0.00  0.00    -0.160 A 
ATOM      9  C   LIG    1        0.018  -3.595  -3.404  0.00  0.00    +0.080 A 
ATOM     10  C   LIG    1        0.004  -2.291  -3.023  0.00  0.00    -0.000 A 
ATOM     11  N   LIG    1       -0.023  -1.490  -4.150  0.00  0.00    -0.580 N 
ATOM     12  H   LIG    1       -0.040  -0.520  -4.154  0.00  0.00    +0.420 HD
ATOM     13  C   LIG    1       -0.018  -2.295  -5.265  0.00  0.00    +0.160 A 
ATOM     14  C   LIG    1       -0.034  -2.029  -6.630  0.00  0.00    -0.050 A 
BRANCH   5  16
ATOM     15  C   LIG    1       -0.038  -3.940  -9.747  0.00  0.00    +0.250 C 
ATOM     16  O   LIG    1       -0.045  -2.815  -8.866  0.00  0.00    -0.320 OA
ENDBRANCH   5  16
ENDBRANCH   1  10
BRANCH   2  17
ATOM     17  C   LIG    1        0.002  -0.004   0.002  0.00  0.00    +0.450 C 
BRANCH  17  18
ATOM     18  C   LIG    1       -0.018   1.503   0.010  0.00  0.00    +0.160 A 
ATOM     19  N   LIG    1       -1.090   2.245   0.019  0.00  0.00    -0.450 NA
ATOM     20  C   LIG    1       -0.725   3.536   0.028  0.00  0.00    +0.170 A 
ATOM     21  C   LIG    1        0.632   3.576   0.015  0.00  0.00    +0.010 A 
ATOM     22  O   LIG    1        1.062   2.295   0.004  0.00  0.00    -0.190 OA
BRANCH  21  23
ATOM     23  C   LIG    1        1.477   4.789   0.014  0.00  0.00    -0.020 A 
ATOM     24  C   LIG    1        0.888   6.054   0.021  0.00  0.00    +0.040 A 
ATOM     25  C   LIG    1        1.682   7.182   0.026  0.00  0.00    +0.020 A 
ATOM     26  C   LIG    1        3.061   7.061   0.013  0.00  0.00    +0.030 A 
ATOM     27  C   LIG    1        3.651   5.810   0.000  0.00  0.00    +0.010 A 
ATOM     28  C   LIG    1        2.868   4.674   0.001  0.00  0.00    +0.030 A 
ENDBRANCH  21  23
ENDBRANCH  17  18
ENDBRANCH   2  17
TORSDOF 5
