REMARK  Name = ZINCqH0000038881.0
REMARK                            x       y       z     vdW  Elec       q    Type
REMARK                         _______ _______ _______ _____ _____    ______ ____
ROOT
ATOM      1  N   LIG    1       -5.014   4.943   1.437  0.00  0.00    -0.740 N 
ATOM      2  H   LIG    1       -4.498   4.571   2.170  0.00  0.00    +0.400 HD
ENDROOT
BRANCH   1   9
ATOM      3  C   LIG    1       -5.696   5.429   4.155  0.00  0.00    +0.090 C 
ATOM      4  C   LIG    1       -6.498   6.007   3.017  0.00  0.00    -0.180 A 
ATOM      5  C   LIG    1       -7.599   6.798   3.281  0.00  0.00    +0.090 A 
ATOM      6  C   LIG    1       -8.336   7.330   2.240  0.00  0.00    -0.090 A 
ATOM      7  C   LIG    1       -7.972   7.071   0.925  0.00  0.00    +0.220 A 
ATOM      8  C   LIG    1       -6.864   6.280   0.656  0.00  0.00    -0.070 A 
ATOM      9  C   LIG    1       -6.128   5.743   1.704  0.00  0.00    +0.240 A 
BRANCH   7  10
ATOM     10  N   LIG    1       -8.719   7.611  -0.128  0.00  0.00    -0.570 N 
ATOM     11  C   LIG    1       -9.907   8.466   0.017  0.00  0.00    +0.260 C 
ATOM     12  C   LIG    1      -10.321   8.767  -1.437  0.00  0.00    +0.260 C 
ATOM     13  O   LIG    1       -9.334   8.058  -2.239  0.00  0.00    -0.320 OA
ATOM     14  C   LIG    1       -8.465   7.438  -1.432  0.00  0.00    +0.640 C 
ATOM     15  O   LIG    1       -7.533   6.776  -1.844  0.00  0.00    -0.500 OA
ENDBRANCH   7  10
ENDBRANCH   1   9
BRANCH   1  16
ATOM     16  C   LIG    1       -4.626   4.666   0.052  0.00  0.00    +0.310 C 
BRANCH  16  17
ATOM     17  C   LIG    1       -3.402   3.787   0.041  0.00  0.00    -0.110 A 
ATOM     18  C   LIG    1       -3.541   2.411   0.034  0.00  0.00    +0.070 A 
ATOM     19  C   LIG    1       -2.421   1.602   0.023  0.00  0.00    +0.000 A 
ATOM     20  C   LIG    1       -1.155   2.172   0.020  0.00  0.00    +0.140 A 
ATOM     21  C   LIG    1       -1.019   3.554   0.032  0.00  0.00    +0.000 A 
ATOM     22  C   LIG    1       -2.143   4.357   0.037  0.00  0.00    +0.070 A 
BRANCH  20  23
ATOM     23  N   LIG    1       -0.016   1.354   0.009  0.00  0.00    -0.410 N 
ATOM     24  C   LIG    1        1.289   1.774  -0.001  0.00  0.00    +0.130 A 
ATOM     25  C   LIG    1        2.055   0.666  -0.014  0.00  0.00    +0.160 A 
ATOM     26  N   LIG    1        1.245  -0.403  -0.012  0.00  0.00    -0.480 NA
ATOM     27  C   LIG    1        0.002  -0.004   0.002  0.00  0.00    +0.400 A 
ENDBRANCH  20  23
ENDBRANCH  16  17
ENDBRANCH   1  16
TORSDOF 5
