REMARK  Name = ZINCvU00000007jW.0
REMARK                            x       y       z     vdW  Elec       q    Type
REMARK                         _______ _______ _______ _____ _____    ______ ____
ROOT
ATOM      1  C   LIG    1        6.017  -0.161  -3.800  0.00  0.00    +0.110 C 
ENDROOT
BRANCH   1   2
ATOM      2  C   LIG    1        7.221  -0.379  -2.921  0.00  0.00    +0.530 C 
ATOM      3  N   LIG    1        8.409  -0.696  -3.471  0.00  0.00    -0.630 N 
ATOM      4  H   LIG    1        8.490  -0.783  -4.434  0.00  0.00    +0.420 HD
ATOM      5  O   LIG    1        7.120  -0.271  -1.717  0.00  0.00    -0.480 OA
BRANCH   3   6
ATOM      6  C   LIG    1        9.518  -0.897  -2.661  0.00  0.00    +0.050 A 
ATOM      7  C   LIG    1       10.762  -1.225  -3.116  0.00  0.00    -0.110 A 
ATOM      8  C   LIG    1       11.747  -1.371  -2.056  0.00  0.00    -0.040 A 
ATOM      9  C   LIG    1       11.221  -1.167  -0.843  0.00  0.00    -0.240 A 
ATOM     10  C   LIG    1       11.981  -1.265   0.463  0.00  0.00    +0.110 C 
ATOM     11  C   LIG    1       13.297  -0.495   0.363  0.00  0.00    +0.020 C 
ATOM     12  C   LIG    1       14.389  -1.433  -0.143  0.00  0.00    +0.000 C 
ATOM     13  C   LIG    1       13.792  -2.448  -1.116  0.00  0.00    +0.030 C 
ATOM     14  C   LIG    1       13.202  -1.718  -2.318  0.00  0.00    +0.090 C 
ATOM     15  S   LIG    1        9.511  -0.776  -0.964  0.00  0.00    +0.320 S 
BRANCH   7  16
ATOM     16  C   LIG    1       11.069  -1.404  -4.503  0.00  0.00    +0.270 C 
ATOM     17  N   LIG    1       11.312  -1.547  -5.603  0.00  0.00    -0.420 NA
ENDBRANCH   7  16
ENDBRANCH   3   6
ENDBRANCH   1   2
BRANCH   1  18
ATOM     18  S   LIG    1        4.584   0.246  -2.772  0.00  0.00    +0.090 S 
BRANCH  18  30
ATOM     19  C   LIG    1       -0.734   1.582   1.263  0.00  0.00    +0.030 C 
ATOM     20  C   LIG    1       -0.013   1.086   0.008  0.00  0.00    -0.010 C 
ATOM     21  C   LIG    1        1.423   1.619  -0.003  0.00  0.00    +0.040 C 
ATOM     22  C   LIG    1        2.209   0.916  -1.111  0.00  0.00    +0.120 C 
ATOM     23  C   LIG    1        1.422   1.009  -2.412  0.00  0.00    -0.070 A 
ATOM     24  C   LIG    1        0.119   1.310  -2.459  0.00  0.00    -0.170 A 
ATOM     25  S   LIG    1       -0.478   1.334  -4.113  0.00  0.00    +0.180 S 
ATOM     26  C   LIG    1        1.089   0.922  -4.761  0.00  0.00    +0.080 A 
ATOM     27  N   LIG    1        1.462   0.745  -6.036  0.00  0.00    -0.470 NA
ATOM     28  C   LIG    1        2.726   0.433  -6.263  0.00  0.00    +0.520 A 
ATOM     29  N   LIG    1        3.631   0.288  -5.317  0.00  0.00    -0.540 NA
ATOM     30  C   LIG    1        3.357   0.444  -4.021  0.00  0.00    +0.190 A 
ATOM     31  C   LIG    1        2.010   0.780  -3.714  0.00  0.00    -0.150 A 
ATOM     32  C   LIG    1       -0.739   1.596  -1.239  0.00  0.00    +0.120 C 
ENDBRANCH  18  30
ENDBRANCH   1  18
TORSDOF 5
