REMARK  Name = ZINCpe000000XZT8.0
REMARK                            x       y       z     vdW  Elec       q    Type
REMARK                         _______ _______ _______ _____ _____    ______ ____
ROOT
ATOM      1  C   LIG    1        2.809   0.848   1.480  0.00  0.00    +0.520 C 
ATOM      2  N   LIG    1        3.987   0.215   1.649  0.00  0.00    -0.600 N 
ATOM      3  C   LIG    1        4.776  -0.175   0.480  0.00  0.00    +0.260 C 
ATOM      4  C   LIG    1        6.112   0.554   0.448  0.00  0.00    +0.220 C 
ATOM      5  O   LIG    1        6.883   0.223   1.609  0.00  0.00    -0.320 OA
ATOM      6  C   LIG    1        6.691   1.016   2.692  0.00  0.00    +0.110 A 
ATOM      7  C   LIG    1        7.686   1.891   3.105  0.00  0.00    +0.000 A 
ATOM      8  C   LIG    1        7.465   2.727   4.183  0.00  0.00    +0.030 A 
ATOM      9  C   LIG    1        6.255   2.698   4.851  0.00  0.00    +0.000 A 
ATOM     10  C   LIG    1        5.265   1.815   4.453  0.00  0.00    +0.050 A 
ATOM     11  C   LIG    1        5.494   0.968   3.392  0.00  0.00    -0.130 A 
ATOM     12  C   LIG    1        4.472  -0.073   3.002  0.00  0.00    +0.300 C 
ATOM     13  O   LIG    1        2.151   1.174   2.446  0.00  0.00    -0.530 OA
ENDROOT
BRANCH   1  14
ATOM     14  C   LIG    1        2.309   1.153   0.091  0.00  0.00    +0.150 C 
BRANCH  14  19
ATOM     15  C   LIG    1       -2.693   3.891   0.421  0.00  0.00    +0.190 C 
ATOM     16  C   LIG    1       -1.383   3.150   0.335  0.00  0.00    +0.400 A 
ATOM     17  N   LIG    1       -0.272   3.829   0.225  0.00  0.00    -0.540 NA
ATOM     18  C   LIG    1        0.913   3.219   0.146  0.00  0.00    +0.200 A 
ATOM     19  C   LIG    1        0.981   1.859   0.179  0.00  0.00    -0.250 A 
ATOM     20  C   LIG    1       -0.218   1.127   0.298  0.00  0.00    +0.530 A 
ATOM     21  O   LIG    1       -0.203  -0.093   0.331  0.00  0.00    -0.530 OA
ATOM     22  C   LIG    1        2.174   4.035   0.019  0.00  0.00    +0.150 C 
ATOM     23  N   LIG    1       -1.385   1.803   0.369  0.00  0.00    -0.630 N 
ATOM     24  H   LIG    1       -2.222   1.321   0.447  0.00  0.00    +0.420 HD
ENDBRANCH  14  19
ENDBRANCH   1  14
BRANCH  12  25
ATOM     25  C   LIG    1        5.118  -1.460   3.031  0.00  0.00    +0.190 C 
BRANCH  25  26
ATOM     26  O   LIG    1        4.124  -2.454   2.777  0.00  0.00    -0.570 OA
ATOM     27  H   LIG    1        4.463  -3.360   2.780  0.00  0.00    +0.380 HD
ENDBRANCH  25  26
ENDBRANCH  12  25
TORSDOF 4
