REMARK  Name = ZINCrH00000No4u0.0
REMARK                            x       y       z     vdW  Elec       q    Type
REMARK                         _______ _______ _______ _____ _____    ______ ____
ROOT
ATOM      1  C   LIG    1        4.664   8.471   0.003  0.00  0.00    +0.230 A 
ATOM      2  C   LIG    1        4.832   9.820   0.003  0.00  0.00    +0.050 A 
ATOM      3  N   LIG    1        6.141  10.085  -0.003  0.00  0.00    -0.410 NA
ATOM      4  C   LIG    1        6.815   8.946  -0.016  0.00  0.00    +0.160 A 
ATOM      5  C   LIG    1        8.191   8.649  -0.031  0.00  0.00    +0.200 A 
ATOM      6  C   LIG    1        8.588   7.346  -0.041  0.00  0.00    -0.010 A 
ATOM      7  C   LIG    1        7.634   6.319  -0.037  0.00  0.00    +0.140 A 
ATOM      8  N   LIG    1        6.356   6.587  -0.024  0.00  0.00    -0.230 NA
ATOM      9  I   LIG    1        8.269   4.322  -0.054  0.00  0.00    +0.090 I 
ATOM     10  N   LIG    1        5.906   7.911  -0.012  0.00  0.00    -0.290 N 
ENDROOT
BRANCH   2  11
ATOM     11  C   LIG    1        3.727  10.845   0.012  0.00  0.00    +0.080 C 
ATOM     12  C   LIG    1        3.680  11.823   1.187  0.00  0.00    +0.090 C 
ATOM     13  C   LIG    1        4.120  12.309  -0.196  0.00  0.00    +0.210 C 
ATOM     14  F   LIG    1        3.231  13.121  -0.908  0.00  0.00    -0.160 F 
ATOM     15  F   LIG    1        5.477  12.594  -0.379  0.00  0.00    -0.140 F 
ENDBRANCH   2  11
BRANCH   1  16
ATOM     16  N   LIG    1        3.442   7.785   0.011  0.00  0.00    -0.580 N 
ATOM     17  H   LIG    1        2.862   8.071  -0.763  0.00  0.00    +0.370 HD
BRANCH  16  18
ATOM     18  C   LIG    1        3.655   6.332   0.001  0.00  0.00    +0.210 C 
BRANCH  18  19
ATOM     19  C   LIG    1        2.301   5.619   0.010  0.00  0.00    +0.040 C 
BRANCH  19  20
ATOM     20  C   LIG    1        2.522   4.105   0.000  0.00  0.00    +0.280 C 
BRANCH  20  22
ATOM     21  C   LIG    1        1.174   2.075   0.002  0.00  0.00    +0.650 C 
ATOM     22  N   LIG    1        1.226   3.422   0.009  0.00  0.00    -0.710 N 
ATOM     23  H   LIG    1        0.405   3.939   0.019  0.00  0.00    +0.410 HD
ATOM     24  O   LIG    1        2.201   1.427  -0.011  0.00  0.00    -0.560 OA
BRANCH  21  25
ATOM     25  O   LIG    1       -0.018   1.448   0.010  0.00  0.00    -0.370 OA
BRANCH  25  27
ATOM     26  C   LIG    1        0.742  -0.511   1.242  0.00  0.00    +0.040 C 
ATOM     27  C   LIG    1        0.002  -0.004   0.002  0.00  0.00    +0.140 C 
ATOM     28  C   LIG    1        0.718  -0.497  -1.257  0.00  0.00    +0.040 C 
ATOM     29  C   LIG    1       -1.433  -0.534   0.013  0.00  0.00    +0.080 C 
ENDBRANCH  25  27
ENDBRANCH  21  25
ENDBRANCH  20  22
ENDBRANCH  19  20
ENDBRANCH  18  19
ENDBRANCH  16  18
ENDBRANCH   1  16
TORSDOF 8
