REMARK  Name = ZINCrH000004tLsV.0
REMARK                            x       y       z     vdW  Elec       q    Type
REMARK                         _______ _______ _______ _____ _____    ______ ____
ROOT
ATOM      1  O   LIG    1        1.224  -0.788   0.089  0.00  0.00    -0.470 OA
ATOM      2  C   LIG    1        2.300  -0.238   0.084  0.00  0.00    +0.450 C 
ENDROOT
BRANCH   2   3
ATOM      3  O   LIG    1        2.370   1.099  -0.014  0.00  0.00    -0.290 OA
BRANCH   3   4
ATOM      4  C   LIG    1        1.196   1.783   0.017  0.00  0.00    +0.100 A 
ATOM      5  C   LIG    1        0.753   2.412  -1.112  0.00  0.00    +0.040 A 
ATOM      6  C   LIG    1       -0.461   3.119  -1.081  0.00  0.00    -0.030 A 
ATOM      7  C   LIG    1       -0.949   3.778  -2.222  0.00  0.00    +0.050 A 
ATOM      8  C   LIG    1       -2.129   4.454  -2.158  0.00  0.00    +0.050 A 
ATOM      9  C   LIG    1       -2.863   4.502  -0.974  0.00  0.00    -0.080 A 
ATOM     10  C   LIG    1       -2.421   3.875   0.152  0.00  0.00    +0.070 A 
ATOM     11 BR   LIG    1       -4.498   5.452  -0.930  0.00  0.00    -0.040 Br
ATOM     12  C   LIG    1       -1.208   3.168   0.123  0.00  0.00    -0.050 A 
ATOM     13  C   LIG    1       -0.724   2.504   1.264  0.00  0.00    +0.060 A 
ATOM     14  C   LIG    1        0.457   1.833   1.203  0.00  0.00    +0.010 A 
ENDBRANCH   3   4
ENDBRANCH   2   3
BRANCH   2  15
ATOM     15  C   LIG    1        3.563  -1.053   0.188  0.00  0.00    +0.420 C 
BRANCH  15  16
ATOM     16  N   LIG    1        3.221  -2.474   0.284  0.00  0.00    -0.570 N 
ATOM     17  C   LIG    1        3.013  -3.122   1.436  0.00  0.00    +0.710 C 
ATOM     18  N   LIG    1        2.709  -4.421   1.248  0.00  0.00    -0.710 N 
ATOM     19  H   LIG    1        2.517  -5.078   1.935  0.00  0.00    +0.440 HD
ATOM     20  C   LIG    1        2.731  -4.646  -0.203  0.00  0.00    +0.130 C 
ATOM     21  C   LIG    1        3.798  -5.672  -0.569  0.00  0.00    +0.050 C 
ATOM     22  C   LIG    1        3.439  -7.027   0.047  0.00  0.00    +0.030 C 
ATOM     23  C   LIG    1        2.073  -7.478  -0.476  0.00  0.00    +0.010 C 
ATOM     24  C   LIG    1        1.011  -6.451  -0.080  0.00  0.00    +0.020 C 
ATOM     25  C   LIG    1        1.359  -5.093  -0.696  0.00  0.00    +0.050 C 
ATOM     26  O   LIG    1        3.088  -2.597   2.530  0.00  0.00    -0.540 OA
ATOM     27  C   LIG    1        3.082  -3.293  -0.779  0.00  0.00    +0.540 C 
ATOM     28  O   LIG    1        3.211  -3.005  -1.950  0.00  0.00    -0.450 OA
ENDBRANCH  15  16
ENDBRANCH   2  15
TORSDOF 4
