REMARK  Name = ZINCpe00000MJMfa.0
REMARK                            x       y       z     vdW  Elec       q    Type
REMARK                         _______ _______ _______ _____ _____    ______ ____
ROOT
ATOM      1  C   LIG    1        1.789  -1.823  -0.025  0.00  0.00    +0.080 C 
ATOM      2  C   LIG    1        2.819  -2.064   1.107  0.00  0.00    +0.280 C 
ATOM      3  N   LIG    1        3.637  -3.197   0.637  0.00  0.00    -1.010 NA
ATOM      4  C   LIG    1        3.571  -3.250  -0.831  0.00  0.00    +0.280 C 
ATOM      5  C   LIG    1        2.643  -2.105  -1.289  0.00  0.00    +0.010 C 
ENDROOT
BRANCH   1   9
ATOM      6  C   LIG    1       -1.212   2.191   0.020  0.00  0.00    +0.360 C 
ATOM      7  N   LIG    1       -0.016   1.345   0.009  0.00  0.00    -0.370 N 
ATOM      8  C   LIG    1        0.002  -0.004   0.002  0.00  0.00    +0.240 A 
ATOM      9  C   LIG    1        1.296  -0.399  -0.013  0.00  0.00    -0.230 A 
ATOM     10  C   LIG    1        2.096   0.748  -0.014  0.00  0.00    +0.240 A 
ATOM     11  N   LIG    1        1.311   1.794  -0.001  0.00  0.00    -0.290 NA
ENDBRANCH   1   9
BRANCH   3  12
ATOM     12  S   LIG    1        4.490  -4.237   1.603  0.00  0.00    +2.620 S 
ATOM     13  O   LIG    1        4.576  -5.433   0.840  0.00  0.00    -0.940 OA
ATOM     14  O   LIG    1        3.800  -4.209   2.845  0.00  0.00    -0.940 OA
BRANCH  12  15
ATOM     15  C   LIG    1        6.124  -3.467   1.765  0.00  0.00    -0.290 C 
BRANCH  15  16
ATOM     16  C   LIG    1        7.003  -4.331   2.633  0.00  0.00    -0.100 A 
ATOM     17  C   LIG    1        7.033  -4.129   4.001  0.00  0.00    +0.060 A 
ATOM     18  C   LIG    1        7.833  -4.921   4.806  0.00  0.00    +0.030 A 
ATOM     19  C   LIG    1        8.615  -5.910   4.247  0.00  0.00    +0.080 A 
ATOM     20  C   LIG    1        8.593  -6.116   2.866  0.00  0.00    -0.020 A 
ATOM     21  C   LIG    1        7.779  -5.317   2.061  0.00  0.00    +0.080 A 
BRANCH  20  22
ATOM     22  C   LIG    1        9.402  -7.141   2.279  0.00  0.00    +0.250 C 
ATOM     23  N   LIG    1       10.044  -7.955   1.813  0.00  0.00    -0.400 NA
ENDBRANCH  20  22
ENDBRANCH  15  16
ENDBRANCH  12  15
ENDBRANCH   3  12
BRANCH   5  24
ATOM     24  C   LIG    1        1.757  -2.559  -2.451  0.00  0.00    +0.190 C 
BRANCH  24  25
ATOM     25  O   LIG    1        2.552  -2.699  -3.630  0.00  0.00    -0.570 OA
ATOM     26  H   LIG    1        2.054  -2.985  -4.408  0.00  0.00    +0.380 HD
ENDBRANCH  24  25
ENDBRANCH   5  24
TORSDOF 7
