REMARK  Name = ZINCvU00000005hh.0
REMARK                            x       y       z     vdW  Elec       q    Type
REMARK                         _______ _______ _______ _____ _____    ______ ____
ROOT
ATOM      1  N   LIG    1       -0.569  -2.256  -0.320  0.00  0.00    -0.520 N 
ATOM      2  C   LIG    1        0.894  -2.153  -0.360  0.00  0.00    +0.370 C 
ATOM      3  C   LIG    1        1.225  -0.701  -0.119  0.00  0.00    -0.080 A 
ATOM      4  C   LIG    1        2.411  -0.009  -0.044  0.00  0.00    +0.040 A 
ATOM      5  C   LIG    1        2.403   1.356   0.195  0.00  0.00    +0.060 A 
ATOM      6  C   LIG    1        1.205   2.027   0.361  0.00  0.00    +0.020 A 
ATOM      7  C   LIG    1        0.009   1.343   0.288  0.00  0.00    +0.080 A 
ATOM      8  C   LIG    1        0.008  -0.033   0.047  0.00  0.00    -0.150 A 
ATOM      9  C   LIG    1       -1.084  -1.014  -0.082  0.00  0.00    +0.510 C 
ATOM     10  N   LIG    1       -2.371  -0.734   0.019  0.00  0.00    -0.600 NA
ENDROOT
BRANCH   1  14
ATOM     11  C   LIG    1       -2.776  -5.747  -0.845  0.00  0.00    -0.150 A 
ATOM     12  C   LIG    1       -3.430  -4.535  -0.606  0.00  0.00    +0.120 A 
ATOM     13  C   LIG    1       -2.697  -3.383  -0.433  0.00  0.00    +0.020 A 
ATOM     14  C   LIG    1       -1.307  -3.424  -0.496  0.00  0.00    +0.210 A 
ATOM     15  C   LIG    1       -0.654  -4.629  -0.739  0.00  0.00    -0.030 A 
ATOM     16  C   LIG    1       -1.380  -5.785  -0.908  0.00  0.00    +0.120 A 
BRANCH  11  17
ATOM     17  C   LIG    1       -3.558  -6.984  -1.030  0.00  0.00    +0.510 C 
ATOM     18  O   LIG    1       -4.772  -6.949  -0.975  0.00  0.00    -0.510 OA
BRANCH  17  19
ATOM     19  O   LIG    1       -2.927  -8.152  -1.261  0.00  0.00    -0.360 OA
BRANCH  19  21
ATOM     20  C   LIG    1       -2.873 -10.550  -1.683  0.00  0.00    +0.070 C 
ATOM     21  C   LIG    1       -3.760  -9.329  -1.433  0.00  0.00    +0.200 C 
ENDBRANCH  19  21
ENDBRANCH  17  19
ENDBRANCH  11  17
ENDBRANCH   1  14
BRANCH  10  22
ATOM     22  C   LIG    1       -2.773   0.542   0.134  0.00  0.00    +0.690 C 
ATOM     23  N   LIG    1       -2.788   1.344  -0.949  0.00  0.00    -0.680 N 
ATOM     24  H   LIG    1       -2.569   0.984  -1.823  0.00  0.00    +0.410 HD
ATOM     25  O   LIG    1       -3.124   0.974   1.217  0.00  0.00    -0.530 OA
BRANCH  23  26
ATOM     26  C   LIG    1       -3.119   2.696  -0.813  0.00  0.00    +0.160 A 
ATOM     27  C   LIG    1       -2.490   3.649  -1.604  0.00  0.00    -0.010 A 
ATOM     28  C   LIG    1       -2.818   4.984  -1.468  0.00  0.00    +0.050 A 
ATOM     29  C   LIG    1       -3.772   5.372  -0.546  0.00  0.00    +0.010 A 
ATOM     30  C   LIG    1       -4.402   4.425   0.244  0.00  0.00    -0.020 A 
ATOM     31 CL   LIG    1       -5.599   4.917   1.400  0.00  0.00    -0.060 Cl
ATOM     32  C   LIG    1       -4.081   3.088   0.108  0.00  0.00    +0.040 A 
ENDBRANCH  23  26
ENDBRANCH  10  22
TORSDOF 6
