REMARK  Name = ZINCqH0000038hND.0
REMARK                            x       y       z     vdW  Elec       q    Type
REMARK                         _______ _______ _______ _____ _____    ______ ____
ROOT
ATOM      1  C   LIG    1        5.154   0.643   0.473  0.00  0.00    +0.580 C 
ATOM      2  N   LIG    1        6.289  -0.082   0.416  0.00  0.00    -0.570 N 
ATOM      3  C   LIG    1        7.587   0.576   0.255  0.00  0.00    +0.320 C 
ATOM      4  C   LIG    1        8.441  -0.199  -0.750  0.00  0.00    +0.000 C 
ATOM      5  C   LIG    1        7.609  -0.595  -1.941  0.00  0.00    +0.530 C 
ATOM      6  N   LIG    1        6.721  -1.610  -1.851  0.00  0.00    -0.680 N 
ATOM      7  H   LIG    1        6.235  -1.896  -2.640  0.00  0.00    +0.410 HD
ATOM      8  C   LIG    1        6.495  -2.252  -0.627  0.00  0.00    +0.140 A 
ATOM      9  C   LIG    1        6.506  -3.633  -0.535  0.00  0.00    +0.010 A 
ATOM     10  C   LIG    1        6.249  -4.243   0.680  0.00  0.00    +0.050 A 
ATOM     11  C   LIG    1        5.981  -3.478   1.800  0.00  0.00    +0.020 A 
ATOM     12  C   LIG    1        5.982  -2.097   1.719  0.00  0.00    +0.040 A 
ATOM     13  O   LIG    1        7.737   0.002  -2.989  0.00  0.00    -0.520 OA
ATOM     14  C   LIG    1        8.994  -1.459  -0.080  0.00  0.00    +0.040 C 
ATOM     15  C   LIG    1        6.252  -1.478   0.514  0.00  0.00    +0.120 A 
ATOM     16  O   LIG    1        5.191   1.847   0.306  0.00  0.00    -0.490 OA
ENDROOT
BRANCH   1  21
ATOM     17  C   LIG    1        2.893   3.278   4.118  0.00  0.00    +0.130 C 
ATOM     18  C   LIG    1        2.489   2.047   3.349  0.00  0.00    +0.170 A 
ATOM     19  N   LIG    1        3.300   1.571   2.433  0.00  0.00    -0.470 NA
ATOM     20  C   LIG    1        2.986   0.484   1.726  0.00  0.00    +0.170 A 
ATOM     21  C   LIG    1        3.867  -0.025   0.738  0.00  0.00    -0.110 A 
ATOM     22  C   LIG    1        3.504  -1.158   0.024  0.00  0.00    +0.080 A 
ATOM     23  C   LIG    1        2.293  -1.793   0.267  0.00  0.00    +0.010 A 
ATOM     24  C   LIG    1        1.430  -1.323   1.211  0.00  0.00    +0.080 A 
ATOM     25  C   LIG    1        1.757  -0.179   1.957  0.00  0.00    -0.120 A 
ATOM     26  C   LIG    1        0.883   0.328   2.938  0.00  0.00    +0.090 A 
ATOM     27  C   LIG    1        1.265   1.445   3.627  0.00  0.00    -0.030 A 
ENDBRANCH   1  21
TORSDOF 1
