REMARK  Name = ZINCtV000002Kmy7.0
REMARK                            x       y       z     vdW  Elec       q    Type
REMARK                         _______ _______ _______ _____ _____    ______ ____
ROOT
ATOM      1  C   LIG    1        2.520   4.970   1.427  0.00  0.00    +0.240 C 
ENDROOT
BRANCH   1   2
ATOM      2  C   LIG    1        4.022   4.941   1.303  0.00  0.00    -0.080 A 
ATOM      3  C   LIG    1        4.751   3.969   1.962  0.00  0.00    +0.070 A 
ATOM      4  C   LIG    1        6.128   3.939   1.843  0.00  0.00    +0.020 A 
ATOM      5  C   LIG    1        6.777   4.888   1.074  0.00  0.00    -0.030 A 
ATOM      6  C   LIG    1        6.047   5.864   0.419  0.00  0.00    +0.020 A 
ATOM      7 CL   LIG    1        8.507   4.854   0.930  0.00  0.00    -0.070 Cl
ATOM      8  C   LIG    1        4.670   5.890   0.534  0.00  0.00    +0.030 A 
ENDBRANCH   1   2
BRANCH   1   9
ATOM      9  C   LIG    1        2.137   5.614   2.735  0.00  0.00    -0.110 A 
ATOM     10  C   LIG    1        1.735   6.940   2.772  0.00  0.00    +0.090 A 
ATOM     11  C   LIG    1        1.391   7.491   3.998  0.00  0.00    +0.030 A 
ATOM     12  C   LIG    1        1.460   6.705   5.132  0.00  0.00    +0.040 A 
ATOM     13  N   LIG    1        1.847   5.447   5.059  0.00  0.00    -0.440 NA
ATOM     14  C   LIG    1        2.177   4.889   3.910  0.00  0.00    +0.310 A 
BRANCH  12  15
ATOM     15  C   LIG    1        1.089   7.294   6.469  0.00  0.00    +0.520 C 
ATOM     16  F   LIG    1        1.374   8.663   6.472  0.00  0.00    -0.170 F 
ATOM     17  F   LIG    1        1.826   6.662   7.477  0.00  0.00    -0.160 F 
ATOM     18  F   LIG    1       -0.277   7.101   6.700  0.00  0.00    -0.170 F 
ENDBRANCH  12  15
ENDBRANCH   1   9
BRANCH   1  19
ATOM     19  N   LIG    1        1.999   3.597   1.386  0.00  0.00    -0.680 NA
ATOM     20  H   LIG    1        1.140   3.521   1.910  0.00  0.00    +0.350 HD
BRANCH  19  21
ATOM     21  C   LIG    1        1.812   3.146   0.001  0.00  0.00    +0.280 C 
BRANCH  21  27
ATOM     22  C   LIG    1        3.510   0.381  -0.030  0.00  0.00    +0.170 C 
ATOM     23  C   LIG    1        2.010   0.528  -0.014  0.00  0.00    +0.040 A 
ATOM     24  N   LIG    1        1.133  -0.433  -0.011  0.00  0.00    -0.370 NA
ATOM     25  O   LIG    1        0.002  -0.004   0.002  0.00  0.00    +0.100 OA
ATOM     26  C   LIG    1       -0.016   1.336   0.009  0.00  0.00    -0.010 A 
ATOM     27  C   LIG    1        1.278   1.737  -0.001  0.00  0.00    -0.200 A 
BRANCH  26  28
ATOM     28  C   LIG    1       -1.235   2.222   0.020  0.00  0.00    +0.090 C 
ATOM     29  C   LIG    1       -2.065   1.932   1.272  0.00  0.00    +0.050 C 
ATOM     30  C   LIG    1       -2.078   1.944  -1.226  0.00  0.00    +0.050 C 
ENDBRANCH  26  28
ENDBRANCH  21  27
ENDBRANCH  19  21
ENDBRANCH   1  19
TORSDOF 7
