REMARK  Name = ZINCrH000004sP5i.0
REMARK                            x       y       z     vdW  Elec       q    Type
REMARK                         _______ _______ _______ _____ _____    ______ ____
ROOT
ATOM      1  C   LIG    1        3.493   0.832  -0.026  0.00  0.00    +0.130 C 
ATOM      2  C   LIG    1        3.959   1.583   1.223  0.00  0.00    +0.040 C 
ATOM      3  C   LIG    1        5.489   1.665   1.224  0.00  0.00    +0.290 C 
ATOM      4  N   LIG    1        5.931   2.268  -0.041  0.00  0.00    -0.620 N 
ATOM      5  C   LIG    1        5.466   1.678  -1.304  0.00  0.00    +0.280 C 
ATOM      6  C   LIG    1        6.747   3.340  -0.043  0.00  0.00    +0.520 C 
ATOM      7  O   LIG    1        7.104   3.828  -1.094  0.00  0.00    -0.530 OA
ATOM      8  C   LIG    1        3.936   1.596  -1.277  0.00  0.00    +0.040 C 
ENDROOT
BRANCH   1  13
ATOM      9  C   LIG    1       -1.200  -0.912   0.009  0.00  0.00    +0.200 C 
ATOM     10  C   LIG    1        0.002  -0.004   0.002  0.00  0.00    +0.170 A 
ATOM     11  N   LIG    1       -0.015   1.295   0.009  0.00  0.00    -0.380 NA
ATOM     12  O   LIG    1        1.117   1.731   0.001  0.00  0.00    +0.080 OA
ATOM     13  C   LIG    1        1.990   0.720  -0.013  0.00  0.00    +0.190 A 
ATOM     14  N   LIG    1        1.291  -0.389  -0.012  0.00  0.00    -0.480 NA
ENDBRANCH   1  13
BRANCH   6  15
ATOM     15  C   LIG    1        7.215   3.933   1.261  0.00  0.00    +0.050 C 
BRANCH  15  16
ATOM     16  C   LIG    1        8.123   5.131   0.979  0.00  0.00    +0.140 C 
BRANCH  16  17
ATOM     17  C   LIG    1        8.592   5.724   2.283  0.00  0.00    +0.030 A 
ATOM     18  C   LIG    1        7.921   6.634   3.022  0.00  0.00    -0.050 A 
ATOM     19  C   LIG    1        8.699   6.919   4.156  0.00  0.00    -0.030 A 
ATOM     20  C   LIG    1        9.835   6.172   4.068  0.00  0.00    +0.050 A 
ATOM     21  N   LIG    1        9.766   5.437   2.913  0.00  0.00    -0.550 N 
ATOM     22  H   LIG    1       10.441   4.816   2.596  0.00  0.00    +0.410 HD
BRANCH  20  23
ATOM     23  C   LIG    1       10.945   6.157   5.045  0.00  0.00    -0.010 A 
ATOM     24  C   LIG    1       12.053   5.336   4.833  0.00  0.00    -0.020 A 
ATOM     25  C   LIG    1       13.088   5.331   5.745  0.00  0.00    +0.010 A 
ATOM     26  C   LIG    1       13.024   6.129   6.874  0.00  0.00    +0.000 A 
ATOM     27  C   LIG    1       11.925   6.941   7.092  0.00  0.00    +0.020 A 
ATOM     28  C   LIG    1       10.886   6.960   6.185  0.00  0.00    +0.020 A 
ENDBRANCH  20  23
ENDBRANCH  16  17
ENDBRANCH  15  16
ENDBRANCH   6  15
TORSDOF 5
