REMARK  Name = ZINCpk00000e9vA4.0
REMARK                            x       y       z     vdW  Elec       q    Type
REMARK                         _______ _______ _______ _____ _____    ______ ____
ROOT
ATOM      1  N   LIG    1        0.746  -0.488   1.173  0.00  0.00    -0.460 N 
ATOM      2  C   LIG    1        0.002  -0.004   0.002  0.00  0.00    +0.240 C 
ATOM      3  C   LIG    1       -0.019   1.526   0.010  0.00  0.00    +0.190 C 
ATOM      4  N   LIG    1        1.361   2.032   0.000  0.00  0.00    -0.540 NA
ATOM      5  C   LIG    1        2.105   1.549   1.171  0.00  0.00    +0.200 C 
ATOM      6  C   LIG    1        2.126   0.018   1.163  0.00  0.00    +0.220 C 
ENDROOT
BRANCH   1  11
ATOM      7  C   LIG    1        1.349  -3.804   2.324  0.00  0.00    +0.390 A 
ATOM      8  C   LIG    1        0.680  -4.548   1.354  0.00  0.00    -0.130 A 
ATOM      9  C   LIG    1        0.041  -3.874   0.330  0.00  0.00    +0.380 A 
ATOM     10  N   LIG    1        0.082  -2.551   0.301  0.00  0.00    -0.570 NA
ATOM     11  C   LIG    1        0.726  -1.870   1.238  0.00  0.00    +0.530 A 
ATOM     12  N   LIG    1        1.354  -2.480   2.232  0.00  0.00    -0.590 NA
BRANCH   7  13
ATOM     13  O   LIG    1        1.990  -4.424   3.345  0.00  0.00    -0.300 OA
BRANCH  13  15
ATOM     14  C   LIG    1        3.312  -4.461   5.368  0.00  0.00    +0.070 C 
ATOM     15  C   LIG    1        2.651  -3.589   4.298  0.00  0.00    +0.200 C 
ENDBRANCH  13  15
ENDBRANCH   7  13
ENDBRANCH   1  11
BRANCH   4  16
ATOM     16  C   LIG    1        1.383   3.500  -0.069  0.00  0.00    +0.270 C 
BRANCH  16  17
ATOM     17  C   LIG    1        2.787   3.993   0.169  0.00  0.00    +0.100 A 
ATOM     18  C   LIG    1        3.331   4.307   1.369  0.00  0.00    -0.260 A 
ATOM     19  C   LIG    1        3.020   4.369   2.848  0.00  0.00    +0.100 C 
ATOM     20  C   LIG    1        4.118   5.269   3.455  0.00  0.00    +0.030 C 
ATOM     21  C   LIG    1        5.292   5.081   2.471  0.00  0.00    +0.140 C 
ATOM     22  C   LIG    1        4.649   4.720   1.149  0.00  0.00    +0.050 A 
ATOM     23  N   LIG    1        4.887   4.656  -0.138  0.00  0.00    -0.280 NA
ATOM     24  N   LIG    1        3.729   4.194  -0.775  0.00  0.00    -0.360 N 
ATOM     25  C   LIG    1        3.569   3.971  -2.214  0.00  0.00    +0.350 C 
ENDBRANCH  16  17
ENDBRANCH   4  16
TORSDOF 5
