REMARK  Name = ZINCvU00000009NM.0
REMARK                            x       y       z     vdW  Elec       q    Type
REMARK                         _______ _______ _______ _____ _____    ______ ____
ROOT
ATOM      1  C   LIG    1        5.444   9.019  -0.857  0.00  0.00    +0.340 C 
ATOM      2  N   LIG    1        5.204   7.657  -0.372  0.00  0.00    -0.490 N 
ATOM      3  C   LIG    1        6.202   7.024   0.257  0.00  0.00    +0.540 C 
ATOM      4  N   LIG    1        6.072   5.772   0.736  0.00  0.00    -0.540 N 
ATOM      5  C   LIG    1        4.786   5.077   0.560  0.00  0.00    +0.330 C 
ATOM      6  C   LIG    1        3.687   5.834  -0.158  0.00  0.00    -0.250 C 
ATOM      7  C   LIG    1        7.189   5.114   1.419  0.00  0.00    +0.360 C 
ATOM      8  S   LIG    1        7.696   7.835   0.460  0.00  0.00    -0.600 S 
ATOM      9  C   LIG    1        3.969   7.097  -0.593  0.00  0.00    +0.230 C 
ENDROOT
BRANCH   5  10
ATOM     10  C   LIG    1        5.048   3.804  -0.203  0.00  0.00    -0.110 A 
ATOM     11  C   LIG    1        5.700   3.850  -1.421  0.00  0.00    +0.050 A 
ATOM     12  C   LIG    1        5.944   2.683  -2.119  0.00  0.00    +0.030 A 
ATOM     13  C   LIG    1        5.527   1.469  -1.603  0.00  0.00    -0.020 A 
ATOM     14  C   LIG    1        4.870   1.424  -0.387  0.00  0.00    +0.030 A 
ATOM     15 CL   LIG    1        5.828   0.002  -2.483  0.00  0.00    -0.060 Cl
ATOM     16  C   LIG    1        4.631   2.591   0.313  0.00  0.00    +0.040 A 
ENDBRANCH   5  10
BRANCH   9  17
ATOM     17  C   LIG    1        2.932   7.872  -1.303  0.00  0.00    -0.090 A 
ATOM     18  C   LIG    1        2.463   9.074  -0.767  0.00  0.00    +0.040 A 
ATOM     19  C   LIG    1        1.499   9.796  -1.439  0.00  0.00    +0.010 A 
ATOM     20  C   LIG    1        0.987   9.326  -2.636  0.00  0.00    +0.040 A 
ATOM     21  C   LIG    1        1.442   8.134  -3.170  0.00  0.00    +0.010 A 
ATOM     22  C   LIG    1        2.411   7.405  -2.512  0.00  0.00    +0.050 A 
ENDBRANCH   9  17
BRANCH   6  23
ATOM     23  C   LIG    1        2.420   5.252  -0.375  0.00  0.00    +0.600 C 
ATOM     24  N   LIG    1        1.420   5.471   0.501  0.00  0.00    -0.660 N 
ATOM     25  H   LIG    1        1.563   6.048   1.268  0.00  0.00    +0.410 HD
ATOM     26  O   LIG    1        2.231   4.552  -1.354  0.00  0.00    -0.490 OA
BRANCH  24  27
ATOM     27  C   LIG    1        0.175   4.865   0.306  0.00  0.00    +0.150 A 
ATOM     28  C   LIG    1       -0.659   4.623   1.391  0.00  0.00    -0.030 A 
ATOM     29  C   LIG    1       -1.888   4.024   1.194  0.00  0.00    +0.030 A 
ATOM     30  C   LIG    1       -2.287   3.661  -0.079  0.00  0.00    -0.020 A 
ATOM     31  C   LIG    1       -1.461   3.906  -1.161  0.00  0.00    +0.020 A 
ATOM     32  C   LIG    1       -0.231   4.504  -0.972  0.00  0.00    +0.020 A 
ENDBRANCH  24  27
ENDBRANCH   6  23
TORSDOF 4
