REMARK  Name = ZINCpk000000okpf.0
REMARK                            x       y       z     vdW  Elec       q    Type
REMARK                         _______ _______ _______ _____ _____    ______ ____
ROOT
ATOM      1  N   LIG    1       -3.680  -2.000   2.628  0.00  0.00    -0.600 N 
ATOM      2  C   LIG    1       -3.062  -1.731   1.460  0.00  0.00    +0.520 C 
ATOM      3  O   LIG    1       -3.544  -2.118   0.417  0.00  0.00    -0.540 OA
ENDROOT
BRANCH   1   4
ATOM      4  C   LIG    1       -3.098  -1.532   3.889  0.00  0.00    +0.270 C 
BRANCH   4   6
ATOM      5  C   LIG    1       -3.034   0.348   5.532  0.00  0.00    +0.020 C 
ATOM      6  C   LIG    1       -3.642  -0.140   4.216  0.00  0.00    -0.010 C 
ENDBRANCH   4   6
ENDBRANCH   1   4
BRANCH   2   7
ATOM      7  C   LIG    1       -1.774  -0.950   1.452  0.00  0.00    +0.050 C 
BRANCH   7   8
ATOM      8  C   LIG    1       -1.287  -0.785   0.011  0.00  0.00    +0.150 C 
BRANCH   8   9
ATOM      9  C   LIG    1        0.002  -0.004   0.002  0.00  0.00    -0.270 A 
ATOM     10  C   LIG    1        1.190  -0.645  -0.013  0.00  0.00    +0.200 A 
ATOM     11  N   LIG    1        2.351   0.080  -0.020  0.00  0.00    -0.630 N 
ATOM     12  H   LIG    1        3.205  -0.381  -0.031  0.00  0.00    +0.440 HD
ATOM     13  C   LIG    1        2.319   1.425  -0.012  0.00  0.00    +0.700 A 
ATOM     14  N   LIG    1        1.149   2.089   0.002  0.00  0.00    -0.660 N 
ATOM     15  H   LIG    1        1.144   3.059   0.007  0.00  0.00    +0.430 HD
ATOM     16  O   LIG    1        3.362   2.049  -0.019  0.00  0.00    -0.540 OA
ATOM     17  C   LIG    1        1.238  -2.151  -0.021  0.00  0.00    +0.160 C 
ATOM     18  C   LIG    1       -0.017   1.411   0.010  0.00  0.00    +0.550 A 
ATOM     19  O   LIG    1       -1.077   2.012   0.018  0.00  0.00    -0.510 OA
ENDBRANCH   8   9
ENDBRANCH   7   8
ENDBRANCH   2   7
BRANCH   1  20
ATOM     20  C   LIG    1       -4.933  -2.759   2.636  0.00  0.00    +0.330 C 
BRANCH  20  21
ATOM     21  C   LIG    1       -4.627  -4.230   2.749  0.00  0.00    -0.130 A 
ATOM     22  C   LIG    1       -4.649  -5.029   1.623  0.00  0.00    +0.050 A 
ATOM     23  C   LIG    1       -4.369  -6.380   1.726  0.00  0.00    +0.000 A 
ATOM     24  C   LIG    1       -4.067  -6.933   2.956  0.00  0.00    +0.030 A 
ATOM     25  C   LIG    1       -4.044  -6.139   4.085  0.00  0.00    -0.020 A 
ATOM     26  C   LIG    1       -4.319  -4.783   3.984  0.00  0.00    +0.120 A 
BRANCH  26  27
ATOM     27  O   LIG    1       -4.291  -3.998   5.093  0.00  0.00    -0.500 OA
ATOM     28  H   LIG    1       -5.139  -3.937   5.553  0.00  0.00    +0.390 HD
ENDBRANCH  26  27
ENDBRANCH  20  21
ENDBRANCH   1  20
TORSDOF 8
