REMARK  Name = ZINCrH000004oLKh.0
REMARK                            x       y       z     vdW  Elec       q    Type
REMARK                         _______ _______ _______ _____ _____    ______ ____
ROOT
ATOM      1  C   LIG    1        2.322  -0.120  -0.005  0.00  0.00    -0.120 A 
ATOM      2  C   LIG    1        1.149  -0.749   0.422  0.00  0.00    +0.090 A 
ATOM      3  C   LIG    1       -0.034  -0.046   0.453  0.00  0.00    +0.040 A 
ATOM      4  C   LIG    1       -0.063   1.288   0.058  0.00  0.00    +0.140 A 
ATOM      5  C   LIG    1        1.103   1.917  -0.368  0.00  0.00    +0.020 A 
ATOM      6  C   LIG    1        2.290   1.220  -0.401  0.00  0.00    +0.050 A 
ENDROOT
BRANCH   1  13
ATOM      7  C   LIG    1        8.332  -0.825  -0.906  0.00  0.00    +0.030 C 
ATOM      8  C   LIG    1        6.949  -0.171  -0.877  0.00  0.00    -0.030 C 
ATOM      9  C   LIG    1        7.078   1.274  -0.391  0.00  0.00    +0.030 C 
ATOM     10  C   LIG    1        5.700   1.939  -0.393  0.00  0.00    -0.020 C 
ATOM     11  C   LIG    1        4.772   1.187   0.567  0.00  0.00    +0.260 C 
ATOM     12  N   LIG    1        4.757  -0.234   0.192  0.00  0.00    -0.600 N 
ATOM     13  C   LIG    1        3.592  -0.871  -0.040  0.00  0.00    +0.560 C 
ATOM     14  O   LIG    1        3.587  -2.063  -0.277  0.00  0.00    -0.530 OA
ATOM     15  C   LIG    1        5.115   1.898  -1.806  0.00  0.00    +0.020 C 
ATOM     16  C   LIG    1        6.036  -0.949   0.082  0.00  0.00    +0.280 C 
ENDBRANCH   1  13
BRANCH   4  17
ATOM     17  N   LIG    1       -1.261   1.994   0.085  0.00  0.00    -1.060 N 
ATOM     18  H   LIG    1       -1.731   2.184  -0.742  0.00  0.00    +0.430 HD
BRANCH  17  19
ATOM     19  S   LIG    1       -1.887   2.509   1.530  0.00  0.00    +2.690 S 
ATOM     20  O   LIG    1       -1.902   1.376   2.387  0.00  0.00    -0.940 OA
ATOM     21  O   LIG    1       -3.050   3.263   1.217  0.00  0.00    -0.950 OA
BRANCH  19  22
ATOM     22  C   LIG    1       -0.730   3.643   2.224  0.00  0.00    -0.690 A 
ATOM     23  C   LIG    1        0.328   3.174   2.980  0.00  0.00    +0.160 A 
ATOM     24  C   LIG    1        1.239   4.061   3.521  0.00  0.00    -0.020 A 
ATOM     25  C   LIG    1        1.085   5.422   3.313  0.00  0.00    +0.160 A 
ATOM     26  C   LIG    1        0.022   5.891   2.561  0.00  0.00    -0.030 A 
ATOM     27  F   LIG    1        1.972   6.291   3.846  0.00  0.00    -0.130 F 
ATOM     28  C   LIG    1       -0.885   5.001   2.017  0.00  0.00    +0.160 A 
ENDBRANCH  19  22
ENDBRANCH  17  19
ENDBRANCH   4  17
TORSDOF 4
