REMARK  Name = ZINCpk00001AZiXw.0
REMARK                            x       y       z     vdW  Elec       q    Type
REMARK                         _______ _______ _______ _____ _____    ______ ____
ROOT
ATOM      1  N   LIG    1       -0.007   1.514  -0.014  0.00  0.00    -0.440 N 
ATOM      2  C   LIG    1        0.000   0.026  -0.038  0.00  0.00    +0.200 C 
ATOM      3  C   LIG    1        1.139  -0.351   0.950  0.00  0.00    +0.000 C 
ATOM      4  C   LIG    1        0.512  -0.564   2.315  0.00  0.00    +0.220 C 
ATOM      5  O   LIG    1        1.343  -0.160   3.384  0.00  0.00    -0.370 OA
ATOM      6  C   LIG    1        1.724   1.221   3.307  0.00  0.00    +0.220 C 
ATOM      7  C   LIG    1        2.678   1.366   2.125  0.00  0.00    +0.030 C 
ATOM      8  C   LIG    1        2.111   0.810   0.854  0.00  0.00    -0.060 C 
ATOM      9  C   LIG    1        1.432   1.888  -0.005  0.00  0.00    +0.230 C 
ENDROOT
BRANCH   8  10
ATOM     10  C   LIG    1        3.282   0.313   0.045  0.00  0.00    +0.540 C 
ATOM     11  N   LIG    1        4.261   1.165  -0.317  0.00  0.00    -0.620 N 
ATOM     12  C   LIG    1        4.371   2.571   0.099  0.00  0.00    +0.270 C 
ATOM     13  C   LIG    1        5.629   3.153  -0.579  0.00  0.00    +0.050 C 
ATOM     14  C   LIG    1        5.843   2.204  -1.788  0.00  0.00    +0.270 C 
ATOM     15  F   LIG    1        7.189   2.171  -2.168  0.00  0.00    -0.180 F 
ATOM     16  F   LIG    1        5.029   2.571  -2.864  0.00  0.00    -0.180 F 
ATOM     17  C   LIG    1        5.403   0.841  -1.192  0.00  0.00    +0.280 C 
ATOM     18  O   LIG    1        3.344  -0.854  -0.279  0.00  0.00    -0.520 OA
ENDBRANCH   8  10
BRANCH   1  23
ATOM     19  C   LIG    1       -2.409   3.675  -4.571  0.00  0.00    +0.140 C 
ATOM     20  C   LIG    1       -1.808   3.068  -3.330  0.00  0.00    +0.050 A 
ATOM     21  C   LIG    1       -2.577   2.249  -2.515  0.00  0.00    +0.050 A 
ATOM     22  C   LIG    1       -1.984   1.712  -1.384  0.00  0.00    +0.030 A 
ATOM     23  C   LIG    1       -0.649   2.028  -1.135  0.00  0.00    +0.230 A 
ATOM     24  N   LIG    1        0.004   2.824  -1.969  0.00  0.00    -0.270 NA
ATOM     25  N   LIG    1       -0.551   3.313  -3.018  0.00  0.00    -0.220 NA
ENDBRANCH   1  23
TORSDOF 2
