REMARK  Name = ZINCpe000000Y9YL.0
REMARK                            x       y       z     vdW  Elec       q    Type
REMARK                         _______ _______ _______ _____ _____    ______ ____
ROOT
ATOM      1  C   LIG    1       -0.065  -0.448   2.454  0.00  0.00    +0.180 A 
ATOM      2  C   LIG    1        0.580   0.728   2.822  0.00  0.00    +0.010 A 
ATOM      3  C   LIG    1        0.602   1.121   4.141  0.00  0.00    +0.100 A 
ATOM      4  C   LIG    1       -0.015   0.331   5.115  0.00  0.00    -0.150 A 
ATOM      5  C   LIG    1       -0.658  -0.855   4.743  0.00  0.00    +0.190 A 
ATOM      6  F   LIG    1       -1.255  -1.624   5.679  0.00  0.00    -0.100 F 
ATOM      7  C   LIG    1       -0.680  -1.238   3.416  0.00  0.00    +0.010 A 
ENDROOT
BRANCH   4   8
ATOM      8  C   LIG    1        0.013   0.745   6.531  0.00  0.00    +0.580 C 
ATOM      9  N   LIG    1        0.767   1.796   6.911  0.00  0.00    -0.600 N 
ATOM     10  C   LIG    1        1.517   2.683   6.010  0.00  0.00    +0.260 C 
ATOM     11  C   LIG    1        2.247   3.720   6.890  0.00  0.00    +0.050 C 
ATOM     12  C   LIG    1        2.320   3.014   8.270  0.00  0.00    +0.070 C 
ATOM     13  C   LIG    1        0.970   2.250   8.299  0.00  0.00    +0.220 C 
ATOM     14  O   LIG    1       -0.644   0.139   7.354  0.00  0.00    -0.500 OA
BRANCH  13  15
ATOM     15  C   LIG    1        1.056   1.069   9.230  0.00  0.00    +0.520 C 
ATOM     16  N   LIG    1        0.722   1.208  10.528  0.00  0.00    -0.620 N 
ATOM     17  C   LIG    1        0.382   2.531  11.059  0.00  0.00    +0.280 C 
ATOM     18  C   LIG    1        0.697   0.037  11.408  0.00  0.00    +0.290 C 
ATOM     19  O   LIG    1        1.426  -0.008   8.811  0.00  0.00    -0.510 OA
ENDBRANCH  13  15
ENDBRANCH   4   8
BRANCH   1  25
ATOM     20  C   LIG    1       -0.255   1.465   0.026  0.00  0.00    +0.230 C 
ATOM     21  C   LIG    1       -0.171  -0.040   0.024  0.00  0.00    +0.260 A 
ATOM     22  N   LIG    1       -0.170  -0.814  -1.029  0.00  0.00    -0.320 NA
ATOM     23  N   LIG    1       -0.083  -2.048  -0.683  0.00  0.00    -0.020 NA
ATOM     24  N   LIG    1       -0.033  -2.149   0.601  0.00  0.00    -0.070 NA
ATOM     25  N   LIG    1       -0.089  -0.839   1.110  0.00  0.00    -0.340 N 
ENDBRANCH   1  25
TORSDOF 3
