REMARK  Name = ZINCpk00000KfLB2.0
REMARK                            x       y       z     vdW  Elec       q    Type
REMARK                         _______ _______ _______ _____ _____    ______ ____
ROOT
ATOM      1  C   LIG    1        0.002  -0.004   0.002  0.00  0.00    +0.280 C 
ATOM      2  C   LIG    1        0.749  -0.492  -1.242  0.00  0.00    +0.190 C 
ATOM      3  N   LIG    1        2.102   0.083  -1.253  0.00  0.00    -0.510 NA
ATOM      4  C   LIG    1        2.043   1.552  -1.244  0.00  0.00    +0.160 C 
ATOM      5  C   LIG    1        1.284   2.019   0.001  0.00  0.00    +0.250 C 
ATOM      6  O   LIG    1       -0.017   1.426   0.010  0.00  0.00    -0.370 OA
ENDROOT
BRANCH   1  10
ATOM      7  C   LIG    1       -3.273  -1.494   0.510  0.00  0.00    +0.190 A 
ATOM      8  N   LIG    1       -3.384  -0.948  -0.669  0.00  0.00    -0.290 NA
ATOM      9  N   LIG    1       -2.279  -0.367  -0.983  0.00  0.00    -0.260 NA
ATOM     10  C   LIG    1       -1.411  -0.526  -0.021  0.00  0.00    +0.180 A 
ATOM     11  N   LIG    1       -2.018  -1.243   0.956  0.00  0.00    -0.570 N 
ATOM     12  H   LIG    1       -1.633  -1.520   1.802  0.00  0.00    +0.430 HD
BRANCH   7  13
ATOM     13  C   LIG    1       -4.343  -2.264   1.242  0.00  0.00    +0.150 C 
BRANCH  13  15
ATOM     14  C   LIG    1       -6.689  -2.183   2.099  0.00  0.00    +0.020 C 
ATOM     15  C   LIG    1       -5.602  -1.402   1.356  0.00  0.00    +0.020 C 
ENDBRANCH  13  15
ENDBRANCH   7  13
ENDBRANCH   1  10
BRANCH   3  16
ATOM     16  C   LIG    1        2.873  -0.406  -2.404  0.00  0.00    +0.190 C 
ATOM     17  C   LIG    1        2.305   0.195  -3.691  0.00  0.00    +0.030 C 
BRANCH  16  18
ATOM     18  C   LIG    1        4.315   0.002  -2.252  0.00  0.00    +0.510 C 
ATOM     19  N   LIG    1        5.215  -0.340  -3.195  0.00  0.00    -0.630 N 
ATOM     20  H   LIG    1        4.934  -0.848  -3.972  0.00  0.00    +0.430 HD
ATOM     21  O   LIG    1        4.667   0.638  -1.281  0.00  0.00    -0.470 OA
BRANCH  19  22
ATOM     22  C   LIG    1        6.543   0.036  -3.055  0.00  0.00    +0.210 A 
ATOM     23  C   LIG    1        7.567  -0.237  -3.917  0.00  0.00    -0.090 A 
ATOM     24  C   LIG    1        8.688   0.367  -3.312  0.00  0.00    +0.040 A 
ATOM     25  N   LIG    1        8.266   0.908  -2.204  0.00  0.00    -0.370 NA
ATOM     26  C   LIG    1       10.100   0.378  -3.840  0.00  0.00    +0.160 C 
ATOM     27  O   LIG    1        7.080   0.736  -2.044  0.00  0.00    +0.110 OA
ENDBRANCH  19  22
ENDBRANCH  16  18
ENDBRANCH   3  16
TORSDOF 6
