REMARK  Name = ZINCrD00000hQ5Rh.0
REMARK                            x       y       z     vdW  Elec       q    Type
REMARK                         _______ _______ _______ _____ _____    ______ ____
ROOT
ATOM      1  N   LIG    1        3.969   1.838   0.951  0.00  0.00    -0.460 N 
ATOM      2  C   LIG    1        5.429   1.693   0.867  0.00  0.00    +0.200 C 
ATOM      3  C   LIG    1        5.898   2.100  -0.533  0.00  0.00    +0.260 C 
ATOM      4  O   LIG    1        5.218   1.304  -1.507  0.00  0.00    -0.370 OA
ATOM      5  C   LIG    1        3.794   1.421  -1.455  0.00  0.00    +0.260 C 
ATOM      6  C   LIG    1        3.304   1.008  -0.065  0.00  0.00    +0.270 C 
ENDROOT
BRANCH   1  10
ATOM      7  C   LIG    1        2.608   0.889   4.715  0.00  0.00    -0.100 A 
ATOM      8  C   LIG    1        2.791  -0.064   3.734  0.00  0.00    +0.390 A 
ATOM      9  N   LIG    1        3.224   0.273   2.534  0.00  0.00    -0.490 NA
ATOM     10  C   LIG    1        3.510   1.528   2.226  0.00  0.00    +0.370 A 
ATOM     11  C   LIG    1        3.349   2.542   3.166  0.00  0.00    -0.120 A 
ATOM     12 BR   LIG    1        3.751   4.335   2.721  0.00  0.00    +0.030 Br
ATOM     13  C   LIG    1        2.890   2.220   4.431  0.00  0.00    +0.200 A 
BRANCH   7  15
ATOM     14  O   LIG    1        1.956   1.346   6.915  0.00  0.00    -0.140 OA
ATOM     15  N   LIG    1        2.115   0.499   6.054  0.00  0.00    +0.030 N 
ATOM     16  O   LIG    1        1.869  -0.669   6.296  0.00  0.00    -0.140 OA
ENDBRANCH   7  15
ENDBRANCH   1  10
BRANCH   6  17
ATOM     17  C   LIG    1        1.813   1.204   0.023  0.00  0.00    +0.150 A 
ATOM     18  N   LIG    1        1.192   2.345   0.144  0.00  0.00    -0.240 NA
ATOM     19  N   LIG    1       -0.077   2.141   0.189  0.00  0.00    -0.280 NA
ATOM     20  C   LIG    1       -0.312   0.853   0.097  0.00  0.00    +0.220 A 
ATOM     21  O   LIG    1        0.881   0.236  -0.010  0.00  0.00    -0.210 OA
BRANCH  20  22
ATOM     22  C   LIG    1       -1.639   0.201   0.109  0.00  0.00    -0.030 A 
ATOM     23  C   LIG    1       -1.739  -1.187  -0.003  0.00  0.00    +0.050 A 
ATOM     24  C   LIG    1       -2.980  -1.790   0.013  0.00  0.00    +0.020 A 
ATOM     25  C   LIG    1       -4.124  -1.021   0.131  0.00  0.00    +0.040 A 
ATOM     26  C   LIG    1       -4.032   0.355   0.237  0.00  0.00    +0.020 A 
ATOM     27  C   LIG    1       -2.797   0.970   0.227  0.00  0.00    +0.080 A 
ENDBRANCH  20  22
ENDBRANCH   6  17
TORSDOF 4
