REMARK  Name = ZINCrH000004kfXx.0
REMARK                            x       y       z     vdW  Elec       q    Type
REMARK                         _______ _______ _______ _____ _____    ______ ____
ROOT
ATOM      1  C   LIG    1       -5.620   2.615   1.491  0.00  0.00    -0.480 C 
ATOM      2  C   LIG    1       -5.605   4.143   1.417  0.00  0.00    +0.070 C 
ATOM      3  C   LIG    1       -4.157   4.640   1.389  0.00  0.00    +0.050 C 
ATOM      4  C   LIG    1       -3.456   4.088   0.149  0.00  0.00    +0.270 C 
ATOM      5  N   LIG    1       -3.592   2.626   0.134  0.00  0.00    -0.600 N 
ATOM      6  C   LIG    1       -2.506   1.836   0.023  0.00  0.00    +0.590 C 
ATOM      7  O   LIG    1       -2.636   0.629  -0.058  0.00  0.00    -0.500 OA
ATOM      8  C   LIG    1       -4.935   2.040   0.247  0.00  0.00    +0.330 C 
ENDROOT
BRANCH   6   9
ATOM      9  C   LIG    1       -1.164   2.432  -0.001  0.00  0.00    -0.210 A 
ATOM     10  C   LIG    1       -0.141   2.033   0.764  0.00  0.00    +0.020 A 
ATOM     11  C   LIG    1        1.063   2.736   0.580  0.00  0.00    -0.050 A 
ATOM     12  C   LIG    1        2.307   2.549   1.227  0.00  0.00    +0.090 A 
ATOM     13  C   LIG    1        3.372   3.334   0.913  0.00  0.00    +0.070 A 
ATOM     14  C   LIG    1        3.259   4.333  -0.045  0.00  0.00    -0.150 A 
ATOM     15  C   LIG    1        2.064   4.538  -0.691  0.00  0.00    +0.130 A 
ATOM     16  C   LIG    1        0.954   3.744  -0.386  0.00  0.00    -0.150 A 
ATOM     17 CL   LIG    1       -0.288   0.731   1.903  0.00  0.00    -0.010 Cl
ATOM     18  S   LIG    1       -0.683   3.767  -1.033  0.00  0.00    +0.210 S 
BRANCH  14  19
ATOM     19  C   LIG    1        4.451   5.194  -0.378  0.00  0.00    +0.510 C 
ATOM     20  F   LIG    1        4.147   6.533  -0.112  0.00  0.00    -0.170 F 
ATOM     21  F   LIG    1        4.767   5.047  -1.733  0.00  0.00    -0.170 F 
ATOM     22  F   LIG    1        5.543   4.799   0.401  0.00  0.00    -0.170 F 
ENDBRANCH  14  19
ENDBRANCH   6   9
BRANCH   1  23
ATOM     23  S   LIG    1       -7.335   2.029   1.563  0.00  0.00    +2.620 S 
ATOM     24  O   LIG    1       -7.998   2.275   0.331  0.00  0.00    -0.950 OA
ATOM     25  O   LIG    1       -7.933   2.388   2.801  0.00  0.00    -0.950 OA
BRANCH  23  27
ATOM     26  C   LIG    1       -6.583  -0.256   2.800  0.00  0.00    +0.300 C 
ATOM     27  N   LIG    1       -7.205   0.379   1.635  0.00  0.00    -1.120 NA
ATOM     28  H   LIG    1       -7.541  -0.166   0.907  0.00  0.00    +0.420 HD
ENDBRANCH  23  27
ENDBRANCH   1  23
TORSDOF 4
