REMARK  Name = ZINCvU0000000Es0.0
REMARK                            x       y       z     vdW  Elec       q    Type
REMARK                         _______ _______ _______ _____ _____    ______ ____
ROOT
ATOM      1  O   LIG    1       -3.005  11.444   0.482  0.00  0.00    -0.530 OA
ATOM      2  C   LIG    1       -2.661  10.933   1.527  0.00  0.00    +0.520 C 
ATOM      3  N   LIG    1       -3.022  11.489   2.700  0.00  0.00    -0.610 N 
ATOM      4  C   LIG    1       -2.612  10.881   3.974  0.00  0.00    +0.270 C 
ATOM      5  C   LIG    1       -3.858  10.656   4.836  0.00  0.00    +0.030 C 
ATOM      6  C   LIG    1       -4.616  11.978   4.985  0.00  0.00    +0.030 C 
ATOM      7  C   LIG    1       -5.064  12.469   3.607  0.00  0.00    +0.080 C 
ATOM      8  C   LIG    1       -3.828  12.717   2.731  0.00  0.00    +0.300 C 
ENDROOT
BRANCH   7   9
ATOM      9  C   LIG    1       -5.838  13.753   3.758  0.00  0.00    +0.100 A 
ATOM     10  N   LIG    1       -7.053  13.909   3.388  0.00  0.00    -0.460 NA
ATOM     11  C   LIG    1       -7.621  15.114   3.585  0.00  0.00    +0.080 A 
ATOM     12  C   LIG    1       -8.923  15.556   3.279  0.00  0.00    +0.080 A 
ATOM     13  C   LIG    1       -9.303  16.833   3.564  0.00  0.00    +0.030 A 
ATOM     14  C   LIG    1       -8.418  17.721   4.159  0.00  0.00    +0.040 A 
ATOM     15  C   LIG    1       -7.139  17.317   4.469  0.00  0.00    +0.060 A 
ATOM     16  C   LIG    1       -6.733  16.015   4.185  0.00  0.00    -0.180 A 
ATOM     17  S   LIG    1       -5.206  15.179   4.449  0.00  0.00    +0.100 S 
ENDBRANCH   7   9
BRANCH   2  18
ATOM     18  C   LIG    1       -1.829   9.677   1.513  0.00  0.00    +0.080 C 
BRANCH  18  19
ATOM     19  C   LIG    1       -1.561   9.259   0.065  0.00  0.00    +0.220 C 
BRANCH  19  20
ATOM     20  C   LIG    1       -0.729   8.002   0.051  0.00  0.00    +0.190 A 
ATOM     21  N   LIG    1       -1.178   6.772   0.043  0.00  0.00    -0.470 NA
ATOM     22  C   LIG    1       -0.079   5.984   0.034  0.00  0.00    +0.210 A 
ATOM     23  N   LIG    1        0.963   6.775   0.028  0.00  0.00    -0.370 NA
ATOM     24  O   LIG    1        0.606   7.934   0.038  0.00  0.00    +0.090 OA
BRANCH  22  25
ATOM     25  C   LIG    1       -0.059   4.500   0.026  0.00  0.00    -0.020 A 
ATOM     26  C   LIG    1        1.156   3.818   0.011  0.00  0.00    +0.070 A 
ATOM     27  C   LIG    1        1.169   2.438   0.004  0.00  0.00    +0.030 A 
ATOM     28  C   LIG    1       -0.021   1.732   0.012  0.00  0.00    -0.020 A 
ATOM     29  C   LIG    1       -1.231   2.405   0.021  0.00  0.00    +0.030 A 
ATOM     30 CL   LIG    1        0.002  -0.004   0.002  0.00  0.00    -0.060 Cl
ATOM     31  C   LIG    1       -1.255   3.785   0.033  0.00  0.00    +0.090 A 
ENDBRANCH  22  25
ENDBRANCH  19  20
ENDBRANCH  18  19
ENDBRANCH   2  18
TORSDOF 5
