REMARK  Name = ZINCtj00001n1jTo.0
REMARK                            x       y       z     vdW  Elec       q    Type
REMARK                         _______ _______ _______ _____ _____    ______ ____
ROOT
ATOM      1  O   LIG    1      -13.614   4.394   2.678  0.00  0.00    -0.510 OA
ATOM      2  C   LIG    1      -12.938   3.925   3.573  0.00  0.00    +0.580 C 
ATOM      3  N   LIG    1      -11.719   3.418   3.302  0.00  0.00    -0.600 N 
ATOM      4  C   LIG    1      -11.281   3.300   1.909  0.00  0.00    +0.300 C 
ATOM      5  C   LIG    1       -9.840   3.826   1.738  0.00  0.00    +0.040 C 
ATOM      6  C   LIG    1       -9.005   3.137   2.794  0.00  0.00    +0.200 C 
ATOM      7  C   LIG    1       -9.506   3.652   4.172  0.00  0.00    +0.190 C 
ATOM      8  N   LIG    1       -8.376   3.289   5.013  0.00  0.00    -0.730 N 
ATOM      9  H   LIG    1       -8.402   3.047   5.952  0.00  0.00    +0.440 HD
ATOM     10  C   LIG    1       -7.278   3.358   4.214  0.00  0.00    +0.710 C 
ATOM     11  O   LIG    1       -6.138   3.338   4.637  0.00  0.00    -0.570 OA
ATOM     12  N   LIG    1       -7.588   3.450   2.893  0.00  0.00    -0.630 N 
ATOM     13  C   LIG    1      -10.845   2.988   4.416  0.00  0.00    +0.320 C 
ENDROOT
BRANCH  12  14
ATOM     14  C   LIG    1       -6.683   3.801   1.797  0.00  0.00    +0.290 C 
ATOM     15  C   LIG    1       -6.107   5.199   2.035  0.00  0.00    +0.040 C 
ATOM     16  C   LIG    1       -5.102   5.527   0.929  0.00  0.00    +0.260 C 
ATOM     17  N   LIG    1       -4.016   4.540   0.941  0.00  0.00    -0.380 N 
ATOM     18  C   LIG    1       -4.552   3.207   0.641  0.00  0.00    +0.260 C 
ATOM     19  H   LIG    1       -3.583   4.529   1.853  0.00  0.00    +0.430 HD
ATOM     20  C   LIG    1       -5.535   2.790   1.738  0.00  0.00    +0.050 C 
BRANCH  17  21
ATOM     21  C   LIG    1       -3.014   4.902  -0.071  0.00  0.00    +0.260 C 
BRANCH  21  22
ATOM     22  C   LIG    1       -1.821   3.950   0.028  0.00  0.00    -0.040 C 
ATOM     23  C   LIG    1       -0.767   4.167  -1.071  0.00  0.00    +0.040 C 
ATOM     24  C   LIG    1        0.297   3.932   0.014  0.00  0.00    +0.030 C 
ATOM     25  C   LIG    1       -0.750   4.405   1.036  0.00  0.00    +0.020 C 
ENDBRANCH  21  22
ENDBRANCH  17  21
ENDBRANCH  12  14
BRANCH   2  26
ATOM     26  C   LIG    1      -13.453   3.913   4.962  0.00  0.00    +0.020 A 
ATOM     27  C   LIG    1      -14.612   4.617   5.284  0.00  0.00    +0.310 A 
ATOM     28  N   LIG    1      -15.071   4.599   6.523  0.00  0.00    -0.430 NA
ATOM     29  C   LIG    1      -14.427   3.922   7.457  0.00  0.00    +0.270 A 
ATOM     30  C   LIG    1      -13.270   3.224   7.141  0.00  0.00    +0.230 A 
ATOM     31  N   LIG    1      -12.809   3.233   5.907  0.00  0.00    -0.410 NA
ENDBRANCH   2  26
TORSDOF 4
