REMARK  Name = ZINCvU00000009DP.1
REMARK                            x       y       z     vdW  Elec       q    Type
REMARK                         _______ _______ _______ _____ _____    ______ ____
ROOT
ATOM      1  N   LIG    1        3.389   1.693  -0.966  0.00  0.00    -0.530 N 
ATOM      2  C   LIG    1        4.478   2.096  -0.286  0.00  0.00    +0.520 C 
ATOM      3  C   LIG    1        4.334   1.756   1.143  0.00  0.00    +0.120 C 
ATOM      4  C   LIG    1        3.146   1.138   1.337  0.00  0.00    -0.230 C 
ATOM      5  O   LIG    1        5.438   2.657  -0.776  0.00  0.00    -0.490 OA
ATOM      6  C   LIG    1        2.469   1.063  -0.012  0.00  0.00    +0.350 C 
ENDROOT
BRANCH   1  11
ATOM      7  C   LIG    1        2.515   2.312  -6.536  0.00  0.00    +0.090 C 
ATOM      8  C   LIG    1        2.747   2.148  -5.056  0.00  0.00    -0.100 A 
ATOM      9  C   LIG    1        3.918   2.614  -4.485  0.00  0.00    +0.040 A 
ATOM     10  C   LIG    1        4.134   2.465  -3.130  0.00  0.00    +0.010 A 
ATOM     11  C   LIG    1        3.174   1.846  -2.339  0.00  0.00    +0.160 A 
ATOM     12  C   LIG    1        2.002   1.374  -2.916  0.00  0.00    -0.010 A 
ATOM     13  C   LIG    1        1.790   1.531  -4.272  0.00  0.00    +0.040 A 
ENDBRANCH   1  11
BRANCH   6  14
ATOM     14  C   LIG    1        1.163   1.813   0.021  0.00  0.00    -0.110 A 
ATOM     15  C   LIG    1        1.159   3.195   0.018  0.00  0.00    +0.080 A 
ATOM     16  C   LIG    1       -0.040   3.883   0.048  0.00  0.00    +0.030 A 
ATOM     17  C   LIG    1       -1.234   3.189   0.080  0.00  0.00    +0.080 A 
ATOM     18  C   LIG    1       -1.231   1.806   0.078  0.00  0.00    -0.180 A 
ATOM     19  C   LIG    1       -0.032   1.118   0.053  0.00  0.00    +0.090 A 
BRANCH  18  20
ATOM     20  C   LIG    1       -2.534   1.050   0.107  0.00  0.00    +0.510 C 
ATOM     21  F   LIG    1       -2.377  -0.173  -0.554  0.00  0.00    -0.180 F 
ATOM     22  F   LIG    1       -3.525   1.802  -0.533  0.00  0.00    -0.170 F 
ATOM     23  F   LIG    1       -2.909   0.817   1.435  0.00  0.00    -0.170 F 
ENDBRANCH  18  20
ENDBRANCH   6  14
BRANCH   4  24
ATOM     24  C   LIG    1        2.616   0.639   2.611  0.00  0.00    +0.500 C 
ATOM     25  O   LIG    1        2.339   1.420   3.504  0.00  0.00    -0.420 OA
BRANCH  24  26
ATOM     26  C   LIG    1        2.421  -0.800   2.809  0.00  0.00    -0.300 A 
ATOM     27  C   LIG    1        1.841  -1.379   3.907  0.00  0.00    +0.120 A 
ATOM     28  C   LIG    1        1.786  -2.749   3.831  0.00  0.00    +0.000 A 
ATOM     29  C   LIG    1        2.300  -3.279   2.713  0.00  0.00    -0.050 A 
ATOM     30  S   LIG    1        2.886  -2.059   1.674  0.00  0.00    +0.220 S 
ENDBRANCH  24  26
ENDBRANCH   4  24
BRANCH   3  31
ATOM     31  O   LIG    1        5.247   2.019   2.107  0.00  0.00    -0.430 OA
ATOM     32  H   LIG    1        6.041   2.468   1.786  0.00  0.00    +0.420 HD
ENDBRANCH   3  31
TORSDOF 6
