REMARK  Name = ZINCrD000000fRWl.0
REMARK                            x       y       z     vdW  Elec       q    Type
REMARK                         _______ _______ _______ _____ _____    ______ ____
ROOT
ATOM      1  C   LIG    1        2.055   4.331   0.754  0.00  0.00    -0.390 A 
ATOM      2  C   LIG    1        1.151   3.567   0.034  0.00  0.00    +0.230 A 
ATOM      3  N   LIG    1        0.301   4.285  -0.667  0.00  0.00    -0.510 NA
ATOM      4  C   LIG    1        0.415   5.577  -0.602  0.00  0.00    +0.250 A 
ATOM      5  S   LIG    1        1.702   6.026   0.428  0.00  0.00    +0.320 S 
ENDROOT
BRANCH   2   6
ATOM      6  C   LIG    1        1.139   2.087   0.056  0.00  0.00    -0.040 A 
ATOM      7  C   LIG    1        1.227   1.404   1.269  0.00  0.00    +0.070 A 
ATOM      8  C   LIG    1        1.215   0.024   1.283  0.00  0.00    +0.000 A 
ATOM      9  C   LIG    1        1.117  -0.682   0.097  0.00  0.00    +0.020 A 
ATOM     10  C   LIG    1        1.030  -0.010  -1.109  0.00  0.00    +0.000 A 
ATOM     11  C   LIG    1        1.041   1.369  -1.137  0.00  0.00    +0.040 A 
ENDBRANCH   2   6
BRANCH   4  12
ATOM     12  N   LIG    1       -0.398   6.471  -1.276  0.00  0.00    -0.610 N 
ATOM     13  H   LIG    1       -1.111   6.143  -1.845  0.00  0.00    +0.430 HD
ATOM     14  C   LIG    1       -0.198   7.797  -1.142  0.00  0.00    +0.490 C 
ATOM     15  O   LIG    1        0.695   8.206  -0.430  0.00  0.00    -0.470 OA
BRANCH  14  16
ATOM     16  C   LIG    1       -1.083   8.770  -1.876  0.00  0.00    +0.420 C 
BRANCH  16  17
ATOM     17  N   LIG    1       -0.664  10.140  -1.567  0.00  0.00    -0.400 N 
ATOM     18  N   LIG    1       -1.135  10.945  -0.519  0.00  0.00    +0.010 NA
ATOM     19  N   LIG    1       -0.540  12.085  -0.554  0.00  0.00    -0.210 NA
ATOM     20  C   LIG    1        0.326  12.129  -1.587  0.00  0.00    -0.020 A 
ATOM     21  C   LIG    1        1.198  13.117  -2.062  0.00  0.00    +0.110 A 
ATOM     22  C   LIG    1        1.973  12.871  -3.158  0.00  0.00    +0.010 A 
ATOM     23  C   LIG    1        1.909  11.648  -3.813  0.00  0.00    +0.080 A 
ATOM     24  C   LIG    1        1.060  10.661  -3.365  0.00  0.00    +0.000 A 
ATOM     25  C   LIG    1        0.262  10.891  -2.250  0.00  0.00    +0.100 A 
ENDBRANCH  16  17
ENDBRANCH  14  16
ENDBRANCH   4  12
BRANCH   1  27
ATOM     26  C   LIG    1        3.884   4.797   2.427  0.00  0.00    +0.070 C 
ATOM     27  C   LIG    1        3.072   3.842   1.592  0.00  0.00    +0.420 C 
ATOM     28  O   LIG    1        3.296   2.648   1.643  0.00  0.00    -0.440 OA
ENDBRANCH   1  27
TORSDOF 5
