REMARK  Name = ZINCnE000001T8vd.0
REMARK                            x       y       z     vdW  Elec       q    Type
REMARK                         _______ _______ _______ _____ _____    ______ ____
ROOT
ATOM      1  S   LIG    1       -2.613   1.024   0.020  0.00  0.00    +2.570 S 
ATOM      2  O   LIG    1       -2.599   0.318   1.253  0.00  0.00    -1.010 OA
ATOM      3  O   LIG    1       -2.611   0.331  -1.221  0.00  0.00    -1.010 OA
ENDROOT
BRANCH   1   6
ATOM      4  O   LIG    1        0.002  -0.004   0.002  0.00  0.00    -0.590 OA
ATOM      5  C   LIG    1       -0.014   1.213   0.009  0.00  0.00    +0.580 C 
ATOM      6  N   LIG    1       -1.191   1.871   0.018  0.00  0.00    -1.130 NA
BRANCH   5   7
ATOM      7  C   LIG    1        1.244   1.962   0.001  0.00  0.00    -0.150 A 
ATOM      8  C   LIG    1        2.496   1.411  -0.009  0.00  0.00    -0.090 A 
ATOM      9  C   LIG    1        3.502   2.350  -0.019  0.00  0.00    +0.020 A 
ATOM     10  C   LIG    1        3.091   3.623  -0.008  0.00  0.00    -0.120 A 
ATOM     11 BR   LIG    1        2.811  -0.453  -0.013  0.00  0.00    -0.020 Br
ATOM     12  S   LIG    1        1.388   3.715   0.009  0.00  0.00    +0.270 S 
ENDBRANCH   5   7
ENDBRANCH   1   6
BRANCH   1  13
ATOM     13  C   LIG    1       -3.901   2.301   0.033  0.00  0.00    -0.340 C 
BRANCH  13  14
ATOM     14  C   LIG    1       -5.279   1.636   0.036  0.00  0.00    -0.030 C 
ATOM     15  C   LIG    1       -6.170   1.863   1.259  0.00  0.00    +0.030 C 
ATOM     16  C   LIG    1       -6.503   2.548  -0.070  0.00  0.00    -0.020 C 
BRANCH  16  17
ATOM     17  C   LIG    1       -7.709   2.023  -0.852  0.00  0.00    +0.100 C 
BRANCH  17  18
ATOM     18  C   LIG    1       -8.756   3.104  -0.946  0.00  0.00    -0.070 A 
ATOM     19  C   LIG    1       -9.732   3.207   0.028  0.00  0.00    +0.010 A 
ATOM     20  C   LIG    1      -10.689   4.201  -0.056  0.00  0.00    +0.000 A 
ATOM     21  C   LIG    1      -10.675   5.085  -1.118  0.00  0.00    -0.010 A 
ATOM     22  C   LIG    1       -9.703   4.978  -2.095  0.00  0.00    +0.000 A 
ATOM     23  C   LIG    1       -8.743   3.987  -2.008  0.00  0.00    +0.000 A 
ENDBRANCH  17  18
ENDBRANCH  16  17
ENDBRANCH  13  14
ENDBRANCH   1  13
TORSDOF 6
