REMARK  Name = ZINCrg00000Sjqxa.0
REMARK                            x       y       z     vdW  Elec       q    Type
REMARK                         _______ _______ _______ _____ _____    ______ ____
ROOT
ATOM      1  N   LIG    1       -5.488   6.854   2.064  0.00  0.00    -0.740 N 
ATOM      2  H   LIG    1       -5.657   7.311   1.225  0.00  0.00    +0.400 HD
ATOM      3  C   LIG    1       -4.479   5.966   2.157  0.00  0.00    +0.710 C 
ATOM      4  N   LIG    1       -3.642   5.785   1.116  0.00  0.00    -0.630 N 
ATOM      5  C   LIG    1       -3.877   6.460  -0.171  0.00  0.00    +0.250 C 
ATOM      6  C   LIG    1       -3.814   5.411  -1.286  0.00  0.00    +0.220 C 
ATOM      7  O   LIG    1       -2.596   4.672  -1.170  0.00  0.00    -0.360 OA
ATOM      8  C   LIG    1       -2.473   3.933   0.048  0.00  0.00    +0.220 C 
ATOM      9  C   LIG    1       -2.467   4.907   1.232  0.00  0.00    +0.300 C 
ATOM     10  O   LIG    1       -4.323   5.327   3.180  0.00  0.00    -0.580 OA
ENDROOT
BRANCH   8  11
ATOM     11  C   LIG    1       -1.185   3.150   0.034  0.00  0.00    +0.200 A 
ATOM     12  C   LIG    1       -1.207   1.765   0.026  0.00  0.00    -0.090 A 
ATOM     13  C   LIG    1       -0.000   1.083   0.018  0.00  0.00    +0.350 A 
ATOM     14  N   LIG    1        1.129   1.771   0.008  0.00  0.00    -0.550 NA
ATOM     15  C   LIG    1        1.115   3.096   0.011  0.00  0.00    +0.490 A 
ATOM     16  N   LIG    1       -0.021   3.778   0.024  0.00  0.00    -0.500 NA
BRANCH  15  17
ATOM     17  N   LIG    1        2.316   3.784   0.000  0.00  0.00    -0.450 N 
ATOM     18  C   LIG    1        2.473   4.600   1.232  0.00  0.00    +0.200 C 
ATOM     19  C   LIG    1        4.001   4.847   1.301  0.00  0.00    +0.030 C 
ATOM     20  C   LIG    1        4.591   3.507   0.803  0.00  0.00    +0.020 C 
ATOM     21  C   LIG    1        3.463   2.850  -0.013  0.00  0.00    +0.220 C 
ENDBRANCH  15  17
ENDBRANCH   8  11
BRANCH   1  22
ATOM     22  C   LIG    1       -6.330   7.130   3.231  0.00  0.00    +0.380 C 
BRANCH  22  28
ATOM     23  C   LIG    1       -6.005  10.213   3.270  0.00  0.00    +0.360 C 
ATOM     24  N   LIG    1       -7.221   9.492   2.886  0.00  0.00    -0.360 N 
ATOM     25  N   LIG    1       -8.428  10.072   2.475  0.00  0.00    -0.290 NA
ATOM     26  C   LIG    1       -9.279   9.111   2.223  0.00  0.00    +0.230 A 
ATOM     27  C   LIG    1       -8.641   7.889   2.461  0.00  0.00    -0.100 A 
ATOM     28  C   LIG    1       -7.376   8.152   2.865  0.00  0.00    +0.060 A 
ENDBRANCH  22  28
ENDBRANCH   1  22
TORSDOF 4
