REMARK  Name = ZINCrD0000075HEy.0
REMARK                            x       y       z     vdW  Elec       q    Type
REMARK                         _______ _______ _______ _____ _____    ______ ____
ROOT
ATOM      1  O   LIG    1       -1.408   7.280   0.507  0.00  0.00    -0.500 OA
ATOM      2  C   LIG    1       -1.220   6.134   0.869  0.00  0.00    +0.590 C 
ATOM      3  N   LIG    1       -1.029   5.862   2.175  0.00  0.00    -0.710 N 
ATOM      4  H   LIG    1       -0.808   4.960   2.455  0.00  0.00    +0.410 HD
ENDROOT
BRANCH   3   5
ATOM      5  C   LIG    1       -1.157   6.928   3.171  0.00  0.00    +0.240 C 
ATOM      6  C   LIG    1        0.165   7.673   3.280  0.00  0.00    +0.000 C 
ATOM      7  C   LIG    1        0.087   8.917   4.139  0.00  0.00    +0.230 C 
ATOM      8  O   LIG    1       -0.191   8.579   5.503  0.00  0.00    -0.320 OA
ATOM      9  C   LIG    1       -1.508   8.450   5.820  0.00  0.00    +0.100 A 
ATOM     10  C   LIG    1       -2.122   9.407   6.617  0.00  0.00    +0.000 A 
ATOM     11  C   LIG    1       -3.464   9.285   6.922  0.00  0.00    +0.030 A 
ATOM     12  C   LIG    1       -4.195   8.217   6.437  0.00  0.00    +0.010 A 
ATOM     13  C   LIG    1       -3.581   7.259   5.648  0.00  0.00    +0.030 A 
ATOM     14  C   LIG    1       -2.239   7.377   5.352  0.00  0.00    -0.110 A 
ATOM     15  C   LIG    1       -1.549   6.316   4.516  0.00  0.00    +0.100 C 
ENDBRANCH   3   5
BRANCH   2  16
ATOM     16  C   LIG    1       -1.200   5.047  -0.117  0.00  0.00    -0.010 A 
ATOM     17  C   LIG    1       -2.279   4.365  -0.610  0.00  0.00    -0.040 A 
ATOM     18  N   LIG    1       -1.828   3.461  -1.482  0.00  0.00    -0.450 NA
ATOM     19  C   LIG    1       -0.527   3.539  -1.563  0.00  0.00    +0.250 A 
ATOM     20  C   LIG    1        0.384   2.702  -2.431  0.00  0.00    +0.170 C 
ATOM     21  C   LIG    1        1.749   3.398  -2.505  0.00  0.00    +0.040 C 
ATOM     22  C   LIG    1        2.203   3.773  -1.091  0.00  0.00    +0.040 C 
ATOM     23  C   LIG    1        1.308   4.892  -0.548  0.00  0.00    +0.290 C 
ATOM     24  N   LIG    1       -0.093   4.510  -0.733  0.00  0.00    -0.420 N 
BRANCH  17  25
ATOM     25  C   LIG    1       -3.721   4.593  -0.234  0.00  0.00    +0.550 C 
ATOM     26  F   LIG    1       -3.791   5.053   1.085  0.00  0.00    -0.170 F 
ATOM     27  F   LIG    1       -4.428   3.391  -0.347  0.00  0.00    -0.160 F 
ATOM     28  F   LIG    1       -4.281   5.546  -1.091  0.00  0.00    -0.170 F 
ENDBRANCH  17  25
ENDBRANCH   2  16
TORSDOF 3
