REMARK  Name = ZINCqH00000505rb.0
REMARK                            x       y       z     vdW  Elec       q    Type
REMARK                         _______ _______ _______ _____ _____    ______ ____
ROOT
ATOM      1  C   LIG    1       -0.013   1.086   0.008  0.00  0.00    +0.310 C 
ENDROOT
BRANCH   1   2
ATOM      2  C   LIG    1        1.401   1.607  -0.003  0.00  0.00    -0.120 A 
ATOM      3  C   LIG    1        1.657   2.902  -0.413  0.00  0.00    +0.030 A 
ATOM      4  C   LIG    1        2.953   3.382  -0.419  0.00  0.00    +0.010 A 
ATOM      5  C   LIG    1        3.995   2.564  -0.023  0.00  0.00    +0.020 A 
ATOM      6  C   LIG    1        3.740   1.268   0.383  0.00  0.00    +0.020 A 
ATOM      7  C   LIG    1        2.443   0.789   0.392  0.00  0.00    +0.020 A 
ENDBRANCH   1   2
BRANCH   1  10
ATOM      8  N   LIG    1       -0.242   1.246   2.466  0.00  0.00    -0.620 N 
ATOM      9  H   LIG    1        0.555   0.699   2.544  0.00  0.00    +0.420 HD
ATOM     10  C   LIG    1       -0.718   1.572   1.248  0.00  0.00    +0.530 C 
ATOM     11  O   LIG    1       -1.714   2.256   1.150  0.00  0.00    -0.500 OA
BRANCH   8  15
ATOM     12  C   LIG    1       -3.415   3.430   5.630  0.00  0.00    +0.190 C 
ATOM     13  C   LIG    1       -2.289   2.656   4.994  0.00  0.00    -0.020 A 
ATOM     14  C   LIG    1       -2.061   2.504   3.669  0.00  0.00    -0.040 A 
ATOM     15  C   LIG    1       -0.894   1.696   3.614  0.00  0.00    +0.240 A 
ATOM     16  N   LIG    1       -0.552   1.463   4.853  0.00  0.00    -0.390 NA
ATOM     17  O   LIG    1       -1.316   1.988   5.630  0.00  0.00    +0.100 OA
ENDBRANCH   8  15
ENDBRANCH   1  10
BRANCH   1  18
ATOM     18  N   LIG    1       -0.721   1.571  -1.179  0.00  0.00    -0.730 N 
ATOM     19  H   LIG    1       -1.263   2.374  -1.126  0.00  0.00    +0.410 HD
BRANCH  18  20
ATOM     20  C   LIG    1       -0.617   0.876  -2.389  0.00  0.00    +0.190 A 
ATOM     21  C   LIG    1        0.162  -0.270  -2.471  0.00  0.00    -0.030 A 
ATOM     22  C   LIG    1        0.266  -0.957  -3.663  0.00  0.00    +0.040 A 
ATOM     23  C   LIG    1       -0.400  -0.501  -4.797  0.00  0.00    +0.050 A 
ATOM     24  O   LIG    1       -0.420  -1.010  -6.061  0.00  0.00    -0.310 OA
ATOM     25  C   LIG    1       -1.556  -0.482  -6.767  0.00  0.00    +0.240 C 
ATOM     26  C   LIG    1       -1.784   0.883  -6.076  0.00  0.00    +0.070 C 
ATOM     27  C   LIG    1       -1.178   0.647  -4.706  0.00  0.00    -0.130 A 
ATOM     28  C   LIG    1       -1.287   1.333  -3.518  0.00  0.00    -0.020 A 
ENDBRANCH  18  20
ENDBRANCH   1  18
TORSDOF 5
