REMARK  Name = ZINCpk00000y6wtP.0
REMARK                            x       y       z     vdW  Elec       q    Type
REMARK                         _______ _______ _______ _____ _____    ______ ____
ROOT
ATOM      1  N   LIG    1        2.005   3.696  -1.362  0.00  0.00    -0.510 NA
ATOM      2  C   LIG    1        0.828   3.667  -2.240  0.00  0.00    +0.170 C 
ATOM      3  C   LIG    1        1.198   4.239  -3.610  0.00  0.00    +0.040 C 
ATOM      4  C   LIG    1        2.331   3.407  -4.217  0.00  0.00    +0.010 C 
ATOM      5  C   LIG    1        3.527   3.414  -3.261  0.00  0.00    +0.130 C 
ATOM      6  C   LIG    1        3.090   2.866  -1.901  0.00  0.00    +0.210 C 
ENDROOT
BRANCH   5   7
ATOM      7  O   LIG    1        4.006   4.751  -3.106  0.00  0.00    -0.530 OA
ATOM      8  H   LIG    1        4.298   5.163  -3.931  0.00  0.00    +0.370 HD
ENDBRANCH   5   7
BRANCH   1   9
ATOM      9  C   LIG    1        1.654   3.284   0.003  0.00  0.00    +0.300 C 
BRANCH   9  18
ATOM     10  C   LIG    1        2.121   0.719  -0.014  0.00  0.00    -0.140 A 
ATOM     11  C   LIG    1        1.306  -0.426  -0.013  0.00  0.00    +0.110 A 
ATOM     12  C   LIG    1        1.603  -1.798  -0.024  0.00  0.00    +0.050 A 
ATOM     13  C   LIG    1        0.583  -2.701  -0.020  0.00  0.00    +0.040 A 
ATOM     14  C   LIG    1       -0.744  -2.245  -0.004  0.00  0.00    +0.010 A 
ATOM     15  C   LIG    1       -1.012  -0.923   0.006  0.00  0.00    +0.230 A 
ATOM     16  N   LIG    1        0.002  -0.004   0.002  0.00  0.00    -0.330 N 
ATOM     17  C   LIG    1       -0.017   1.365   0.009  0.00  0.00    +0.140 A 
ATOM     18  C   LIG    1        1.246   1.833   0.000  0.00  0.00    -0.100 A 
BRANCH  10  20
ATOM     19  N   LIG    1        4.688   0.781  -0.040  0.00  0.00    -0.430 NA
ATOM     20  C   LIG    1        3.552   0.754  -0.029  0.00  0.00    +0.290 C 
ENDBRANCH  10  20
ENDBRANCH   9  18
ENDBRANCH   1   9
BRANCH   5  21
ATOM     21  C   LIG    1        4.642   2.535  -3.832  0.00  0.00    +0.310 C 
BRANCH  21  22
ATOM     22  N   LIG    1        5.057   3.058  -5.136  0.00  0.00    -0.290 N 
ATOM     23  C   LIG    1        6.318   3.396  -5.490  0.00  0.00    +0.150 A 
ATOM     24  C   LIG    1        6.247   3.828  -6.771  0.00  0.00    +0.140 A 
ATOM     25  N   LIG    1        4.963   3.734  -7.133  0.00  0.00    -0.270 NA
ATOM     26  N   LIG    1        4.284   3.269  -6.144  0.00  0.00    -0.090 NA
ENDBRANCH  21  22
ENDBRANCH   5  21
TORSDOF 6
