REMARK  Name = ZINCvU0000000G6p.0
REMARK                            x       y       z     vdW  Elec       q    Type
REMARK                         _______ _______ _______ _____ _____    ______ ____
ROOT
ATOM      1  C   LIG    1        2.544   0.842   2.576  0.00  0.00    +0.240 A 
ATOM      2  N   LIG    1        3.464   1.716   2.916  0.00  0.00    -0.270 NA
ATOM      3  N   LIG    1        3.044   2.908   2.682  0.00  0.00    -0.290 NA
ATOM      4  C   LIG    1        1.833   2.868   2.173  0.00  0.00    +0.150 A 
ATOM      5  N   LIG    1        1.470   1.554   2.094  0.00  0.00    -0.450 N 
ENDROOT
BRANCH   5   6
ATOM      6  C   LIG    1        0.203   1.014   1.594  0.00  0.00    +0.240 C 
ATOM      7  C   LIG    1       -0.938   1.462   2.508  0.00  0.00    +0.010 C 
ATOM      8  C   LIG    1       -2.261   0.898   1.986  0.00  0.00    +0.040 C 
ATOM      9  C   LIG    1       -2.511   1.415   0.567  0.00  0.00    +0.010 C 
ATOM     10  C   LIG    1       -1.369   0.967  -0.347  0.00  0.00    +0.040 C 
ATOM     11  C   LIG    1       -0.046   1.531   0.175  0.00  0.00    -0.020 C 
ATOM     12  C   LIG    1        1.095   1.083  -0.739  0.00  0.00    +0.030 C 
ENDBRANCH   5   6
BRANCH   1  16
ATOM     13  C   LIG    1        2.831  -3.384   2.908  0.00  0.00    +0.150 A 
ATOM     14  C   LIG    1        3.971  -2.630   2.663  0.00  0.00    -0.010 A 
ATOM     15  C   LIG    1        3.882  -1.258   2.555  0.00  0.00    +0.110 A 
ATOM     16  C   LIG    1        2.644  -0.628   2.692  0.00  0.00    -0.060 A 
ATOM     17  C   LIG    1        1.501  -1.389   2.943  0.00  0.00    +0.060 A 
ATOM     18  C   LIG    1        1.598  -2.761   3.044  0.00  0.00    -0.070 A 
BRANCH  13  20
ATOM     19  C   LIG    1        1.711  -5.450   3.266  0.00  0.00    +0.240 C 
ATOM     20  O   LIG    1        2.923  -4.736   3.014  0.00  0.00    -0.310 OA
ENDBRANCH  13  20
ENDBRANCH   1  16
BRANCH   4  21
ATOM     21  S   LIG    1        0.858   4.253   1.688  0.00  0.00    +0.070 S 
BRANCH  21  22
ATOM     22  C   LIG    1        2.000   5.599   2.092  0.00  0.00    +0.080 C 
BRANCH  22  23
ATOM     23  C   LIG    1        1.360   6.920   1.750  0.00  0.00    +0.420 C 
ATOM     24  O   LIG    1        0.242   6.949   1.281  0.00  0.00    -0.430 OA
BRANCH  23  25
ATOM     25  C   LIG    1        2.091   8.173   1.987  0.00  0.00    -0.180 A 
ATOM     26  C   LIG    1        3.379   8.143   2.534  0.00  0.00    +0.110 A 
ATOM     27  C   LIG    1        4.061   9.321   2.748  0.00  0.00    -0.020 A 
ATOM     28  C   LIG    1        3.469  10.536   2.433  0.00  0.00    +0.140 A 
ATOM     29  C   LIG    1        2.190  10.572   1.896  0.00  0.00    -0.020 A 
ATOM     30  F   LIG    1        4.140  11.687   2.651  0.00  0.00    -0.130 F 
ATOM     31  C   LIG    1        1.500   9.402   1.671  0.00  0.00    +0.120 A 
ENDBRANCH  23  25
ENDBRANCH  22  23
ENDBRANCH  21  22
ENDBRANCH   4  21
TORSDOF 7
