REMARK  Name = ZINCqH0000000eff.0
REMARK                            x       y       z     vdW  Elec       q    Type
REMARK                         _______ _______ _______ _____ _____    ______ ____
ROOT
ATOM      1  N   LIG    1       -1.195   5.559  -3.351  0.00  0.00    -0.520 N 
ATOM      2  C   LIG    1       -1.761   5.619  -4.573  0.00  0.00    +0.530 C 
ATOM      3  O   LIG    1       -1.912   4.605  -5.221  0.00  0.00    -0.440 OA
ENDROOT
BRANCH   2   4
ATOM      4  C   LIG    1       -2.207   6.945  -5.133  0.00  0.00    +0.150 C 
ATOM      5  O   LIG    1       -3.565   6.851  -5.574  0.00  0.00    -0.290 OA
ATOM      6  C   LIG    1       -4.022   7.858  -6.368  0.00  0.00    +0.050 A 
ATOM      7  C   LIG    1       -5.388   8.025  -6.538  0.00  0.00    +0.030 A 
ATOM      8  C   LIG    1       -5.866   9.040  -7.345  0.00  0.00    +0.030 A 
ATOM      9  C   LIG    1       -4.985   9.891  -7.985  0.00  0.00    +0.030 A 
ATOM     10  C   LIG    1       -3.622   9.731  -7.819  0.00  0.00    +0.030 A 
ATOM     11  C   LIG    1       -3.135   8.716  -7.010  0.00  0.00    +0.050 A 
ATOM     12  O   LIG    1       -1.791   8.573  -6.853  0.00  0.00    -0.300 OA
ATOM     13  C   LIG    1       -1.333   7.317  -6.338  0.00  0.00    +0.170 C 
ATOM     14  C   LIG    1        0.127   7.440  -5.899  0.00  0.00    +0.090 C 
ENDBRANCH   2   4
BRANCH   1  15
ATOM     15  C   LIG    1       -0.672   4.359  -2.886  0.00  0.00    +0.270 A 
ATOM     16  N   LIG    1       -0.676   3.245  -3.542  0.00  0.00    -0.470 NA
ATOM     17  C   LIG    1       -0.135   2.183  -2.957  0.00  0.00    +0.100 A 
ATOM     18  C   LIG    1        0.350   2.442  -1.730  0.00  0.00    -0.240 A 
ATOM     19  C   LIG    1        1.020   1.434  -0.828  0.00  0.00    +0.120 C 
ATOM     20  C   LIG    1        0.700   0.027  -1.344  0.00  0.00    +0.030 C 
ATOM     21  C   LIG    1        0.984  -0.028  -2.848  0.00  0.00    +0.030 C 
ATOM     22  C   LIG    1       -0.061   0.803  -3.595  0.00  0.00    +0.130 C 
ATOM     23  S   LIG    1        0.072   4.140  -1.362  0.00  0.00    +0.130 S 
ENDBRANCH   1  15
BRANCH   1  24
ATOM     24  C   LIG    1       -1.132   6.760  -2.513  0.00  0.00    +0.330 C 
BRANCH  24  26
ATOM     25  C   LIG    1        0.279   8.677  -3.054  0.00  0.00    +0.060 C 
ATOM     26  C   LIG    1        0.210   7.422  -2.685  0.00  0.00    -0.080 C 
ENDBRANCH  24  26
ENDBRANCH   1  24
TORSDOF 4
