REMARK  Name = ZINC650000001I4Z.0
REMARK                            x       y       z     vdW  Elec       q    Type
REMARK                         _______ _______ _______ _____ _____    ______ ____
ROOT
ATOM      1  N   LIG    1       -2.029   1.313   1.423  0.00  0.00    -0.840 N 
ATOM      2  H   LIG    1       -2.483   1.625   2.221  0.00  0.00    +0.410 HD
ATOM      3  H   LIG    1       -2.519   0.813   0.750  0.00  0.00    +0.410 HD
ATOM      4  C   LIG    1       -0.718   1.572   1.248  0.00  0.00    +0.480 C 
ATOM      5  O   LIG    1       -0.106   2.196   2.088  0.00  0.00    -0.500 OA
ENDROOT
BRANCH   4   6
ATOM      6  C   LIG    1       -0.013   1.086   0.008  0.00  0.00    +0.400 C 
ATOM      7  F   LIG    1       -0.689   1.549  -1.125  0.00  0.00    -0.190 F 
ATOM      8  F   LIG    1        1.300   1.570  -0.002  0.00  0.00    -0.170 F 
ENDBRANCH   4   6
TORSDOF 1
