REMARK  Name = ZINCvU0000000JIs.0
REMARK                            x       y       z     vdW  Elec       q    Type
REMARK                         _______ _______ _______ _____ _____    ______ ____
ROOT
ATOM      1  C   LIG    1       -3.542  -2.603  -0.331  0.00  0.00    -0.210 A 
ATOM      2  C   LIG    1       -3.138  -3.240  -1.454  0.00  0.00    +0.110 A 
ATOM      3  N   LIG    1       -2.765  -4.493  -1.105  0.00  0.00    -0.330 N 
ATOM      4  N   LIG    1       -2.955  -4.629   0.276  0.00  0.00    -0.290 NA
ATOM      5  C   LIG    1       -3.106  -2.659  -2.844  0.00  0.00    +0.160 C 
ATOM      6  C   LIG    1       -3.420  -3.496   0.739  0.00  0.00    +0.110 A 
ATOM      7  C   LIG    1       -3.765  -3.204   2.177  0.00  0.00    +0.160 C 
ENDROOT
BRANCH   3   8
ATOM      8  C   LIG    1       -2.280  -5.481  -1.973  0.00  0.00    +0.160 A 
ATOM      9  C   LIG    1       -1.371  -5.149  -2.967  0.00  0.00    +0.040 A 
ATOM     10  C   LIG    1       -0.894  -6.125  -3.820  0.00  0.00    +0.050 A 
ATOM     11  C   LIG    1       -1.323  -7.433  -3.684  0.00  0.00    +0.080 A 
ATOM     12  C   LIG    1       -2.229  -7.767  -2.695  0.00  0.00    -0.170 A 
ATOM     13  C   LIG    1       -2.705  -6.796  -1.835  0.00  0.00    +0.080 A 
BRANCH  12  14
ATOM     14  C   LIG    1       -2.694  -9.193  -2.550  0.00  0.00    +0.510 C 
ATOM     15  F   LIG    1       -4.082  -9.251  -2.717  0.00  0.00    -0.170 F 
ATOM     16  F   LIG    1       -2.357  -9.667  -1.278  0.00  0.00    -0.170 F 
ATOM     17  F   LIG    1       -2.074  -9.986  -3.522  0.00  0.00    -0.170 F 
ENDBRANCH  12  14
ENDBRANCH   3   8
BRANCH   1  18
ATOM     18  C   LIG    1       -4.041  -1.183  -0.248  0.00  0.00    +0.150 C 
BRANCH  18  21
ATOM     19  N   LIG    1       -3.088   1.070   0.118  0.00  0.00    -0.670 N 
ATOM     20  H   LIG    1       -3.992   1.421   0.107  0.00  0.00    +0.410 HD
ATOM     21  C   LIG    1       -2.880  -0.257   0.006  0.00  0.00    +0.510 C 
ATOM     22  O   LIG    1       -1.758  -0.705   0.110  0.00  0.00    -0.510 OA
BRANCH  19  28
ATOM     23  C   LIG    1        3.663   4.048  -0.570  0.00  0.00    +0.140 C 
ATOM     24  C   LIG    1        2.240   3.640  -0.288  0.00  0.00    +0.080 A 
ATOM     25  C   LIG    1        1.648   2.532  -0.763  0.00  0.00    -0.050 A 
ATOM     26  C   LIG    1        0.276   2.526  -0.248  0.00  0.00    -0.090 A 
ATOM     27  C   LIG    1       -0.806   1.655  -0.387  0.00  0.00    +0.060 A 
ATOM     28  C   LIG    1       -1.999   1.942   0.250  0.00  0.00    +0.120 A 
ATOM     29  C   LIG    1       -2.124   3.098   1.019  0.00  0.00    +0.010 A 
ATOM     30  C   LIG    1       -1.062   3.962   1.163  0.00  0.00    +0.010 A 
ATOM     31  C   LIG    1        0.148   3.688   0.534  0.00  0.00    +0.080 A 
ATOM     32  N   LIG    1        1.360   4.343   0.488  0.00  0.00    -0.590 N 
ATOM     33  H   LIG    1        1.560   5.179   0.939  0.00  0.00    +0.410 HD
ENDBRANCH  19  28
ENDBRANCH  18  21
ENDBRANCH   1  18
TORSDOF 5
