REMARK  Name = ZINCrH000004qFMh.0
REMARK                            x       y       z     vdW  Elec       q    Type
REMARK                         _______ _______ _______ _____ _____    ______ ____
ROOT
ATOM      1  C   LIG    1       -0.014   1.209   0.009  0.00  0.00    +0.520 C 
ATOM      2  N   LIG    1        1.143   1.898   0.001  0.00  0.00    -0.620 N 
ATOM      3  H   LIG    1        1.130   2.868   0.007  0.00  0.00    +0.430 HD
ATOM      4  O   LIG    1        0.002  -0.004   0.002  0.00  0.00    -0.480 OA
ENDROOT
BRANCH   2   5
ATOM      5  C   LIG    1        2.357   1.220  -0.014  0.00  0.00    +0.240 A 
ATOM      6  N   LIG    1        3.523   1.785  -0.022  0.00  0.00    -0.490 NA
ATOM      7  C   LIG    1        4.574   0.986  -0.036  0.00  0.00    +0.100 A 
ATOM      8  C   LIG    1        4.281  -0.316  -0.041  0.00  0.00    -0.130 A 
ATOM      9  S   LIG    1        2.527  -0.481  -0.017  0.00  0.00    +0.250 S 
BRANCH   7  10
ATOM     10  C   LIG    1        5.990   1.502  -0.047  0.00  0.00    +0.280 C 
BRANCH  10  11
ATOM     11  N   LIG    1        6.395   1.791  -1.429  0.00  0.00    -0.530 NA
ATOM     12  C   LIG    1        6.474   0.557  -2.224  0.00  0.00    +0.150 C 
ATOM     13  C   LIG    1        6.840   0.909  -3.668  0.00  0.00    +0.160 C 
ATOM     14  O   LIG    1        8.069   1.640  -3.679  0.00  0.00    -0.380 OA
ATOM     15  C   LIG    1        8.028   2.848  -2.914  0.00  0.00    +0.160 C 
ATOM     16  C   LIG    1        9.396   3.531  -2.963  0.00  0.00    +0.060 C 
ATOM     17  C   LIG    1        7.002  -0.376  -4.482  0.00  0.00    +0.050 C 
ATOM     18  C   LIG    1        7.674   2.515  -1.463  0.00  0.00    +0.170 C 
ENDBRANCH  10  11
ENDBRANCH   7  10
ENDBRANCH   2   5
BRANCH   1  19
ATOM     19  C   LIG    1       -1.330   1.944   0.019  0.00  0.00    +0.270 C 
BRANCH  19  20
ATOM     20  O   LIG    1       -2.403   1.001   0.019  0.00  0.00    -0.280 OA
BRANCH  20  28
ATOM     21  C   LIG    1       -4.539  -0.847   0.019  0.00  0.00    +0.110 C 
ATOM     22  C   LIG    1       -4.755   0.644   0.028  0.00  0.00    -0.090 A 
ATOM     23  C   LIG    1       -6.038   1.157   0.037  0.00  0.00    +0.070 A 
ATOM     24  C   LIG    1       -6.237   2.526   0.046  0.00  0.00    -0.060 A 
ATOM     25  C   LIG    1       -5.152   3.385   0.045  0.00  0.00    +0.060 A 
ATOM     26  C   LIG    1       -3.867   2.876   0.042  0.00  0.00    -0.050 A 
ATOM     27 CL   LIG    1       -7.850   3.168   0.058  0.00  0.00    -0.070 Cl
ATOM     28  C   LIG    1       -3.666   1.503   0.028  0.00  0.00    +0.130 A 
ENDBRANCH  20  28
ENDBRANCH  19  20
ENDBRANCH   1  19
TORSDOF 6
