REMARK  Name = ZINCrH000004kl1w.0
REMARK                            x       y       z     vdW  Elec       q    Type
REMARK                         _______ _______ _______ _____ _____    ______ ____
ROOT
ATOM      1  N   LIG    1        7.393   5.647  -0.040  0.00  0.00    -0.730 N 
ATOM      2  H   LIG    1        7.773   4.755  -0.048  0.00  0.00    +0.400 HD
ATOM      3  C   LIG    1        6.055   5.810  -0.026  0.00  0.00    +0.560 C 
ATOM      4  O   LIG    1        5.578   6.928  -0.017  0.00  0.00    -0.530 OA
ENDROOT
BRANCH   3   5
ATOM      5  C   LIG    1        5.168   4.629  -0.024  0.00  0.00    -0.140 A 
ATOM      6  C   LIG    1        5.714   3.345  -0.035  0.00  0.00    +0.090 A 
ATOM      7  C   LIG    1        4.889   2.236  -0.032  0.00  0.00    +0.030 A 
ATOM      8  C   LIG    1        3.508   2.391  -0.018  0.00  0.00    +0.010 A 
ATOM      9  C   LIG    1        2.951   3.684  -0.006  0.00  0.00    -0.180 A 
ATOM     10  C   LIG    1        1.476   3.542   0.007  0.00  0.00    +0.450 C 
ATOM     11  C   LIG    1        1.178   2.090   0.002  0.00  0.00    -0.170 A 
ATOM     12  C   LIG    1       -0.017   1.381   0.010  0.00  0.00    +0.090 A 
ATOM     13  C   LIG    1        0.002  -0.004   0.002  0.00  0.00    +0.020 A 
ATOM     14  C   LIG    1        1.204  -0.684  -0.013  0.00  0.00    +0.050 A 
ATOM     15  C   LIG    1        2.404   0.011  -0.020  0.00  0.00    +0.040 A 
ATOM     16  O   LIG    1        0.664   4.445   0.020  0.00  0.00    -0.410 OA
ATOM     17  C   LIG    1        2.402   1.399  -0.013  0.00  0.00    -0.030 A 
ATOM     18  C   LIG    1        3.779   4.796  -0.009  0.00  0.00    +0.160 A 
ENDBRANCH   3   5
BRANCH   1  19
ATOM     19  C   LIG    1        8.272   6.819  -0.043  0.00  0.00    +0.260 C 
BRANCH  19  20
ATOM     20  C   LIG    1        9.732   6.361  -0.059  0.00  0.00    +0.010 C 
BRANCH  20  21
ATOM     21  C   LIG    1       10.651   7.584  -0.061  0.00  0.00    +0.020 C 
BRANCH  21  22
ATOM     22  C   LIG    1       12.110   7.125  -0.077  0.00  0.00    +0.020 C 
BRANCH  22  23
ATOM     23  C   LIG    1       13.029   8.349  -0.080  0.00  0.00    +0.030 C 
BRANCH  23  24
ATOM     24  C   LIG    1       14.489   7.890  -0.096  0.00  0.00    +0.110 C 
BRANCH  24  25
ATOM     25  C   LIG    1       15.394   9.095  -0.099  0.00  0.00    +0.460 C 
ATOM     26  O   LIG    1       14.920  10.207  -0.090  0.00  0.00    -0.510 OA
BRANCH  25  28
ATOM     27  C   LIG    1       17.536  10.139  -0.115  0.00  0.00    +0.250 C 
ATOM     28  O   LIG    1       16.726   8.934  -0.113  0.00  0.00    -0.360 OA
ENDBRANCH  25  28
ENDBRANCH  24  25
ENDBRANCH  23  24
ENDBRANCH  22  23
ENDBRANCH  21  22
ENDBRANCH  20  21
ENDBRANCH  19  20
ENDBRANCH   1  19
TORSDOF 9
