REMARK  Name = ZINCtV000002rOYR.0
REMARK                            x       y       z     vdW  Elec       q    Type
REMARK                         _______ _______ _______ _____ _____    ______ ____
ROOT
ATOM      1  N   LIG    1       -5.194   3.164   1.958  0.00  0.00    -0.550 N 
ATOM      2  C   LIG    1       -3.873   3.250   1.701  0.00  0.00    +0.570 C 
ATOM      3  O   LIG    1       -3.246   2.252   1.403  0.00  0.00    -0.520 OA
ENDROOT
BRANCH   2   4
ATOM      4  C   LIG    1       -3.186   4.561   1.783  0.00  0.00    +0.110 A 
ATOM      5  N   LIG    1       -3.895   5.646   2.021  0.00  0.00    -0.420 NA
ATOM      6  C   LIG    1       -3.320   6.846   2.098  0.00  0.00    +0.110 A 
ATOM      7  C   LIG    1       -4.085   8.002   2.346  0.00  0.00    +0.050 A 
ATOM      8  C   LIG    1       -3.471   9.214   2.420  0.00  0.00    +0.030 A 
ATOM      9  C   LIG    1       -2.093   9.334   2.253  0.00  0.00    +0.030 A 
ATOM     10  C   LIG    1       -1.319   8.240   2.010  0.00  0.00    +0.030 A 
ATOM     11  C   LIG    1       -1.917   6.972   1.928  0.00  0.00    -0.080 A 
ATOM     12  C   LIG    1       -1.150   5.818   1.680  0.00  0.00    +0.090 A 
ATOM     13  C   LIG    1       -1.794   4.617   1.612  0.00  0.00    +0.030 A 
ENDBRANCH   2   4
BRANCH   1  14
ATOM     14  C   LIG    1       -5.819   1.912   1.997  0.00  0.00    +0.110 A 
ATOM     15  C   LIG    1       -6.146   1.337   3.218  0.00  0.00    +0.050 A 
ATOM     16  C   LIG    1       -6.768   0.105   3.256  0.00  0.00    -0.020 A 
ATOM     17  C   LIG    1       -7.058  -0.564   2.074  0.00  0.00    +0.180 A 
ATOM     18  C   LIG    1       -6.726   0.009   0.853  0.00  0.00    -0.020 A 
ATOM     19  C   LIG    1       -6.108   1.243   0.814  0.00  0.00    +0.060 A 
BRANCH  17  20
ATOM     20  N   LIG    1       -7.684  -1.814   2.113  0.00  0.00    -0.690 N 
ATOM     21  H   LIG    1       -8.301  -2.069   1.410  0.00  0.00    +0.410 HD
BRANCH  20  22
ATOM     22  C   LIG    1       -7.420  -2.695   3.164  0.00  0.00    +0.180 A 
ATOM     23  C   LIG    1       -6.171  -2.697   3.774  0.00  0.00    -0.040 A 
ATOM     24  C   LIG    1       -5.915  -3.565   4.817  0.00  0.00    +0.030 A 
ATOM     25  C   LIG    1       -6.897  -4.440   5.247  0.00  0.00    -0.030 A 
ATOM     26  C   LIG    1       -8.139  -4.444   4.639  0.00  0.00    +0.030 A 
ATOM     27  C   LIG    1       -8.403  -3.575   3.599  0.00  0.00    -0.050 A 
ENDBRANCH  20  22
ENDBRANCH  17  20
ENDBRANCH   1  14
BRANCH   1  29
ATOM     28  C   LIG    1       -7.466   4.061   2.079  0.00  0.00    +0.030 C 
ATOM     29  C   LIG    1       -5.974   4.381   2.195  0.00  0.00    +0.250 C 
ATOM     30  C   LIG    1       -5.675   4.913   3.598  0.00  0.00    +0.030 C 
ENDBRANCH   1  29
TORSDOF 5
