REMARK  Name = ZINCqH0000037I0V.0
REMARK                            x       y       z     vdW  Elec       q    Type
REMARK                         _______ _______ _______ _____ _____    ______ ____
ROOT
ATOM      1  C   LIG    1       -0.815  -0.830  -1.528  0.00  0.00    +0.570 C 
ATOM      2  N   LIG    1        0.332  -0.468  -0.919  0.00  0.00    -0.580 N 
ATOM      3  C   LIG    1        0.305  -0.212   0.517  0.00  0.00    +0.290 C 
ATOM      4  C   LIG    1        0.616   1.265   0.786  0.00  0.00    +0.090 C 
ATOM      5  C   LIG    1        2.114   1.462   0.727  0.00  0.00    -0.090 A 
ATOM      6  C   LIG    1        2.813   1.720   1.893  0.00  0.00    +0.060 A 
ATOM      7  C   LIG    1        4.183   1.901   1.846  0.00  0.00    -0.010 A 
ATOM      8  C   LIG    1        4.851   1.825   0.636  0.00  0.00    +0.100 A 
ATOM      9  C   LIG    1        4.146   1.567  -0.528  0.00  0.00    -0.010 A 
ATOM     10  F   LIG    1        6.189   2.002   0.591  0.00  0.00    -0.140 F 
ATOM     11  C   LIG    1        2.775   1.387  -0.475  0.00  0.00    -0.050 A 
ATOM     12  C   LIG    1        2.012   1.106  -1.750  0.00  0.00    +0.030 C 
ATOM     13  C   LIG    1        0.800   2.036  -1.837  0.00  0.00    +0.030 C 
ATOM     14  C   LIG    1        1.541  -0.352  -1.728  0.00  0.00    +0.300 C 
ATOM     15  O   LIG    1       -0.825  -1.050  -2.723  0.00  0.00    -0.510 OA
ENDROOT
BRANCH   1  19
ATOM     16  C   LIG    1       -5.381  -2.774  -0.816  0.00  0.00    +0.170 C 
ATOM     17  C   LIG    1       -4.242  -1.882  -0.396  0.00  0.00    +0.190 A 
ATOM     18  C   LIG    1       -3.095  -1.794  -1.173  0.00  0.00    +0.030 A 
ATOM     19  C   LIG    1       -2.066  -0.958  -0.739  0.00  0.00    +0.140 A 
ATOM     20  N   LIG    1       -2.225  -0.274   0.391  0.00  0.00    -0.450 NA
ATOM     21  C   LIG    1       -3.333  -0.385   1.094  0.00  0.00    +0.240 A 
ATOM     22  N   LIG    1       -4.323  -1.170   0.715  0.00  0.00    -0.460 NA
BRANCH  21  23
ATOM     23  C   LIG    1       -3.474   0.407   2.368  0.00  0.00    +0.550 C 
ATOM     24  F   LIG    1       -2.220   0.889   2.758  0.00  0.00    -0.150 F 
ATOM     25  F   LIG    1       -3.991  -0.416   3.374  0.00  0.00    -0.160 F 
ATOM     26  F   LIG    1       -4.341   1.484   2.154  0.00  0.00    -0.160 F 
ENDBRANCH  21  23
ENDBRANCH   1  19
TORSDOF 2
