REMARK  Name = ZINC650000001I4W.0
REMARK                            x       y       z     vdW  Elec       q    Type
REMARK                         _______ _______ _______ _____ _____    ______ ____
ROOT
ATOM      1  S   LIG    1       -0.862   1.671   1.500  0.00  0.00    +2.620 S 
ATOM      2  O   LIG    1       -1.065   3.076   1.440  0.00  0.00    -0.960 OA
ATOM      3  O   LIG    1       -0.312   1.059   2.659  0.00  0.00    -0.960 OA
ATOM      4  C   LIG    1       -0.013   1.086   0.008  0.00  0.00    -0.280 C 
ENDROOT
BRANCH   1   6
ATOM      5  C   LIG    1       -2.577  -0.419   1.437  0.00  0.00    +0.290 C 
ATOM      6  N   LIG    1       -2.385   1.032   1.386  0.00  0.00    -1.130 NA
ATOM      7  H   LIG    1       -3.151   1.620   1.285  0.00  0.00    +0.420 HD
ENDBRANCH   1   6
TORSDOF 1
