REMARK  Name = ZINCnE000001Smun.0
REMARK                            x       y       z     vdW  Elec       q    Type
REMARK                         _______ _______ _______ _____ _____    ______ ____
ROOT
ATOM      1  C   LIG    1        0.080  -4.202   2.274  0.00  0.00    +0.230 C 
ENDROOT
BRANCH   1   3
ATOM      2  O   LIG    1        0.100  -4.055   4.629  0.00  0.00    -0.550 OA
ATOM      3  C   LIG    1        0.101  -4.787   3.662  0.00  0.00    +0.460 C 
ATOM      4  N   LIG    1        0.121  -6.124   3.829  0.00  0.00    -0.680 NA
BRANCH   4   5
ATOM      5  C   LIG    1        0.140  -6.665   5.111  0.00  0.00    +0.290 A 
ATOM      6  N   LIG    1        0.146  -5.986   6.218  0.00  0.00    -0.360 NA
ATOM      7  N   LIG    1        0.159  -6.634   7.302  0.00  0.00    -0.230 NA
ATOM      8  C   LIG    1        0.176  -7.925   7.206  0.00  0.00    -0.050 A 
ATOM      9  S   LIG    1        0.166  -8.335   5.490  0.00  0.00    +0.010 S 
BRANCH   8  10
ATOM     10  C   LIG    1        0.200  -8.902   8.353  0.00  0.00    +0.060 C 
ATOM     11  C   LIG    1        0.002  -8.342   9.762  0.00  0.00    +0.030 C 
ATOM     12  C   LIG    1        1.384  -8.827   9.320  0.00  0.00    +0.010 C 
ENDBRANCH   8  10
ENDBRANCH   4   5
ENDBRANCH   1   3
BRANCH   1  13
ATOM     13  O   LIG    1        0.062  -2.775   2.358  0.00  0.00    -0.290 OA
BRANCH  13  14
ATOM     14  C   LIG    1        0.042  -2.088   1.186  0.00  0.00    +0.140 A 
ATOM     15  C   LIG    1        0.040  -2.772  -0.020  0.00  0.00    -0.040 A 
ATOM     16  C   LIG    1        0.019  -2.071  -1.211  0.00  0.00    +0.060 A 
ATOM     17  C   LIG    1       -0.006  -0.689  -1.200  0.00  0.00    +0.010 A 
ATOM     18  C   LIG    1        0.002  -0.004   0.002  0.00  0.00    -0.150 A 
ATOM     19  C   LIG    1        0.023  -0.700   1.195  0.00  0.00    +0.030 A 
BRANCH  18  20
ATOM     20  C   LIG    1       -0.018   1.503   0.010  0.00  0.00    +0.510 C 
ATOM     21  F   LIG    1       -0.673   1.954   1.161  0.00  0.00    -0.170 F 
ATOM     22  F   LIG    1       -0.695   1.966  -1.123  0.00  0.00    -0.180 F 
ATOM     23  F   LIG    1        1.294   1.987   0.000  0.00  0.00    -0.180 F 
ENDBRANCH  18  20
ENDBRANCH  13  14
ENDBRANCH   1  13
TORSDOF 6
