REMARK  Name = ZINCqH0000000vXU.0
REMARK                            x       y       z     vdW  Elec       q    Type
REMARK                         _______ _______ _______ _____ _____    ______ ____
ROOT
ATOM      1  C   LIG    1        5.981   1.137  -0.049  0.00  0.00    +0.300 C 
ATOM      2  C   LIG    1        6.692   2.346  -0.662  0.00  0.00    +0.030 C 
ATOM      3  C   LIG    1        8.195   2.209  -0.395  0.00  0.00    +0.130 C 
ATOM      4  O   LIG    1        8.417   2.272   1.013  0.00  0.00    -0.300 OA
ATOM      5  C   LIG    1        7.647   1.489   1.813  0.00  0.00    +0.140 A 
ATOM      6  C   LIG    1        8.066   1.261   3.120  0.00  0.00    -0.020 A 
ATOM      7  C   LIG    1        7.309   0.475   3.965  0.00  0.00    +0.050 A 
ATOM      8  C   LIG    1        6.130  -0.088   3.512  0.00  0.00    -0.030 A 
ATOM      9  C   LIG    1        5.712   0.135   2.214  0.00  0.00    +0.060 A 
ATOM     10  C   LIG    1        8.945   3.347  -1.090  0.00  0.00    +0.040 C 
ATOM     11  C   LIG    1       10.450   3.156  -0.885  0.00  0.00    +0.220 C 
ATOM     12  O   LIG    1       10.840   1.877  -1.389  0.00  0.00    -0.380 OA
ATOM     13  C   LIG    1       10.206   0.774  -0.738  0.00  0.00    +0.220 C 
ATOM     14  C   LIG    1        8.691   0.868  -0.938  0.00  0.00    -0.010 C 
ATOM     15  C   LIG    1        6.469   0.922   1.361  0.00  0.00    -0.180 A 
ENDROOT
BRANCH   1  17
ATOM     16  C   LIG    1        3.680   0.337  -0.031  0.00  0.00    +0.580 C 
ATOM     17  N   LIG    1        4.536   1.377  -0.034  0.00  0.00    -0.720 N 
ATOM     18  H   LIG    1        4.195   2.285  -0.026  0.00  0.00    +0.400 HD
ATOM     19  O   LIG    1        4.107  -0.802  -0.042  0.00  0.00    -0.520 OA
BRANCH  16  22
ATOM     20  C   LIG    1        0.002  -0.004   0.002  0.00  0.00    -0.320 A 
ATOM     21  C   LIG    1        1.292  -0.447  -0.013  0.00  0.00    +0.170 A 
ATOM     22  C   LIG    1        2.226   0.578  -0.016  0.00  0.00    -0.170 A 
ATOM     23  C   LIG    1        1.682   1.833  -0.004  0.00  0.00    -0.020 A 
ATOM     24  S   LIG    1       -0.022   1.753   0.012  0.00  0.00    +0.290 S 
BRANCH  20  26
ATOM     25  C   LIG    1       -2.519  -0.219   0.025  0.00  0.00    +0.060 C 
ATOM     26  C   LIG    1       -1.143  -0.834   0.009  0.00  0.00    +0.420 C 
ATOM     27  O   LIG    1       -1.018  -2.042   0.000  0.00  0.00    -0.450 OA
ENDBRANCH  20  26
ENDBRANCH  16  22
ENDBRANCH   1  17
TORSDOF 3
