REMARK  Name = ZINCpk00000y6v2H.0
REMARK                            x       y       z     vdW  Elec       q    Type
REMARK                         _______ _______ _______ _____ _____    ______ ____
ROOT
ATOM      1  C   LIG    1        3.923  -0.985   1.114  0.00  0.00    +0.520 C 
ATOM      2  N   LIG    1        5.107  -1.520   1.474  0.00  0.00    -0.720 N 
ATOM      3  H   LIG    1        5.796  -1.666   0.807  0.00  0.00    +0.400 HD
ATOM      4  O   LIG    1        3.062  -0.803   1.948  0.00  0.00    -0.510 OA
ENDROOT
BRANCH   2   5
ATOM      5  C   LIG    1        5.353  -1.880   2.873  0.00  0.00    +0.290 C 
ATOM      6  C   LIG    1        6.418  -2.977   2.936  0.00  0.00    +0.010 C 
ATOM      7  C   LIG    1        6.869  -3.127   4.395  0.00  0.00    +0.260 C 
ATOM      8  O   LIG    1        7.509  -1.915   4.795  0.00  0.00    -0.320 OA
ATOM      9  C   LIG    1        6.868  -0.744   4.540  0.00  0.00    +0.140 A 
ATOM     10  C   LIG    1        7.276   0.398   5.220  0.00  0.00    -0.020 A 
ATOM     11  C   LIG    1        6.652   1.607   4.985  0.00  0.00    +0.050 A 
ATOM     12  C   LIG    1        5.618   1.683   4.071  0.00  0.00    -0.040 A 
ATOM     13  C   LIG    1        5.209   0.550   3.395  0.00  0.00    +0.060 A 
ATOM     14  C   LIG    1        5.830  -0.665   3.627  0.00  0.00    -0.180 A 
ENDBRANCH   2   5
BRANCH   1  15
ATOM     15  C   LIG    1        3.670  -0.615  -0.325  0.00  0.00    +0.190 C 
ATOM     16  C   LIG    1        4.553   0.574  -0.708  0.00  0.00    +0.030 C 
BRANCH  15  23
ATOM     17  C   LIG    1       -2.520   1.140  -2.104  0.00  0.00    +0.200 C 
ATOM     18  C   LIG    1       -1.379   1.428  -1.162  0.00  0.00    +0.180 A 
ATOM     19  N   LIG    1       -1.383   2.288  -0.175  0.00  0.00    -0.300 NA
ATOM     20  N   LIG    1       -0.239   2.272   0.421  0.00  0.00    -0.280 NA
ATOM     21  C   LIG    1        0.535   1.404  -0.152  0.00  0.00    +0.180 A 
ATOM     22  C   LIG    1        1.955   1.023   0.183  0.00  0.00    +0.330 C 
ATOM     23  N   LIG    1        2.257  -0.250  -0.495  0.00  0.00    -0.520 NA
ATOM     24  C   LIG    1        1.896  -0.194  -1.919  0.00  0.00    +0.210 C 
ATOM     25  C   LIG    1        0.368  -0.182  -2.066  0.00  0.00    +0.310 C 
ATOM     26  N   LIG    1       -0.168   0.845  -1.173  0.00  0.00    -0.470 N 
ENDBRANCH  15  23
ENDBRANCH   1  15
TORSDOF 3
