REMARK  Name = ZINCtV00001bB3h5.0
REMARK                            x       y       z     vdW  Elec       q    Type
REMARK                         _______ _______ _______ _____ _____    ______ ____
ROOT
ATOM      1  C   LIG    1       -2.386   0.120   1.099  0.00  0.00    +0.040 C 
ATOM      2  C   LIG    1       -2.178   1.632   1.202  0.00  0.00    +0.010 C 
ATOM      3  C   LIG    1       -3.538   2.334   1.212  0.00  0.00    +0.210 C 
ATOM      4  N   LIG    1       -4.254   2.040  -0.036  0.00  0.00    -0.410 N 
ATOM      5  C   LIG    1       -3.516   2.543  -1.202  0.00  0.00    +0.220 C 
ATOM      6  C   LIG    1       -2.156   1.846  -1.286  0.00  0.00    +0.060 C 
ATOM      7  C   LIG    1       -1.367   2.120  -0.002  0.00  0.00    +0.040 C 
ENDROOT
BRANCH   7   8
ATOM      8  C   LIG    1       -0.051   1.387  -0.053  0.00  0.00    -0.080 A 
ATOM      9  C   LIG    1        1.107   2.016   0.364  0.00  0.00    +0.050 A 
ATOM     10  C   LIG    1        2.313   1.341   0.322  0.00  0.00    +0.020 A 
ATOM     11  C   LIG    1        2.361   0.038  -0.135  0.00  0.00    +0.070 A 
ATOM     12  C   LIG    1        1.202  -0.591  -0.552  0.00  0.00    -0.180 A 
ATOM     13  C   LIG    1       -0.004   0.084  -0.512  0.00  0.00    +0.080 A 
BRANCH  12  14
ATOM     14  C   LIG    1        1.254  -2.012  -1.051  0.00  0.00    +0.510 C 
ATOM     15  F   LIG    1        0.795  -2.059  -2.372  0.00  0.00    -0.180 F 
ATOM     16  F   LIG    1        0.443  -2.819  -0.246  0.00  0.00    -0.180 F 
ATOM     17  F   LIG    1        2.573  -2.477  -0.999  0.00  0.00    -0.180 F 
ENDBRANCH  12  14
ENDBRANCH   7   8
BRANCH   4  18
ATOM     18  C   LIG    1       -5.529   2.550  -0.004  0.00  0.00    +0.360 A 
ATOM     19  N   LIG    1       -6.434   2.463  -0.960  0.00  0.00    -0.480 NA
ATOM     20  C   LIG    1       -7.525   3.101  -0.483  0.00  0.00    +0.230 A 
ATOM     21  N   LIG    1       -7.228   3.540   0.712  0.00  0.00    -0.380 NA
ATOM     22  O   LIG    1       -6.091   3.234   1.003  0.00  0.00    +0.050 OA
BRANCH  20  23
ATOM     23  C   LIG    1       -8.820   3.276  -1.188  0.00  0.00    -0.010 A 
ATOM     24  C   LIG    1       -9.862   3.966  -0.573  0.00  0.00    +0.060 A 
ATOM     25  C   LIG    1      -11.064   4.128  -1.232  0.00  0.00    +0.030 A 
ATOM     26  C   LIG    1      -11.235   3.606  -2.501  0.00  0.00    +0.050 A 
ATOM     27  C   LIG    1      -10.203   2.919  -3.118  0.00  0.00    -0.040 A 
ATOM     28 CL   LIG    1      -10.425   2.268  -4.711  0.00  0.00    -0.060 Cl
ATOM     29  C   LIG    1       -8.995   2.757  -2.468  0.00  0.00    +0.080 A 
ENDBRANCH  20  23
ENDBRANCH   4  18
TORSDOF 4
