REMARK  Name = ZINCrg00000SjSGc.0
REMARK                            x       y       z     vdW  Elec       q    Type
REMARK                         _______ _______ _______ _____ _____    ______ ____
ROOT
ATOM      1  C   LIG    1       -2.876   4.934  -3.036  0.00  0.00    +0.620 C 
ATOM      2  N   LIG    1       -2.516   4.409  -1.847  0.00  0.00    -0.620 N 
ATOM      3  C   LIG    1       -1.139   4.120  -1.420  0.00  0.00    +0.270 C 
ATOM      4  C   LIG    1       -1.214   3.556   0.014  0.00  0.00    +0.270 C 
ATOM      5  C   LIG    1       -2.578   4.088   0.526  0.00  0.00    +0.190 C 
ATOM      6  C   LIG    1       -3.438   4.030  -0.761  0.00  0.00    +0.230 C 
ATOM      7  O   LIG    1       -2.022   5.302  -3.822  0.00  0.00    -0.520 OA
ENDROOT
BRANCH   1  14
ATOM      8  C   LIG    1       -8.499   6.246  -5.131  0.00  0.00    +0.170 C 
ATOM      9  C   LIG    1       -7.011   6.488  -5.108  0.00  0.00    +0.200 A 
ATOM     10  C   LIG    1       -6.462   7.461  -5.878  0.00  0.00    -0.050 A 
ATOM     11  C   LIG    1       -5.078   7.669  -5.838  0.00  0.00    +0.220 A 
ATOM     12  N   LIG    1       -4.323   6.930  -5.055  0.00  0.00    -0.460 NA
ATOM     13  C   LIG    1       -4.857   5.977  -4.291  0.00  0.00    +0.330 A 
ATOM     14  C   LIG    1       -4.295   5.061  -3.381  0.00  0.00    -0.300 A 
ATOM     15  C   LIG    1       -5.354   4.295  -2.863  0.00  0.00    +0.330 A 
ATOM     16  N   LIG    1       -6.471   4.700  -3.409  0.00  0.00    -0.310 NA
ATOM     17  C   LIG    1       -4.453   8.741  -6.693  0.00  0.00    +0.160 C 
ATOM     18  N   LIG    1       -6.202   5.741  -4.304  0.00  0.00    -0.310 N 
ENDBRANCH   1  14
BRANCH   4  19
ATOM     19  N   LIG    1       -1.202   2.091  -0.003  0.00  0.00    -0.710 N 
ATOM     20  H   LIG    1       -2.038   1.599  -0.003  0.00  0.00    +0.400 HD
ATOM     21  C   LIG    1       -0.029   1.427  -0.019  0.00  0.00    +0.600 C 
ATOM     22  O   LIG    1        1.020   2.044  -0.025  0.00  0.00    -0.520 OA
BRANCH  21  23
ATOM     23  C   LIG    1       -0.017  -0.039  -0.037  0.00  0.00    -0.270 A 
ATOM     24  C   LIG    1        1.102  -0.822  -0.060  0.00  0.00    +0.110 A 
ATOM     25  C   LIG    1        0.824  -2.168  -0.071  0.00  0.00    +0.000 A 
ATOM     26  C   LIG    1       -0.478  -2.479  -0.059  0.00  0.00    -0.060 A 
ATOM     27  S   LIG    1       -1.441  -1.071  -0.024  0.00  0.00    +0.200 S 
ENDBRANCH  21  23
ENDBRANCH   4  19
BRANCH   5  28
ATOM     28  O   LIG    1       -3.114   3.233   1.538  0.00  0.00    -0.550 OA
ATOM     29  H   LIG    1       -3.967   3.525   1.889  0.00  0.00    +0.390 HD
ENDBRANCH   5  28
TORSDOF 4
