REMARK  Name = ZINCvU0000000Dyt.0
REMARK                            x       y       z     vdW  Elec       q    Type
REMARK                         _______ _______ _______ _____ _____    ______ ____
ROOT
ATOM      1  N   LIG    1       -1.204   6.764  -0.053  0.00  0.00    -0.490 N 
ATOM      2  C   LIG    1       -0.812   8.052   0.003  0.00  0.00    +0.480 A 
ATOM      3  N   LIG    1        0.533   8.066   0.103  0.00  0.00    -0.360 N 
ATOM      4  N   LIG    1        0.969   6.734   0.115  0.00  0.00    -0.260 NA
ATOM      5  S   LIG    1       -1.836   9.423  -0.052  0.00  0.00    -0.570 S 
ATOM      6  C   LIG    1       -0.080   5.965   0.024  0.00  0.00    +0.320 A 
ENDROOT
BRANCH   6   7
ATOM      7  C   LIG    1       -0.068   4.486   0.001  0.00  0.00    -0.040 A 
ATOM      8  C   LIG    1       -1.215   3.771   0.346  0.00  0.00    +0.060 A 
ATOM      9  C   LIG    1       -1.198   2.392   0.323  0.00  0.00    +0.040 A 
ATOM     10  C   LIG    1       -0.044   1.717  -0.040  0.00  0.00    -0.010 A 
ATOM     11  C   LIG    1        1.099   2.422  -0.378  0.00  0.00    +0.040 A 
ATOM     12 CL   LIG    1       -0.030  -0.019  -0.066  0.00  0.00    -0.050 Cl
ATOM     13  C   LIG    1        1.091   3.801  -0.364  0.00  0.00    +0.100 A 
ENDBRANCH   6   7
BRANCH   1  14
ATOM     14  C   LIG    1       -2.586   6.291  -0.172  0.00  0.00    +0.330 C 
BRANCH  14  16
ATOM     15  C   LIG    1       -4.621   5.614   1.110  0.00  0.00    +0.050 C 
ATOM     16  C   LIG    1       -3.226   6.233   1.217  0.00  0.00    +0.010 C 
ENDBRANCH  14  16
ENDBRANCH   1  14
BRANCH   3  17
ATOM     17  C   LIG    1        1.383   9.257   0.186  0.00  0.00    +0.520 C 
BRANCH  17  18
ATOM     18  N   LIG    1        2.057   9.467  -1.102  0.00  0.00    -0.550 NA
ATOM     19  C   LIG    1        3.240   8.604  -1.225  0.00  0.00    +0.200 C 
ATOM     20  C   LIG    1        3.866   8.795  -2.608  0.00  0.00    +0.190 C 
ATOM     21  N   LIG    1        4.228  10.208  -2.788  0.00  0.00    -0.530 NA
ATOM     22  C   LIG    1        3.045  11.071  -2.665  0.00  0.00    +0.200 C 
ATOM     23  C   LIG    1        2.419  10.880  -1.282  0.00  0.00    +0.200 C 
BRANCH  21  24
ATOM     24  C   LIG    1        4.902  10.418  -4.076  0.00  0.00    +0.230 C 
BRANCH  24  25
ATOM     25  C   LIG    1        6.232   9.709  -4.069  0.00  0.00    -0.070 A 
ATOM     26  C   LIG    1        7.366  10.371  -3.636  0.00  0.00    +0.050 A 
ATOM     27  C   LIG    1        8.585   9.719  -3.624  0.00  0.00    +0.020 A 
ATOM     28  C   LIG    1        8.671   8.408  -4.056  0.00  0.00    -0.030 A 
ATOM     29  C   LIG    1        7.537   7.748  -4.495  0.00  0.00    +0.020 A 
ATOM     30 CL   LIG    1       10.203   7.590  -4.048  0.00  0.00    -0.070 Cl
ATOM     31  C   LIG    1        6.318   8.399  -4.501  0.00  0.00    +0.030 A 
ENDBRANCH  24  25
ENDBRANCH  21  24
ENDBRANCH  17  18
ENDBRANCH   3  17
TORSDOF 7
