REMARK  Name = ZINCvU00000006VO.0
REMARK                            x       y       z     vdW  Elec       q    Type
REMARK                         _______ _______ _______ _____ _____    ______ ____
ROOT
ATOM      1  C   LIG    1       -0.364   0.186   0.110  0.00  0.00    +0.300 A 
ATOM      2  N   LIG    1       -0.675   1.455   0.095  0.00  0.00    -0.520 NA
ATOM      3  C   LIG    1        0.435   2.196   0.211  0.00  0.00    +0.260 A 
ATOM      4  N   LIG    1        1.471   1.391   0.302  0.00  0.00    -0.290 NA
ATOM      5  N   LIG    1        0.971   0.080   0.238  0.00  0.00    -0.370 N 
ENDROOT
BRANCH   3   6
ATOM      6  C   LIG    1        0.488   3.678   0.234  0.00  0.00    +0.070 A 
ATOM      7  C   LIG    1       -0.680   4.440   0.124  0.00  0.00    -0.010 A 
ATOM      8  C   LIG    1       -0.591   5.815   0.154  0.00  0.00    +0.310 A 
ATOM      9  N   LIG    1        0.578   6.417   0.275  0.00  0.00    -0.520 NA
ATOM     10  C   LIG    1        1.708   5.737   0.377  0.00  0.00    +0.310 A 
ATOM     11  C   LIG    1        1.705   4.350   0.360  0.00  0.00    +0.000 A 
BRANCH  10  12
ATOM     12  O   LIG    1        2.883   6.403   0.498  0.00  0.00    -0.240 OA
BRANCH  12  13
ATOM     13  C   LIG    1        2.840   7.756   0.620  0.00  0.00    +0.050 A 
ATOM     14  C   LIG    1        2.459   8.344   1.822  0.00  0.00    +0.070 A 
ATOM     15  C   LIG    1        2.430   9.728   1.898  0.00  0.00    -0.020 A 
ATOM     16  C   LIG    1        2.778  10.472   0.786  0.00  0.00    +0.260 A 
ATOM     17  N   LIG    1        3.134   9.883  -0.338  0.00  0.00    -0.470 NA
ATOM     18  C   LIG    1        3.181   8.570  -0.450  0.00  0.00    +0.270 A 
ENDBRANCH  12  13
ENDBRANCH  10  12
ENDBRANCH   3   6
BRANCH   5  19
ATOM     19  C   LIG    1        1.749  -1.160   0.300  0.00  0.00    +0.240 C 
ATOM     20  C   LIG    1        2.510  -1.220   1.628  0.00  0.00    +0.030 C 
ATOM     21  C   LIG    1        3.380  -2.481   1.648  0.00  0.00    +0.020 C 
ATOM     22  C   LIG    1        4.320  -2.462   0.440  0.00  0.00    +0.210 C 
ATOM     23  O   LIG    1        3.550  -2.374  -0.760  0.00  0.00    -0.370 OA
ATOM     24  C   LIG    1        2.751  -1.193  -0.857  0.00  0.00    +0.230 C 
ENDBRANCH   5  19
BRANCH   1  25
ATOM     25  C   LIG    1       -1.335  -0.962   0.002  0.00  0.00    +0.080 C 
BRANCH  25  26
ATOM     26  C   LIG    1       -2.332  -0.898   1.161  0.00  0.00    +0.050 C 
ATOM     27  C   LIG    1       -1.595  -1.135   2.481  0.00  0.00    +0.010 C 
ENDBRANCH  25  26
BRANCH  25  28
ATOM     28  C   LIG    1       -2.090  -0.868  -1.325  0.00  0.00    +0.070 C 
BRANCH  28  31
ATOM     29  C   LIG    1       -5.126  -3.153  -1.879  0.00  0.00    +0.070 C 
ATOM     30  C   LIG    1       -4.250  -1.939  -1.712  0.00  0.00    -0.040 C 
ATOM     31  C   LIG    1       -2.967  -2.082  -1.492  0.00  0.00    -0.060 C 
ENDBRANCH  28  31
ENDBRANCH  25  28
ENDBRANCH   1  25
TORSDOF 8
