REMARK  Name = ZINCrD0000075rOF.0
REMARK                            x       y       z     vdW  Elec       q    Type
REMARK                         _______ _______ _______ _____ _____    ______ ____
ROOT
ATOM      1  O   LIG    1       -1.742   2.260  -1.088  0.00  0.00    -0.490 OA
ATOM      2  C   LIG    1       -0.743   1.583  -1.213  0.00  0.00    +0.520 C 
ATOM      3  N   LIG    1       -0.288   1.272  -2.443  0.00  0.00    -0.670 N 
ATOM      4  H   LIG    1        0.546   0.789  -2.544  0.00  0.00    +0.420 HD
ENDROOT
BRANCH   3   5
ATOM      5  C   LIG    1       -1.023   1.647  -3.576  0.00  0.00    +0.150 A 
ATOM      6  C   LIG    1       -1.045   0.822  -4.693  0.00  0.00    +0.020 A 
ATOM      7  C   LIG    1       -1.772   1.188  -5.808  0.00  0.00    +0.030 A 
ATOM      8  C   LIG    1       -2.473   2.388  -5.817  0.00  0.00    -0.110 A 
ATOM      9  C   LIG    1       -2.446   3.216  -4.701  0.00  0.00    +0.070 A 
ATOM     10  C   LIG    1       -1.723   2.846  -3.585  0.00  0.00    +0.050 A 
BRANCH   8  11
ATOM     11  S   LIG    1       -3.394   2.860  -7.242  0.00  0.00    -0.090 S 
BRANCH  11  12
ATOM     12  C   LIG    1       -3.113   1.480  -8.385  0.00  0.00    +0.430 C 
ATOM     13  F   LIG    1       -3.583   0.294  -7.809  0.00  0.00    -0.180 F 
ATOM     14  F   LIG    1       -1.744   1.361  -8.645  0.00  0.00    -0.180 F 
ENDBRANCH  11  12
ENDBRANCH   8  11
ENDBRANCH   3   5
BRANCH   2  15
ATOM     15  C   LIG    1       -0.009   1.091   0.008  0.00  0.00    +0.270 C 
BRANCH  15  16
ATOM     16  O   LIG    1       -0.690   1.556   1.203  0.00  0.00    -0.330 OA
BRANCH  16  17
ATOM     17  C   LIG    1       -0.160   1.202   2.384  0.00  0.00    +0.480 C 
ATOM     18  O   LIG    1        0.840   0.525   2.418  0.00  0.00    -0.470 OA
BRANCH  17  19
ATOM     19  C   LIG    1       -0.813   1.647   3.667  0.00  0.00    +0.200 C 
ATOM     20  C   LIG    1       -0.708   3.173   3.798  0.00  0.00    +0.270 C 
ATOM     21  O   LIG    1       -1.324   3.560   5.031  0.00  0.00    -0.290 OA
ATOM     22  C   LIG    1       -0.998   2.832   6.133  0.00  0.00    +0.050 A 
ATOM     23  C   LIG    1       -1.260   3.348   7.393  0.00  0.00    +0.030 A 
ATOM     24  C   LIG    1       -0.942   2.617   8.522  0.00  0.00    +0.030 A 
ATOM     25  C   LIG    1       -0.360   1.369   8.399  0.00  0.00    +0.030 A 
ATOM     26  C   LIG    1       -0.093   0.849   7.146  0.00  0.00    +0.030 A 
ATOM     27  C   LIG    1       -0.410   1.578   6.009  0.00  0.00    +0.050 A 
ATOM     28  O   LIG    1       -0.140   1.054   4.783  0.00  0.00    -0.280 OA
ENDBRANCH  17  19
ENDBRANCH  16  17
ENDBRANCH  15  16
ENDBRANCH   2  15
TORSDOF 7
