REMARK  Name = ZINCrD000000fobf.0
REMARK                            x       y       z     vdW  Elec       q    Type
REMARK                         _______ _______ _______ _____ _____    ______ ____
ROOT
ATOM      1  C   LIG    1       -0.930   1.894   1.440  0.00  0.00    -0.720 A 
ATOM      2  C   LIG    1       -1.430   0.931   2.289  0.00  0.00    +0.240 A 
ATOM      3  C   LIG    1       -2.150   1.311   3.425  0.00  0.00    -0.160 A 
ATOM      4  C   LIG    1       -2.366   2.666   3.687  0.00  0.00    +0.140 A 
ATOM      5  C   LIG    1       -1.865   3.620   2.828  0.00  0.00    -0.010 A 
ATOM      6  C   LIG    1       -1.148   3.238   1.705  0.00  0.00    +0.220 A 
ATOM      7  F   LIG    1       -0.660   4.177   0.866  0.00  0.00    -0.110 F 
ENDROOT
BRANCH   3   8
ATOM      8  C   LIG    1       -2.684   0.284   4.342  0.00  0.00    +0.560 C 
ATOM      9  N   LIG    1       -3.382   0.653   5.434  0.00  0.00    -0.720 N 
ATOM     10  H   LIG    1       -3.534   1.593   5.618  0.00  0.00    +0.400 HD
ATOM     11  O   LIG    1       -2.494  -0.894   4.111  0.00  0.00    -0.520 OA
BRANCH   9  12
ATOM     12  C   LIG    1       -3.912  -0.366   6.343  0.00  0.00    +0.280 C 
ATOM     13  C   LIG    1       -2.831  -0.763   7.350  0.00  0.00    +0.040 C 
BRANCH  12  14
ATOM     14  C   LIG    1       -5.104   0.190   7.080  0.00  0.00    -0.100 A 
ATOM     15  C   LIG    1       -5.088   1.495   7.535  0.00  0.00    +0.010 A 
ATOM     16  C   LIG    1       -6.183   2.005   8.207  0.00  0.00    +0.010 A 
ATOM     17  C   LIG    1       -7.290   1.208   8.432  0.00  0.00    -0.080 A 
ATOM     18  C   LIG    1       -7.303  -0.099   7.981  0.00  0.00    +0.010 A 
ATOM     19  C   LIG    1       -6.210  -0.608   7.306  0.00  0.00    +0.030 A 
BRANCH  17  20
ATOM     20  C   LIG    1       -8.481   1.763   9.169  0.00  0.00    +0.050 C 
ATOM     21  C   LIG    1       -8.315   1.513  10.669  0.00  0.00    +0.030 C 
ENDBRANCH  17  20
ENDBRANCH  12  14
ENDBRANCH   9  12
ENDBRANCH   3   8
BRANCH   1  22
ATOM     22  S   LIG    1       -0.017   1.417   0.010  0.00  0.00    +2.700 S 
ATOM     23  O   LIG    1        1.162   2.210   0.003  0.00  0.00    -0.940 OA
ATOM     24  O   LIG    1        0.002  -0.004   0.002  0.00  0.00    -0.940 OA
BRANCH  22  25
ATOM     25  N   LIG    1       -0.900   1.880  -1.312  0.00  0.00    -1.110 NA
ATOM     26  H   LIG    1       -1.261   1.209  -1.914  0.00  0.00    +0.420 HD
BRANCH  25  27
ATOM     27  C   LIG    1       -1.137   3.302  -1.574  0.00  0.00    +0.300 C 
BRANCH  27  29
ATOM     28  C   LIG    1       -2.754   4.105  -3.217  0.00  0.00    +0.040 C 
ATOM     29  C   LIG    1       -1.627   3.478  -2.988  0.00  0.00    -0.050 C 
ENDBRANCH  27  29
ENDBRANCH  25  27
ENDBRANCH  22  25
ENDBRANCH   1  22
TORSDOF 8
