REMARK  Name = ZINCb80000001OeF.0
REMARK                            x       y       z     vdW  Elec       q    Type
REMARK                         _______ _______ _______ _____ _____    ______ ____
ROOT
ATOM      1  S   LIG    1       -0.020   1.652   0.011  0.00  0.00    +2.610 S 
ATOM      2  O   LIG    1       -0.619   1.987   1.256  0.00  0.00    -0.950 OA
ATOM      3  O   LIG    1       -0.642   2.001  -1.218  0.00  0.00    -0.950 OA
ENDROOT
BRANCH   1   5
ATOM      4  C   LIG    1        0.559  -0.735   1.143  0.00  0.00    +0.290 C 
ATOM      5  N   LIG    1        0.002  -0.004   0.002  0.00  0.00    -1.130 NA
ATOM      6  H   LIG    1       -0.354  -0.490  -0.759  0.00  0.00    +0.420 HD
ENDBRANCH   1   5
BRANCH   1   7
ATOM      7  C   LIG    1        1.730   2.128  -0.003  0.00  0.00    -0.340 C 
BRANCH   7   8
ATOM      8  C   LIG    1        1.843   3.654   0.004  0.00  0.00    +0.000 C 
ATOM      9  C   LIG    1        1.774   4.283  -1.397  0.00  0.00    +0.020 C 
ATOM     10  C   LIG    1        2.879   5.248  -0.931  0.00  0.00    +0.170 C 
ATOM     11  F   LIG    1        3.849   5.507  -1.905  0.00  0.00    -0.200 F 
ATOM     12  C   LIG    1        3.292   4.164   0.078  0.00  0.00    +0.040 C 
ENDBRANCH   7   8
ENDBRANCH   1   7
TORSDOF 3
