REMARK  Name = ZINCrD000003He4Y.0
REMARK                            x       y       z     vdW  Elec       q    Type
REMARK                         _______ _______ _______ _____ _____    ______ ____
ROOT
ATOM      1  N   LIG    1        2.699  -1.805  -4.961  0.00  0.00    -0.690 N 
ATOM      2  H   LIG    1        3.666  -1.879  -4.988  0.00  0.00    +0.410 HD
ATOM      3  C   LIG    1        1.969  -2.117  -6.049  0.00  0.00    +0.710 C 
ATOM      4  N   LIG    1        2.572  -2.622  -7.144  0.00  0.00    -0.720 N 
ATOM      5  H   LIG    1        3.532  -2.760  -7.148  0.00  0.00    +0.400 HD
ATOM      6  O   LIG    1        0.765  -1.944  -6.044  0.00  0.00    -0.550 OA
ENDROOT
BRANCH   1  10
ATOM      7  C   LIG    1        0.804  -0.518  -1.480  0.00  0.00    -0.580 A 
ATOM      8  C   LIG    1        1.948  -1.291  -1.398  0.00  0.00    +0.170 A 
ATOM      9  C   LIG    1        2.575  -1.724  -2.550  0.00  0.00    -0.030 A 
ATOM     10  C   LIG    1        2.063  -1.372  -3.792  0.00  0.00    +0.230 A 
ATOM     11  C   LIG    1        0.917  -0.591  -3.871  0.00  0.00    +0.010 A 
ATOM     12  C   LIG    1        0.292  -0.166  -2.715  0.00  0.00    +0.130 A 
BRANCH   7  14
ATOM     13  C   LIG    1       -1.226  -1.221   0.466  0.00  0.00    -0.320 C 
ATOM     14  S   LIG    1        0.003   0.025  -0.008  0.00  0.00    +2.410 S 
ATOM     15  O   LIG    1       -0.528   1.323  -0.241  0.00  0.00    -0.960 OA
ATOM     16  N   LIG    1        1.018   0.122   1.083  0.00  0.00    -1.280 NA
ATOM     17  H   LIG    1        0.751   0.409   1.970  0.00  0.00    +0.390 HD
ENDBRANCH   7  14
ENDBRANCH   1  10
BRANCH   4  18
ATOM     18  C   LIG    1        1.778  -2.961  -8.327  0.00  0.00    +0.270 C 
ATOM     19  C   LIG    1        2.674  -3.004  -9.586  0.00  0.00    +0.060 C 
ATOM     20  C   LIG    1        2.051  -4.175 -10.377  0.00  0.00    +0.280 C 
ATOM     21  N   LIG    1        1.403  -5.026  -9.372  0.00  0.00    -0.580 N 
ATOM     22  C   LIG    1        1.232  -4.367  -8.213  0.00  0.00    +0.510 C 
ATOM     23  O   LIG    1        0.715  -4.833  -7.219  0.00  0.00    -0.490 OA
BRANCH  21  24
ATOM     24  C   LIG    1        1.012  -6.352  -9.592  0.00  0.00    +0.150 A 
ATOM     25  C   LIG    1       -0.260  -6.632 -10.070  0.00  0.00    +0.040 A 
ATOM     26  C   LIG    1       -0.641  -7.942 -10.291  0.00  0.00    +0.030 A 
ATOM     27  C   LIG    1        0.241  -8.974 -10.027  0.00  0.00    +0.040 A 
ATOM     28  C   LIG    1        1.508  -8.699  -9.546  0.00  0.00    +0.030 A 
ATOM     29  C   LIG    1        1.897  -7.391  -9.328  0.00  0.00    -0.030 A 
ATOM     30 CL   LIG    1        3.487  -7.046  -8.724  0.00  0.00    -0.060 Cl
ENDBRANCH  21  24
ENDBRANCH   4  18
TORSDOF 4
