REMARK  Name = ZINCqH0000050J8J.1
REMARK                            x       y       z     vdW  Elec       q    Type
REMARK                         _______ _______ _______ _____ _____    ______ ____
ROOT
ATOM      1  C   LIG    1        2.422   1.186  -0.015  0.00  0.00    +0.350 C 
ATOM      2  C   LIG    1        2.819   0.820   1.417  0.00  0.00    +0.040 C 
ENDROOT
BRANCH   1   5
ATOM      3  C   LIG    1        4.447   0.286  -2.069  0.00  0.00    +0.150 C 
ATOM      4  C   LIG    1        4.389   1.693  -1.530  0.00  0.00    +0.090 A 
ATOM      5  C   LIG    1        3.483   2.068  -0.621  0.00  0.00    -0.240 A 
ATOM      6  S   LIG    1        3.740   3.773  -0.258  0.00  0.00    +0.100 S 
ATOM      7  C   LIG    1        5.086   3.807  -1.395  0.00  0.00    +0.120 A 
ATOM      8  N   LIG    1        5.224   2.626  -1.925  0.00  0.00    -0.460 NA
BRANCH   7   9
ATOM      9  C   LIG    1        5.920   4.989  -1.702  0.00  0.00    -0.040 A 
ATOM     10  C   LIG    1        5.669   6.207  -1.069  0.00  0.00    +0.070 A 
ATOM     11  C   LIG    1        6.453   7.305  -1.356  0.00  0.00    +0.000 A 
ATOM     12  C   LIG    1        7.483   7.202  -2.277  0.00  0.00    +0.120 A 
ATOM     13  C   LIG    1        7.734   5.996  -2.912  0.00  0.00    +0.000 A 
ATOM     14  F   LIG    1        8.245   8.281  -2.558  0.00  0.00    -0.130 F 
ATOM     15  C   LIG    1        6.959   4.891  -2.629  0.00  0.00    +0.110 A 
ENDBRANCH   7   9
ENDBRANCH   1   5
BRANCH   1  16
ATOM     16  N   LIG    1        1.143   1.901   0.001  0.00  0.00    -0.710 N 
ATOM     17  H   LIG    1        1.130   2.871   0.007  0.00  0.00    +0.410 HD
ATOM     18  C   LIG    1       -0.014   1.211   0.009  0.00  0.00    +0.620 C 
ATOM     19  O   LIG    1        0.002  -0.004   0.002  0.00  0.00    -0.510 OA
BRANCH  18  20
ATOM     20  C   LIG    1       -1.304   1.933   0.019  0.00  0.00    -0.040 A 
ATOM     21  N   LIG    1       -1.489   3.244   0.026  0.00  0.00    -0.240 NA
ATOM     22  N   LIG    1       -2.753   3.479   0.034  0.00  0.00    -0.230 N 
ATOM     23  H   LIG    1       -3.147   4.365   0.040  0.00  0.00    +0.480 HD
ATOM     24  N   LIG    1       -3.427   2.385   0.032  0.00  0.00    -0.280 NA
ATOM     25  C   LIG    1       -2.596   1.370   0.016  0.00  0.00    +0.100 A 
BRANCH  25  26
ATOM     26  C   LIG    1       -2.950  -0.095   0.002  0.00  0.00    +0.060 C 
ATOM     27  C   LIG    1       -4.420  -0.465  -0.205  0.00  0.00    +0.040 C 
ATOM     28  C   LIG    1       -3.774  -0.634   1.173  0.00  0.00    +0.040 C 
ENDBRANCH  25  26
ENDBRANCH  18  20
ENDBRANCH   1  16
TORSDOF 5
