REMARK  Name = ZINCqH0000050J8J.0
REMARK                            x       y       z     vdW  Elec       q    Type
REMARK                         _______ _______ _______ _____ _____    ______ ____
ROOT
ATOM      1  C   LIG    1        5.296   6.694  -0.015  0.00  0.00    +0.350 C 
ATOM      2  C   LIG    1        5.330   7.331  -1.405  0.00  0.00    +0.060 C 
ENDROOT
BRANCH   1   5
ATOM      3  C   LIG    1        6.058   3.770  -0.037  0.00  0.00    +0.150 C 
ATOM      4  C   LIG    1        4.629   4.249  -0.021  0.00  0.00    +0.100 A 
ATOM      5  C   LIG    1        4.316   5.549  -0.011  0.00  0.00    -0.240 A 
ATOM      6  S   LIG    1        2.559   5.693  -0.000  0.00  0.00    +0.090 S 
ATOM      7  C   LIG    1        2.421   3.936  -0.001  0.00  0.00    +0.130 A 
ATOM      8  N   LIG    1        3.614   3.416  -0.016  0.00  0.00    -0.460 NA
BRANCH   7   9
ATOM      9  C   LIG    1        1.153   3.176   0.008  0.00  0.00    -0.050 A 
ATOM     10  C   LIG    1        1.173   1.780   0.000  0.00  0.00    +0.110 A 
ATOM     11  C   LIG    1       -0.013   1.076   0.008  0.00  0.00    +0.000 A 
ATOM     12  C   LIG    1       -1.223   1.751   0.017  0.00  0.00    +0.120 A 
ATOM     13  C   LIG    1       -1.249   3.137   0.030  0.00  0.00    +0.000 A 
ATOM     14  F   LIG    1       -2.381   1.056   0.019  0.00  0.00    -0.130 F 
ATOM     15  C   LIG    1       -0.069   3.851   0.022  0.00  0.00    +0.070 A 
ENDBRANCH   7   9
ENDBRANCH   1   5
BRANCH   1  16
ATOM     16  N   LIG    1        4.881   7.694   0.972  0.00  0.00    -0.730 N 
ATOM     17  H   LIG    1        3.950   7.761   1.233  0.00  0.00    +0.390 HD
ATOM     18  C   LIG    1        5.795   8.523   1.516  0.00  0.00    +0.600 C 
ATOM     19  O   LIG    1        6.963   8.440   1.188  0.00  0.00    -0.500 OA
BRANCH  18  20
ATOM     20  C   LIG    1        5.378   9.529   2.507  0.00  0.00    -0.080 A 
ATOM     21  C   LIG    1        6.176  10.439   3.149  0.00  0.00    +0.100 A 
ATOM     22  N   LIG    1        5.375  11.141   3.951  0.00  0.00    -0.260 NA
ATOM     23  N   LIG    1        4.168  10.715   3.830  0.00  0.00    -0.030 NA
ATOM     24  N   LIG    1        4.110   9.754   2.976  0.00  0.00    -0.380 N 
ATOM     25  H   LIG    1        3.310   9.273   2.712  0.00  0.00    +0.450 HD
BRANCH  21  26
ATOM     26  C   LIG    1        7.664  10.611   2.983  0.00  0.00    +0.050 C 
ATOM     27  C   LIG    1        8.378  11.554   3.953  0.00  0.00    +0.050 C 
ATOM     28  C   LIG    1        8.167  11.971   2.495  0.00  0.00    +0.040 C 
ENDBRANCH  21  26
ENDBRANCH  18  20
ENDBRANCH   1  16
TORSDOF 5
