REMARK  Name = ZINCkj000005lOpD.0
REMARK                            x       y       z     vdW  Elec       q    Type
REMARK                         _______ _______ _______ _____ _____    ______ ____
ROOT
ATOM      1  O   LIG    1        0.273  -4.783  -0.026  0.00  0.00    -0.520 OA
ATOM      2  C   LIG    1        1.029  -3.829  -0.028  0.00  0.00    +0.600 C 
ATOM      3  N   LIG    1        2.362  -4.026  -0.042  0.00  0.00    -0.730 N 
ATOM      4  H   LIG    1        2.965  -3.266  -0.044  0.00  0.00    +0.400 HD
ENDROOT
BRANCH   2   5
ATOM      5  C   LIG    1        0.490  -2.468  -0.016  0.00  0.00    -0.270 A 
ATOM      6  C   LIG    1       -0.838  -2.147  -0.002  0.00  0.00    +0.120 A 
ATOM      7  C   LIG    1       -1.103  -0.805   0.008  0.00  0.00    +0.040 A 
ATOM      8  C   LIG    1        0.002  -0.004   0.002  0.00  0.00    -0.080 A 
ATOM      9  S   LIG    1        1.453  -0.997  -0.025  0.00  0.00    +0.180 S 
BRANCH   8  10
ATOM     10  C   LIG    1       -0.018   1.474   0.010  0.00  0.00    +0.130 A 
ATOM     11  N   LIG    1       -1.094   2.236   0.019  0.00  0.00    -0.260 NA
ATOM     12  N   LIG    1       -0.679   3.573   0.028  0.00  0.00    -0.460 N 
ATOM     13  H   LIG    1       -1.262   4.349   0.037  0.00  0.00    +0.450 HD
ATOM     14  C   LIG    1        0.671   3.596   0.015  0.00  0.00    +0.260 A 
ATOM     15  C   LIG    1        1.111   2.320   0.004  0.00  0.00    -0.110 A 
ENDBRANCH   8  10
ENDBRANCH   2   5
BRANCH   3  16
ATOM     16  C   LIG    1        2.902  -5.388  -0.054  0.00  0.00    +0.320 C 
BRANCH  16  17
ATOM     17  C   LIG    1        4.431  -5.331  -0.069  0.00  0.00    +0.020 C 
ATOM     18  C   LIG    1        5.169  -5.906   1.141  0.00  0.00    -0.010 C 
ATOM     19  C   LIG    1        6.665  -5.446   1.325  0.00  0.00    +0.300 C 
ATOM     20  N   LIG    1        7.456  -6.411   0.520  0.00  0.00    -0.520 N 
ATOM     21  C   LIG    1        6.644  -6.614  -0.707  0.00  0.00    +0.300 C 
ATOM     22  H   LIG    1        8.358  -6.023   0.286  0.00  0.00    +0.440 HD
ATOM     23  H   LIG    1        7.565  -7.281   1.019  0.00  0.00    +0.430 HD
ATOM     24  C   LIG    1        5.184  -6.655  -0.205  0.00  0.00    -0.030 C 
ENDBRANCH  16  17
ENDBRANCH   3  16
TORSDOF 4
