REMARK  Name = ZINCpk00000ebOO3.0
REMARK                            x       y       z     vdW  Elec       q    Type
REMARK                         _______ _______ _______ _____ _____    ______ ____
ROOT
ATOM      1  N   LIG    1        3.962   2.451  -1.438  0.00  0.00    -0.540 NA
ATOM      2  C   LIG    1        3.007   3.389  -1.995  0.00  0.00    +0.170 C 
ATOM      3  C   LIG    1        3.142   3.533  -3.503  0.00  0.00    +0.230 C 
ATOM      4  O   LIG    1        3.173   2.252  -4.121  0.00  0.00    -0.360 OA
ATOM      5  C   LIG    1        4.243   1.409  -3.692  0.00  0.00    +0.190 C 
ATOM      6  C   LIG    1        3.921  -0.032  -4.178  0.00  0.00    +0.220 C 
ATOM      7  N   LIG    1        2.884  -0.515  -3.239  0.00  0.00    -0.470 N 
ATOM      8  C   LIG    1        3.027   0.225  -1.968  0.00  0.00    +0.170 C 
ATOM      9  C   LIG    1        4.181   1.224  -2.163  0.00  0.00    +0.140 C 
ENDROOT
BRANCH   7  10
ATOM     10  C   LIG    1        2.998  -1.881  -3.033  0.00  0.00    +0.390 A 
ATOM     11  C   LIG    1        4.169  -2.428  -2.505  0.00  0.00    -0.100 A 
ATOM     12  N   LIG    1        5.382  -1.925  -2.082  0.00  0.00    -0.580 N 
ATOM     13  H   LIG    1        5.651  -0.993  -2.085  0.00  0.00    +0.420 HD
ATOM     14  C   LIG    1        6.125  -2.974  -1.664  0.00  0.00    +0.540 A 
ATOM     15  N   LIG    1        5.453  -4.082  -1.801  0.00  0.00    -0.480 NA
ATOM     16  C   LIG    1        4.237  -3.818  -2.314  0.00  0.00    +0.300 A 
ATOM     17  N   LIG    1        3.178  -4.562  -2.647  0.00  0.00    -0.480 NA
ATOM     18  C   LIG    1        2.096  -4.003  -3.143  0.00  0.00    +0.520 A 
ATOM     19  N   LIG    1        1.993  -2.700  -3.330  0.00  0.00    -0.490 NA
ENDBRANCH   7  10
BRANCH   1  20
ATOM     20  C   LIG    1        3.672   2.182  -0.023  0.00  0.00    +0.230 C 
BRANCH  20  24
ATOM     21  C   LIG    1        4.263   5.747   2.255  0.00  0.00    +0.000 A 
ATOM     22  C   LIG    1        5.336   4.924   1.968  0.00  0.00    +0.000 A 
ATOM     23  C   LIG    1        5.145   3.770   1.232  0.00  0.00    +0.020 A 
ATOM     24  C   LIG    1        3.881   3.440   0.780  0.00  0.00    -0.080 A 
ATOM     25  C   LIG    1        2.808   4.263   1.067  0.00  0.00    +0.010 A 
ATOM     26  C   LIG    1        2.999   5.416   1.804  0.00  0.00    +0.000 A 
ENDBRANCH  20  24
ENDBRANCH   1  20
TORSDOF 3
