REMARK  Name = ZINCqH0000008dUF.0
REMARK                            x       y       z     vdW  Elec       q    Type
REMARK                         _______ _______ _______ _____ _____    ______ ____
ROOT
ATOM      1  N   LIG    1       -4.337   1.273   0.630  0.00  0.00    -0.740 N 
ATOM      2  H   LIG    1       -4.549   0.457   1.110  0.00  0.00    +0.390 HD
ATOM      3  C   LIG    1       -3.073   1.740   0.621  0.00  0.00    +0.700 C 
ATOM      4  N   LIG    1       -2.103   1.072   1.277  0.00  0.00    -0.740 N 
ATOM      5  H   LIG    1       -2.316   0.256   1.757  0.00  0.00    +0.390 HD
ATOM      6  O   LIG    1       -2.807   2.762   0.019  0.00  0.00    -0.590 OA
ENDROOT
BRANCH   1   8
ATOM      7  C   LIG    1       -5.400   1.570  -1.552  0.00  0.00    +0.020 C 
ATOM      8  C   LIG    1       -5.391   1.998  -0.084  0.00  0.00    +0.250 C 
BRANCH   8   9
ATOM      9  C   LIG    1       -6.747   1.680   0.549  0.00  0.00    +0.030 C 
BRANCH   9  10
ATOM     10  C   LIG    1       -6.782   2.220   1.980  0.00  0.00    +0.060 C 
BRANCH  10  11
ATOM     11  C   LIG    1       -8.118   1.907   2.602  0.00  0.00    -0.090 A 
ATOM     12  C   LIG    1       -9.161   2.807   2.489  0.00  0.00    +0.030 A 
ATOM     13  C   LIG    1      -10.389   2.519   3.054  0.00  0.00    -0.010 A 
ATOM     14  C   LIG    1      -10.571   1.331   3.746  0.00  0.00    +0.100 A 
ATOM     15  C   LIG    1       -9.521   0.431   3.863  0.00  0.00    -0.010 A 
ATOM     16  C   LIG    1       -8.297   0.721   3.291  0.00  0.00    +0.020 A 
BRANCH  14  17
ATOM     17  O   LIG    1      -11.775   1.049   4.308  0.00  0.00    -0.500 OA
ATOM     18  H   LIG    1      -11.868   1.363   5.218  0.00  0.00    +0.390 HD
ENDBRANCH  14  17
ENDBRANCH  10  11
ENDBRANCH   9  10
ENDBRANCH   8   9
ENDBRANCH   1   8
BRANCH   4  19
ATOM     19  C   LIG    1       -0.729   1.579   1.267  0.00  0.00    +0.250 C 
ATOM     20  C   LIG    1       -0.013   1.086   0.008  0.00  0.00    +0.020 C 
BRANCH  19  21
ATOM     21  C   LIG    1        0.011   1.072   2.506  0.00  0.00    +0.030 C 
BRANCH  21  22
ATOM     22  C   LIG    1       -0.630   1.667   3.762  0.00  0.00    +0.060 C 
BRANCH  22  23
ATOM     23  C   LIG    1        0.099   1.168   4.983  0.00  0.00    -0.090 A 
ATOM     24  C   LIG    1       -0.317   0.006   5.607  0.00  0.00    +0.020 A 
ATOM     25  C   LIG    1        0.353  -0.457   6.723  0.00  0.00    -0.010 A 
ATOM     26  C   LIG    1        1.436   0.252   7.224  0.00  0.00    +0.100 A 
ATOM     27  C   LIG    1        1.847   1.420   6.599  0.00  0.00    -0.010 A 
ATOM     28  C   LIG    1        1.178   1.875   5.479  0.00  0.00    +0.030 A 
BRANCH  26  29
ATOM     29  O   LIG    1        2.093  -0.198   8.326  0.00  0.00    -0.500 OA
ATOM     30  H   LIG    1        1.739   0.139   9.160  0.00  0.00    +0.390 HD
ENDBRANCH  26  29
ENDBRANCH  22  23
ENDBRANCH  21  22
ENDBRANCH  19  21
ENDBRANCH   4  19
TORSDOF 10
