REMARK  Name = ZINCtj00000040G7.0
REMARK                            x       y       z     vdW  Elec       q    Type
REMARK                         _______ _______ _______ _____ _____    ______ ____
ROOT
ATOM      1  O   LIG    1        8.708   0.542   0.960  0.00  0.00    -0.510 OA
ATOM      2  C   LIG    1        8.045  -0.446   1.197  0.00  0.00    +0.520 C 
ATOM      3  N   LIG    1        8.654  -1.613   1.484  0.00  0.00    -0.750 N 
ATOM      4  H   LIG    1        8.124  -2.403   1.674  0.00  0.00    +0.400 HD
ENDROOT
BRANCH   3   5
ATOM      5  C   LIG    1       10.117  -1.689   1.510  0.00  0.00    +0.320 C 
BRANCH   5   6
ATOM      6  C   LIG    1       10.549  -3.146   1.694  0.00  0.00    +0.050 C 
ATOM      7  C   LIG    1        9.805  -3.752   2.886  0.00  0.00    +0.050 C 
ATOM      8  C   LIG    1       10.136  -2.958   4.151  0.00  0.00    +0.050 C 
ATOM      9  C   LIG    1       11.643  -3.014   4.409  0.00  0.00    +0.020 C 
ATOM     10  C   LIG    1       12.387  -2.408   3.217  0.00  0.00    +0.050 C 
ATOM     11  C   LIG    1       12.056  -3.202   1.952  0.00  0.00    +0.060 C 
BRANCH   6  12
ATOM     12  N   LIG    1       10.230  -3.908   0.479  0.00  0.00    -0.380 N 
ATOM     13  C   LIG    1       10.961  -3.340  -0.661  0.00  0.00    +0.230 C 
ATOM     14  C   LIG    1       10.628  -4.136  -1.926  0.00  0.00    +0.260 C 
ATOM     15  O   LIG    1        9.214  -4.108  -2.141  0.00  0.00    -0.350 OA
ATOM     16  C   LIG    1        8.457  -4.630  -1.046  0.00  0.00    +0.260 C 
ATOM     17  C   LIG    1        8.786  -3.835   0.220  0.00  0.00    +0.210 C 
ATOM     18  H   LIG    1       10.501  -4.872   0.606  0.00  0.00    +0.420 HD
ENDBRANCH   6  12
ENDBRANCH   5   6
ENDBRANCH   3   5
BRANCH   2  19
ATOM     19  C   LIG    1        6.540  -0.367   1.170  0.00  0.00    +0.050 C 
BRANCH  19  20
ATOM     20  C   LIG    1        6.110   1.059   0.821  0.00  0.00    +0.350 C 
BRANCH  20  21
ATOM     21  N   LIG    1        4.647   1.135   0.795  0.00  0.00    -0.580 N 
ATOM     22  C   LIG    1        3.889   1.435   1.858  0.00  0.00    +0.700 C 
ATOM     23  N   LIG    1        2.571   1.439   1.565  0.00  0.00    -0.710 N 
ATOM     24  H   LIG    1        1.839   1.628   2.172  0.00  0.00    +0.440 HD
ATOM     25  C   LIG    1        2.474   1.101   0.149  0.00  0.00    +0.110 C 
ATOM     26  C   LIG    1        1.759   2.196  -0.656  0.00  0.00    +0.050 C 
ATOM     27  C   LIG    1        0.259   1.864  -0.493  0.00  0.00    +0.020 C 
ATOM     28  C   LIG    1        0.174   0.370  -0.131  0.00  0.00    +0.020 C 
ATOM     29  C   LIG    1        1.625  -0.157  -0.086  0.00  0.00    +0.050 C 
ATOM     30  O   LIG    1        4.337   1.677   2.962  0.00  0.00    -0.540 OA
ATOM     31  C   LIG    1        3.893   0.911  -0.305  0.00  0.00    +0.540 C 
ATOM     32  O   LIG    1        4.280   0.619  -1.417  0.00  0.00    -0.460 OA
ENDBRANCH  20  21
ENDBRANCH  19  20
ENDBRANCH   2  19
TORSDOF 6
