REMARK  Name = ZINCvU0000000JXp.0
REMARK                            x       y       z     vdW  Elec       q    Type
REMARK                         _______ _______ _______ _____ _____    ______ ____
ROOT
ATOM      1  C   LIG    1       -1.136  -2.165   0.236  0.00  0.00    -0.160 A 
ATOM      2  C   LIG    1        0.086  -2.842   0.189  0.00  0.00    +0.070 A 
ATOM      3  C   LIG    1        0.113  -4.216   0.283  0.00  0.00    -0.020 A 
ATOM      4  C   LIG    1       -1.074  -4.929   0.415  0.00  0.00    +0.180 A 
ATOM      5  C   LIG    1       -2.292  -4.259   0.456  0.00  0.00    +0.020 A 
ATOM      6  C   LIG    1       -2.326  -2.885   0.368  0.00  0.00    +0.110 A 
ENDROOT
BRANCH   1   9
ATOM      7  N   LIG    1       -0.020   0.001   0.014  0.00  0.00    -0.670 N 
ATOM      8  H   LIG    1        0.822  -0.470  -0.089  0.00  0.00    +0.410 HD
ATOM      9  C   LIG    1       -1.169  -0.693   0.141  0.00  0.00    +0.560 C 
ATOM     10  O   LIG    1       -2.233  -0.105   0.177  0.00  0.00    -0.520 OA
BRANCH   7  14
ATOM     11  C   LIG    1       -0.084   4.169   0.065  0.00  0.00    +0.110 A 
ATOM     12  C   LIG    1       -0.992   3.452   0.830  0.00  0.00    +0.010 A 
ATOM     13  C   LIG    1       -0.972   2.072   0.814  0.00  0.00    +0.060 A 
ATOM     14  C   LIG    1       -0.042   1.401   0.031  0.00  0.00    +0.110 A 
ATOM     15  C   LIG    1        0.871   2.119  -0.731  0.00  0.00    +0.030 A 
ATOM     16  C   LIG    1        0.846   3.499  -0.718  0.00  0.00    -0.060 A 
BRANCH  11  18
ATOM     17  C   LIG    1        0.860   6.202  -0.731  0.00  0.00    +0.250 C 
ATOM     18  O   LIG    1       -0.104   5.528   0.082  0.00  0.00    -0.320 OA
ENDBRANCH  11  18
ENDBRANCH   7  14
ENDBRANCH   1   9
BRANCH   4  19
ATOM     19  N   LIG    1       -1.042  -6.321   0.505  0.00  0.00    -0.680 N 
ATOM     20  H   LIG    1       -0.318  -6.760   0.977  0.00  0.00    +0.410 HD
ATOM     21  C   LIG    1       -2.019  -7.055  -0.064  0.00  0.00    +0.510 C 
ATOM     22  O   LIG    1       -2.967  -6.505  -0.582  0.00  0.00    -0.510 OA
BRANCH  21  23
ATOM     23  C   LIG    1       -1.932  -8.559  -0.057  0.00  0.00    +0.070 C 
BRANCH  23  24
ATOM     24  C   LIG    1       -3.157  -9.145  -0.762  0.00  0.00    +0.130 C 
BRANCH  24  25
ATOM     25  C   LIG    1       -3.070 -10.649  -0.754  0.00  0.00    -0.170 A 
ATOM     26  C   LIG    1       -2.579 -11.425  -1.733  0.00  0.00    +0.230 A 
ATOM     27  N   LIG    1       -2.663 -12.742  -1.371  0.00  0.00    -0.600 N 
ATOM     28  H   LIG    1       -2.371 -13.490  -1.916  0.00  0.00    +0.420 HD
ATOM     29  C   LIG    1       -3.226 -12.848  -0.119  0.00  0.00    +0.090 A 
ATOM     30  C   LIG    1       -3.534 -13.926   0.704  0.00  0.00    -0.010 A 
ATOM     31  C   LIG    1       -4.106 -13.704   1.938  0.00  0.00    +0.030 A 
ATOM     32  C   LIG    1       -4.380 -12.413   2.369  0.00  0.00    -0.030 A 
ATOM     33  C   LIG    1       -4.086 -11.339   1.576  0.00  0.00    +0.050 A 
ATOM     34  C   LIG    1       -3.500 -11.541   0.325  0.00  0.00    -0.100 A 
ENDBRANCH  24  25
ENDBRANCH  23  24
ENDBRANCH  21  23
ENDBRANCH   4  19
TORSDOF 7
