REMARK  Name = ZINCqH0000002Y1d.0
REMARK                            x       y       z     vdW  Elec       q    Type
REMARK                         _______ _______ _______ _____ _____    ______ ____
ROOT
ATOM      1  C   LIG    1       -3.136   0.559  -0.304  0.00  0.00    +0.350 C 
ENDROOT
BRANCH   1   2
ATOM      2  C   LIG    1       -1.926   1.301  -0.808  0.00  0.00    -0.080 A 
ATOM      3  C   LIG    1       -0.965   0.636  -1.548  0.00  0.00    +0.010 A 
ATOM      4  C   LIG    1        0.142   1.319  -2.015  0.00  0.00    -0.080 A 
ATOM      5  C   LIG    1        0.292   2.665  -1.739  0.00  0.00    +0.000 A 
ATOM      6  C   LIG    1       -0.666   3.329  -0.995  0.00  0.00    -0.080 A 
ATOM      7  C   LIG    1       -0.502   4.796  -0.694  0.00  0.00    +0.090 C 
ATOM      8  C   LIG    1        1.186   0.596  -2.826  0.00  0.00    +0.090 C 
ATOM      9  C   LIG    1       -1.773   2.646  -0.528  0.00  0.00    +0.000 A 
ENDBRANCH   1   2
BRANCH   1  10
ATOM     10  C   LIG    1       -4.226   0.608  -1.344  0.00  0.00    -0.150 A 
ATOM     11  C   LIG    1       -4.759  -0.564  -1.858  0.00  0.00    +0.080 A 
ATOM     12  C   LIG    1       -5.760  -0.470  -2.813  0.00  0.00    -0.030 A 
ATOM     13  C   LIG    1       -6.190   0.780  -3.217  0.00  0.00    +0.260 A 
ATOM     14  N   LIG    1       -5.659   1.874  -2.707  0.00  0.00    -0.480 NA
ATOM     15  C   LIG    1       -4.710   1.823  -1.793  0.00  0.00    +0.280 A 
ENDBRANCH   1  10
BRANCH   1  16
ATOM     16  N   LIG    1       -3.612   1.184   0.932  0.00  0.00    -0.590 N 
ATOM     17  C   LIG    1       -3.399   0.581   2.119  0.00  0.00    +0.580 C 
ATOM     18  O   LIG    1       -2.566  -0.299   2.211  0.00  0.00    -0.510 OA
BRANCH  17  19
ATOM     19  C   LIG    1       -4.179   0.991   3.309  0.00  0.00    +0.020 A 
ATOM     20  C   LIG    1       -3.870   0.464   4.562  0.00  0.00    +0.290 A 
ATOM     21  N   LIG    1       -4.569   0.832   5.622  0.00  0.00    -0.440 NA
ATOM     22  C   LIG    1       -5.558   1.699   5.494  0.00  0.00    +0.260 A 
ATOM     23  C   LIG    1       -5.867   2.225   4.247  0.00  0.00    +0.220 A 
ATOM     24  N   LIG    1       -5.173   1.867   3.187  0.00  0.00    -0.390 NA
ENDBRANCH  17  19
BRANCH  16  26
ATOM     25  C   LIG    1       -5.827   2.211   0.793  0.00  0.00    +0.020 C 
ATOM     26  C   LIG    1       -4.321   2.465   0.879  0.00  0.00    +0.280 C 
ENDBRANCH  16  26
ENDBRANCH   1  16
TORSDOF 5
