REMARK  Name = ZINCbw0000000HlL.0
REMARK                            x       y       z     vdW  Elec       q    Type
REMARK                         _______ _______ _______ _____ _____    ______ ____
ROOT
ATOM      1  C   LIG    1       -1.307  -0.751   0.010  0.00  0.00    +0.180 C 
ATOM      2  C   LIG    1        0.002  -0.004   0.002  0.00  0.00    +0.350 A 
ATOM      3  N   LIG    1        1.130  -0.691  -0.012  0.00  0.00    -0.510 NA
ATOM      4  C   LIG    1        2.302  -0.085  -0.020  0.00  0.00    +0.280 A 
ATOM      5  C   LIG    1        2.344   1.325  -0.013  0.00  0.00    -0.180 A 
ATOM      6  C   LIG    1        3.475   2.235  -0.020  0.00  0.00    +0.060 A 
ATOM      7  C   LIG    1        3.156   3.514  -0.010  0.00  0.00    -0.010 A 
ATOM      8  S   LIG    1        1.418   3.743   0.008  0.00  0.00    +0.190 S 
ATOM      9  C   LIG    1        1.122   2.010   0.002  0.00  0.00    +0.100 A 
ATOM     10 CL   LIG    1        3.771  -1.010  -0.040  0.00  0.00    +0.000 Cl
ATOM     11  N   LIG    1       -0.016   1.309   0.009  0.00  0.00    -0.480 NA
ENDROOT
TORSDOF 0
