REMARK  Name = ZINCpk00000e9L96.0
REMARK                            x       y       z     vdW  Elec       q    Type
REMARK                         _______ _______ _______ _____ _____    ______ ____
ROOT
ATOM      1  C   LIG    1       -0.780   1.129  -6.024  0.00  0.00    +0.500 C 
ATOM      2  N   LIG    1       -0.243   0.804  -4.832  0.00  0.00    -0.520 N 
ATOM      3  H   LIG    1        0.508   0.191  -4.789  0.00  0.00    +0.430 HD
ATOM      4  O   LIG    1       -1.719   1.895  -6.078  0.00  0.00    -0.520 OA
ENDROOT
BRANCH   2   5
ATOM      5  N   LIG    1       -0.769   1.351  -3.654  0.00  0.00    -0.530 N 
ATOM      6  H   LIG    1       -1.520   1.964  -3.697  0.00  0.00    +0.430 HD
ATOM      7  C   LIG    1       -0.232   1.026  -2.461  0.00  0.00    +0.520 C 
ATOM      8  O   LIG    1        0.707   0.260  -2.408  0.00  0.00    -0.530 OA
BRANCH   7   9
ATOM      9  C   LIG    1       -0.798   1.614  -1.194  0.00  0.00    +0.080 C 
BRANCH   9  10
ATOM     10  C   LIG    1       -0.013   1.086   0.008  0.00  0.00    +0.040 C 
ATOM     11  C   LIG    1        1.396   1.631  -0.003  0.00  0.00    -0.030 C 
ATOM     12  C   LIG    1        1.752   2.038   1.186  0.00  0.00    -0.050 C 
ATOM     13  C   LIG    1        0.639   1.831   2.187  0.00  0.00    +0.050 C 
ATOM     14  C   LIG    1       -0.627   1.609   1.327  0.00  0.00    +0.030 C 
ENDBRANCH   9  10
ENDBRANCH   7   9
ENDBRANCH   2   5
BRANCH   1  15
ATOM     15  C   LIG    1       -0.214   0.541  -7.291  0.00  0.00    +0.360 C 
BRANCH  15  17
ATOM     16  C   LIG    1       -2.205   0.385  -8.855  0.00  0.00    +0.320 C 
ATOM     17  N   LIG    1       -0.966   1.047  -8.442  0.00  0.00    -0.980 NA
BRANCH  17  18
ATOM     18  S   LIG    1       -0.413   2.366  -9.277  0.00  0.00    +2.700 S 
ATOM     19  O   LIG    1        0.417   3.090  -8.379  0.00  0.00    -0.940 OA
ATOM     20  O   LIG    1       -1.545   2.936  -9.920  0.00  0.00    -0.940 OA
BRANCH  18  21
ATOM     21  C   LIG    1        0.639   1.770 -10.558  0.00  0.00    -0.680 A 
ATOM     22  C   LIG    1        1.993   1.616 -10.324  0.00  0.00    +0.140 A 
ATOM     23  C   LIG    1        2.819   1.143 -11.326  0.00  0.00    +0.020 A 
ATOM     24  C   LIG    1        2.292   0.836 -12.568  0.00  0.00    +0.020 A 
ATOM     25  C   LIG    1        0.938   0.996 -12.804  0.00  0.00    +0.020 A 
ATOM     26 CL   LIG    1        3.330   0.250 -13.831  0.00  0.00    -0.050 Cl
ATOM     27  C   LIG    1        0.113   1.463 -11.798  0.00  0.00    +0.140 A 
ENDBRANCH  18  21
ENDBRANCH  17  18
ENDBRANCH  15  17
ENDBRANCH   1  15
TORSDOF 7
