REMARK  Name = ZINCpe00000bh12Z.0
REMARK                            x       y       z     vdW  Elec       q    Type
REMARK                         _______ _______ _______ _____ _____    ______ ____
ROOT
ATOM      1  C   LIG    1       -5.664   3.523  -0.568  0.00  0.00    -0.020 C 
ATOM      2  C   LIG    1       -4.796   4.668   0.019  0.00  0.00    +0.040 C 
ATOM      3  C   LIG    1       -3.381   4.054   0.037  0.00  0.00    +0.270 C 
ATOM      4  N   LIG    1       -3.539   2.592   0.031  0.00  0.00    -0.600 N 
ATOM      5  C   LIG    1       -2.534   1.694   0.022  0.00  0.00    +0.620 C 
ATOM      6  O   LIG    1       -2.783   0.503   0.018  0.00  0.00    -0.520 OA
ATOM      7  C   LIG    1       -4.978   2.272   0.030  0.00  0.00    +0.260 C 
ENDROOT
BRANCH   5   8
ATOM      8  C   LIG    1       -1.135   2.153   0.018  0.00  0.00    +0.010 A 
ATOM      9  C   LIG    1       -0.016   1.347   0.009  0.00  0.00    +0.180 A 
ATOM     10  N   LIG    1        1.067   2.173   0.004  0.00  0.00    -0.380 N 
ATOM     11  C   LIG    1        2.413   1.925  -0.010  0.00  0.00    +0.220 A 
ATOM     12  C   LIG    1        3.299   2.940  -0.012  0.00  0.00    +0.040 A 
ATOM     13  C   LIG    1        2.851   4.274  -0.002  0.00  0.00    +0.060 A 
ATOM     14  C   LIG    1        1.519   4.538   0.011  0.00  0.00    +0.090 A 
ATOM     15  C   LIG    1        0.600   3.466   0.014  0.00  0.00    +0.250 A 
ATOM     16  F   LIG    1        0.002  -0.004   0.002  0.00  0.00    -0.070 F 
ATOM     17  N   LIG    1       -0.721   3.437   0.026  0.00  0.00    -0.440 NA
ENDBRANCH   5   8
BRANCH   1  18
ATOM     18  C   LIG    1       -7.114   3.636  -0.093  0.00  0.00    +0.280 C 
BRANCH  18  20
ATOM     19  C   LIG    1       -9.245   2.523  -0.493  0.00  0.00    +0.490 C 
ATOM     20  N   LIG    1       -7.926   2.614  -0.758  0.00  0.00    -0.720 N 
ATOM     21  H   LIG    1       -7.515   2.003  -1.390  0.00  0.00    +0.410 HD
ATOM     22  O   LIG    1       -9.758   3.287   0.296  0.00  0.00    -0.530 OA
BRANCH  19  24
ATOM     23  C   LIG    1       -9.982   0.157  -0.401  0.00  0.00    +0.090 C 
ATOM     24  C   LIG    1      -10.080   1.472  -1.177  0.00  0.00    +0.120 C 
ATOM     25  C   LIG    1      -11.539   1.930  -1.223  0.00  0.00    +0.040 C 
BRANCH  24  26
ATOM     26  O   LIG    1       -9.601   1.275  -2.509  0.00  0.00    -0.550 OA
ATOM     27  H   LIG    1       -9.633   2.069  -3.060  0.00  0.00    +0.380 HD
ENDBRANCH  24  26
ENDBRANCH  19  24
ENDBRANCH  18  20
ENDBRANCH   1  18
TORSDOF 5
