REMARK  Name = ZINCnE00000dyGo3.0
REMARK                            x       y       z     vdW  Elec       q    Type
REMARK                         _______ _______ _______ _____ _____    ______ ____
ROOT
ATOM      1  O   LIG    1       -0.455  -3.222  -1.031  0.00  0.00    -1.040 OA
ATOM      2  S   LIG    1        0.511  -3.474  -0.020  0.00  0.00    +2.620 S 
ATOM      3  O   LIG    1        1.330  -4.635   0.001  0.00  0.00    -1.040 OA
ENDROOT
BRANCH   2   4
ATOM      4  C   LIG    1        1.606  -2.093  -0.024  0.00  0.00    -0.670 A 
ATOM      5  C   LIG    1        2.947  -2.138  -0.037  0.00  0.00    +0.360 A 
ATOM      6  N   LIG    1        3.457  -0.868  -0.035  0.00  0.00    -0.590 N 
ATOM      7  H   LIG    1        4.401  -0.646  -0.043  0.00  0.00    +0.420 HD
ATOM      8  C   LIG    1        2.429   0.049  -0.021  0.00  0.00    +0.100 A 
ATOM      9  C   LIG    1        2.388   1.439  -0.013  0.00  0.00    +0.030 A 
ATOM     10  C   LIG    1        1.173   2.092   0.002  0.00  0.00    -0.020 A 
ATOM     11  C   LIG    1       -0.017   1.373   0.010  0.00  0.00    -0.050 A 
ATOM     12  C   LIG    1        0.002  -0.004   0.002  0.00  0.00    +0.130 A 
ATOM     13 CL   LIG    1       -1.534   2.216   0.021  0.00  0.00    -0.050 Cl
ATOM     14 CL   LIG    1        1.130   3.827   0.011  0.00  0.00    -0.060 Cl
ATOM     15  C   LIG    1        1.225  -0.678  -0.013  0.00  0.00    -0.020 A 
ENDBRANCH   2   4
BRANCH   2  16
ATOM     16  N   LIG    1       -0.303  -3.449   1.422  0.00  0.00    -1.080 NA
BRANCH  16  17
ATOM     17  C   LIG    1       -1.256  -4.445   1.709  0.00  0.00    +0.140 A 
ATOM     18  C   LIG    1       -1.991  -4.543   2.845  0.00  0.00    +0.100 A 
ATOM     19  N   LIG    1       -2.788  -5.638   2.725  0.00  0.00    -0.390 N 
ATOM     20  N   LIG    1       -2.530  -6.222   1.478  0.00  0.00    -0.300 NA
ATOM     21  C   LIG    1       -1.619  -5.507   0.868  0.00  0.00    +0.120 A 
BRANCH  19  22
ATOM     22  C   LIG    1       -3.747  -6.121   3.721  0.00  0.00    +0.310 C 
BRANCH  22  23
ATOM     23  C   LIG    1       -5.131  -6.246   3.079  0.00  0.00    +0.220 C 
ATOM     24  F   LIG    1       -6.046  -6.707   4.031  0.00  0.00    -0.220 F 
ENDBRANCH  22  23
ENDBRANCH  19  22
ENDBRANCH  16  17
ENDBRANCH   2  16
TORSDOF 5
