REMARK  Name = ZINCpe000000WFCV.0
REMARK                            x       y       z     vdW  Elec       q    Type
REMARK                         _______ _______ _______ _____ _____    ______ ____
ROOT
ATOM      1  N   LIG    1        3.837   0.153   1.435  0.00  0.00    -0.730 N 
ATOM      2  H   LIG    1        4.388  -0.132   0.689  0.00  0.00    +0.400 HD
ATOM      3  C   LIG    1        2.790   0.975   1.223  0.00  0.00    +0.510 C 
ATOM      4  O   LIG    1        2.101   1.331   2.155  0.00  0.00    -0.520 OA
ENDROOT
BRANCH   3   5
ATOM      5  C   LIG    1        2.475   1.451  -0.172  0.00  0.00    +0.220 C 
ATOM      6  C   LIG    1        3.398   2.630  -0.547  0.00  0.00    +0.060 C 
ATOM      7  C   LIG    1        2.456   3.573  -1.340  0.00  0.00    +0.060 C 
ATOM      8  C   LIG    1        1.115   3.374  -0.591  0.00  0.00    +0.250 C 
ATOM      9  N   LIG    1        1.091   1.945  -0.231  0.00  0.00    -0.600 N 
ATOM     10  C   LIG    1       -0.014   1.213   0.009  0.00  0.00    +0.620 C 
ATOM     11  O   LIG    1        0.078   0.014   0.198  0.00  0.00    -0.520 OA
BRANCH  10  12
ATOM     12  C   LIG    1       -1.330   1.859   0.035  0.00  0.00    -0.270 A 
ATOM     13  C   LIG    1       -2.529   1.213   0.142  0.00  0.00    +0.100 A 
ATOM     14  C   LIG    1       -3.608   2.065   0.142  0.00  0.00    +0.000 A 
ATOM     15  C   LIG    1       -3.305   3.364   0.040  0.00  0.00    -0.070 A 
ATOM     16  S   LIG    1       -1.617   3.592  -0.057  0.00  0.00    +0.210 S 
ENDBRANCH  10  12
ENDBRANCH   3   5
BRANCH   1  20
ATOM     17  N   LIG    1        5.892  -1.077   4.876  0.00  0.00    -1.000 NA
ATOM     18  C   LIG    1        5.189  -2.135   4.137  0.00  0.00    +0.300 C 
ATOM     19  C   LIG    1        4.902  -1.637   2.717  0.00  0.00    +0.020 C 
ATOM     20  C   LIG    1        4.142  -0.310   2.790  0.00  0.00    +0.240 C 
ATOM     21  C   LIG    1        5.004   0.734   3.504  0.00  0.00    +0.000 C 
ATOM     22  C   LIG    1        5.293   0.263   4.932  0.00  0.00    +0.300 C 
BRANCH  17  24
ATOM     23  C   LIG    1        8.590  -1.027   4.374  0.00  0.00    -0.280 C 
ATOM     24  S   LIG    1        7.333  -1.390   5.631  0.00  0.00    +2.610 S 
ATOM     25  O   LIG    1        7.290  -2.784   5.905  0.00  0.00    -0.950 OA
ATOM     26  O   LIG    1        7.391  -0.438   6.684  0.00  0.00    -0.950 OA
ENDBRANCH  17  24
ENDBRANCH   1  20
TORSDOF 4
