REMARK  Name = ZINCpk00000ebhu0.2
REMARK                            x       y       z     vdW  Elec       q    Type
REMARK                         _______ _______ _______ _____ _____    ______ ____
ROOT
ATOM      1  C   LIG    1        2.753   0.079  -6.074  0.00  0.00    +0.330 C 
ATOM      2  N   LIG    1        2.724   1.521  -5.817  0.00  0.00    -0.450 N 
ATOM      3  C   LIG    1        2.602   2.500  -6.742  0.00  0.00    +0.380 A 
ATOM      4  N   LIG    1        2.617   3.658  -6.134  0.00  0.00    -0.480 NA
ATOM      5  C   LIG    1        2.748   3.461  -4.821  0.00  0.00    +0.010 A 
ATOM      6  C   LIG    1        2.818   4.481  -3.718  0.00  0.00    +0.100 C 
ATOM      7  C   LIG    1        1.822   5.618  -3.940  0.00  0.00    +0.030 C 
ATOM      8  C   LIG    1        1.925   6.588  -2.756  0.00  0.00    +0.030 C 
ATOM      9  C   LIG    1        1.671   5.842  -1.446  0.00  0.00    +0.160 C 
ATOM     10  N   LIG    1        2.626   4.732  -1.298  0.00  0.00    -0.510 NA
ATOM     11  C   LIG    1        2.472   3.779  -2.399  0.00  0.00    +0.140 C 
ATOM     12  C   LIG    1        3.366   2.556  -2.224  0.00  0.00    +0.050 C 
ATOM     13  C   LIG    1        2.959   1.485  -3.246  0.00  0.00    +0.120 C 
ATOM     14  C   LIG    1        2.814   2.127  -4.601  0.00  0.00    -0.030 A 
ENDROOT
BRANCH  10  15
ATOM     15  C   LIG    1        2.463   4.066   0.001  0.00  0.00    +0.310 C 
BRANCH  15  16
ATOM     16  C   LIG    1        1.121   3.382   0.050  0.00  0.00    +0.180 A 
ATOM     17  C   LIG    1        1.051   2.031   0.062  0.00  0.00    -0.120 A 
ATOM     18  C   LIG    1       -0.206   1.395   0.108  0.00  0.00    +0.570 A 
ATOM     19  N   LIG    1       -1.332   2.135   0.134  0.00  0.00    -0.360 N 
ATOM     20  N   LIG    1       -2.687   1.787   0.187  0.00  0.00    -0.260 NA
ATOM     21  C   LIG    1       -3.397   2.888   0.202  0.00  0.00    +0.300 A 
ATOM     22  C   LIG    1       -2.527   3.979   0.165  0.00  0.00    -0.120 A 
ATOM     23  C   LIG    1       -1.253   3.497   0.127  0.00  0.00    +0.300 A 
ATOM     24  O   LIG    1       -0.274   0.178   0.119  0.00  0.00    -0.490 OA
ATOM     25  N   LIG    1       -0.022   4.123   0.081  0.00  0.00    -0.600 N 
ATOM     26  H   LIG    1        0.029   5.092   0.072  0.00  0.00    +0.430 HD
ENDBRANCH  15  16
ENDBRANCH  10  15
TORSDOF 2
