REMARK  Name = ZINCvU0000000Anv.0
REMARK                            x       y       z     vdW  Elec       q    Type
REMARK                         _______ _______ _______ _____ _____    ______ ____
ROOT
ATOM      1  C   LIG    1       -1.175  -0.784   0.092  0.00  0.00    +0.610 C 
ATOM      2  N   LIG    1       -2.267  -0.087   0.104  0.00  0.00    -0.540 NA
ATOM      3  C   LIG    1       -3.564  -0.766   0.241  0.00  0.00    +0.210 C 
ATOM      4  C   LIG    1       -3.541  -2.276   0.376  0.00  0.00    -0.230 C 
ATOM      5  C   LIG    1       -2.296  -2.903   0.354  0.00  0.00    +0.270 A 
ATOM      6  C   LIG    1       -2.222  -4.304   0.477  0.00  0.00    +0.000 A 
ATOM      7  C   LIG    1       -1.005  -4.913   0.455  0.00  0.00    +0.120 A 
ATOM      8  C   LIG    1        0.155  -4.134   0.310  0.00  0.00    -0.010 A 
ATOM      9  C   LIG    1        0.070  -2.794   0.195  0.00  0.00    +0.260 A 
ATOM     10  N   LIG    1       -1.146  -2.159   0.215  0.00  0.00    -0.450 N 
ENDROOT
BRANCH   3  11
ATOM     11  C   LIG    1       -4.403  -0.420  -0.961  0.00  0.00    -0.100 A 
ATOM     12  C   LIG    1       -5.744  -0.756  -0.988  0.00  0.00    +0.030 A 
ATOM     13  C   LIG    1       -6.515  -0.435  -2.090  0.00  0.00    +0.010 A 
ATOM     14  C   LIG    1       -5.943   0.213  -3.168  0.00  0.00    -0.070 A 
ATOM     15  C   LIG    1       -4.601   0.545  -3.143  0.00  0.00    +0.000 A 
ATOM     16  C   LIG    1       -6.782   0.559  -4.372  0.00  0.00    +0.090 C 
ATOM     17  C   LIG    1       -3.831   0.228  -2.040  0.00  0.00    +0.050 A 
ENDBRANCH   3  11
BRANCH   3  18
ATOM     18  C   LIG    1       -4.261  -0.194   1.477  0.00  0.00    +0.460 C 
ATOM     19  F   LIG    1       -5.566  -0.693   1.550  0.00  0.00    -0.180 F 
ATOM     20  F   LIG    1       -4.300   1.202   1.386  0.00  0.00    -0.170 F 
ATOM     21  F   LIG    1       -3.555  -0.567   2.626  0.00  0.00    -0.180 F 
ENDBRANCH   3  18
BRANCH   1  22
ATOM     22  N   LIG    1        0.021  -0.117  -0.043  0.00  0.00    -0.650 N 
ATOM     23  H   LIG    1        0.847  -0.616  -0.141  0.00  0.00    +0.420 HD
BRANCH  22  28
ATOM     24  C   LIG    1        0.123   5.555  -0.037  0.00  0.00    +0.090 C 
ATOM     25  C   LIG    1        0.096   4.048  -0.038  0.00  0.00    -0.090 A 
ATOM     26  C   LIG    1        1.130   3.339   0.544  0.00  0.00    +0.030 A 
ATOM     27  C   LIG    1        1.108   1.958   0.544  0.00  0.00    -0.010 A 
ATOM     28  C   LIG    1        0.046   1.282  -0.041  0.00  0.00    +0.140 A 
ATOM     29  C   LIG    1       -0.989   1.997  -0.630  0.00  0.00    +0.040 A 
ATOM     30  C   LIG    1       -0.964   3.378  -0.622  0.00  0.00    +0.030 A 
ENDBRANCH  22  28
ENDBRANCH   1  22
BRANCH   4  31
ATOM     31  C   LIG    1       -4.751  -3.028   0.520  0.00  0.00    +0.280 C 
ATOM     32  N   LIG    1       -5.710  -3.625   0.634  0.00  0.00    -0.420 NA
ENDBRANCH   4  31
TORSDOF 5
