REMARK  Name = ZINCvU00000004BN.0
REMARK                            x       y       z     vdW  Elec       q    Type
REMARK                         _______ _______ _______ _____ _____    ______ ____
ROOT
ATOM      1  C   LIG    1        2.881   7.793  -0.035  0.00  0.00    +0.010 A 
ATOM      2  N   LIG    1        1.633   7.473  -0.175  0.00  0.00    -0.260 NA
ATOM      3  N   LIG    1        1.357   6.123  -0.149  0.00  0.00    -0.340 NA
ATOM      4  C   LIG    1        2.382   5.345   0.011  0.00  0.00    +0.300 A 
ATOM      5  S   LIG    1        3.836   6.326   0.155  0.00  0.00    +0.100 S 
ENDROOT
BRANCH   4   6
ATOM      6  N   LIG    1        2.338   3.957   0.067  0.00  0.00    -0.620 N 
ATOM      7  H   LIG    1        3.155   3.450   0.192  0.00  0.00    +0.430 HD
BRANCH   6   8
ATOM      8  C   LIG    1        1.114   3.290  -0.057  0.00  0.00    +0.160 A 
ATOM      9  C   LIG    1        0.111   3.821  -0.859  0.00  0.00    +0.040 A 
ATOM     10  C   LIG    1       -1.096   3.163  -0.981  0.00  0.00    +0.040 A 
ATOM     11  C   LIG    1       -1.310   1.973  -0.300  0.00  0.00    +0.070 A 
ATOM     12  C   LIG    1       -0.307   1.439   0.496  0.00  0.00    +0.040 A 
ATOM     13  C   LIG    1        0.901   2.096   0.620  0.00  0.00    +0.010 A 
BRANCH  11  14
ATOM     14  O   LIG    1       -2.501   1.327  -0.417  0.00  0.00    -0.260 OA
BRANCH  14  15
ATOM     15  C   LIG    1       -2.732   0.616  -1.552  0.00  0.00    +0.120 A 
ATOM     16  C   LIG    1       -1.729   0.475  -2.500  0.00  0.00    -0.060 A 
ATOM     17  C   LIG    1       -1.965  -0.253  -3.650  0.00  0.00    +0.050 A 
ATOM     18  C   LIG    1       -3.202  -0.833  -3.861  0.00  0.00    -0.020 A 
ATOM     19  C   LIG    1       -4.205  -0.690  -2.920  0.00  0.00    +0.050 A 
ATOM     20  C   LIG    1       -3.973   0.033  -1.766  0.00  0.00    -0.020 A 
ENDBRANCH  14  15
ENDBRANCH  11  14
ENDBRANCH   6   8
ENDBRANCH   4   6
BRANCH   1  21
ATOM     21  S   LIG    1        3.520   9.435  -0.029  0.00  0.00    +0.030 S 
BRANCH  21  22
ATOM     22  C   LIG    1        2.035  10.451  -0.258  0.00  0.00    +0.160 C 
BRANCH  22  29
ATOM     23  C   LIG    1        3.836  16.938  -0.973  0.00  0.00    +0.370 C 
ATOM     24  N   LIG    1        3.433  15.890  -0.031  0.00  0.00    -0.400 N 
ATOM     25  N   LIG    1        3.280  16.023   1.357  0.00  0.00    -0.000 NA
ATOM     26  N   LIG    1        2.916  14.895   1.857  0.00  0.00    -0.210 NA
ATOM     27  C   LIG    1        2.804  13.966   0.886  0.00  0.00    -0.020 A 
ATOM     28  C   LIG    1        2.442  12.613   0.893  0.00  0.00    +0.130 A 
ATOM     29  C   LIG    1        2.420  11.908  -0.274  0.00  0.00    -0.100 A 
ATOM     30  C   LIG    1        2.744  12.518  -1.479  0.00  0.00    +0.090 A 
ATOM     31  C   LIG    1        3.098  13.849  -1.514  0.00  0.00    +0.020 A 
ATOM     32  C   LIG    1        3.131  14.584  -0.334  0.00  0.00    +0.090 A 
ENDBRANCH  22  29
ENDBRANCH  21  22
ENDBRANCH   1  21
TORSDOF 7
