REMARK  Name = ZINCrD00000hQ5cQ.0
REMARK                            x       y       z     vdW  Elec       q    Type
REMARK                         _______ _______ _______ _____ _____    ______ ____
ROOT
ATOM      1  C   LIG    1       -4.602   4.426  -0.179  0.00  0.00    +0.430 A 
ATOM      2  N   LIG    1       -3.771   3.401  -0.127  0.00  0.00    -0.530 NA
ATOM      3  C   LIG    1       -2.533   3.940  -0.113  0.00  0.00    +0.240 A 
ATOM      4  N   LIG    1       -2.674   5.240  -0.164  0.00  0.00    -0.380 NA
ATOM      5  O   LIG    1       -3.850   5.535  -0.202  0.00  0.00    +0.050 OA
ENDROOT
BRANCH   3   6
ATOM      6  C   LIG    1       -1.250   3.196  -0.057  0.00  0.00    -0.010 A 
ATOM      7  C   LIG    1       -1.251   1.804  -0.012  0.00  0.00    +0.070 A 
ATOM      8  C   LIG    1       -0.057   1.114   0.046  0.00  0.00    +0.040 A 
ATOM      9  C   LIG    1        1.143   1.800   0.048  0.00  0.00    +0.040 A 
ATOM     10  C   LIG    1        1.153   3.188  -0.002  0.00  0.00    +0.090 A 
ATOM     11  C   LIG    1       -0.041   3.888  -0.054  0.00  0.00    +0.040 A 
BRANCH  10  12
ATOM     12  O   LIG    1        2.334   3.859   0.000  0.00  0.00    -0.250 OA
BRANCH  12  13
ATOM     13  C   LIG    1        2.637   4.615   1.089  0.00  0.00    +0.120 A 
ATOM     14  C   LIG    1        1.811   4.589   2.203  0.00  0.00    -0.060 A 
ATOM     15  C   LIG    1        2.123   5.354   3.310  0.00  0.00    +0.050 A 
ATOM     16  C   LIG    1        3.252   6.153   3.304  0.00  0.00    -0.020 A 
ATOM     17  C   LIG    1        4.074   6.184   2.192  0.00  0.00    +0.050 A 
ATOM     18  C   LIG    1        3.769   5.417   1.085  0.00  0.00    -0.010 A 
ENDBRANCH  12  13
ENDBRANCH  10  12
ENDBRANCH   3   6
BRANCH   1  19
ATOM     19  N   LIG    1       -5.974   4.366  -0.209  0.00  0.00    -0.670 N 
ATOM     20  H   LIG    1       -6.423   3.506  -0.188  0.00  0.00    +0.430 HD
BRANCH  19  21
ATOM     21  C   LIG    1       -6.759   5.601  -0.273  0.00  0.00    +0.300 C 
BRANCH  21  26
ATOM     22  O   LIG    1      -11.047   3.621  -1.055  0.00  0.00    -0.930 OA
ATOM     23  S   LIG    1      -10.430   4.728  -1.698  0.00  0.00    +2.390 S 
ATOM     24  C   LIG    1      -10.546   6.199  -0.618  0.00  0.00    -0.310 C 
ATOM     25  C   LIG    1       -9.089   6.546  -0.253  0.00  0.00    +0.080 C 
ATOM     26  C   LIG    1       -8.250   5.257  -0.295  0.00  0.00    +0.010 C 
ATOM     27  O   LIG    1      -10.813   5.082  -3.020  0.00  0.00    -0.930 OA
ATOM     28  C   LIG    1       -8.608   4.536  -1.620  0.00  0.00    -0.320 C 
ENDBRANCH  21  26
ENDBRANCH  19  21
ENDBRANCH   1  19
TORSDOF 6
