REMARK  Name = ZINCpe00000MJKVX.0
REMARK                            x       y       z     vdW  Elec       q    Type
REMARK                         _______ _______ _______ _____ _____    ______ ____
ROOT
ATOM      1  C   LIG    1        1.179   1.809   0.001  0.00  0.00    +0.390 A 
ATOM      2  C   LIG    1       -0.013   1.076   0.008  0.00  0.00    -0.050 A 
ATOM      3  C   LIG    1       -1.216   1.772   0.017  0.00  0.00    +0.170 A 
ATOM      4  N   LIG    1       -1.194   3.105   0.030  0.00  0.00    -0.550 NA
ATOM      5  C   LIG    1       -0.047   3.764   0.023  0.00  0.00    +0.530 A 
ATOM      6  N   LIG    1        1.120   3.135   0.008  0.00  0.00    -0.550 NA
ENDROOT
BRANCH   1  10
ATOM      7  C   LIG    1        5.460   2.437   1.580  0.00  0.00    +0.050 C 
ATOM      8  C   LIG    1        4.693   1.430   0.720  0.00  0.00    +0.160 C 
ATOM      9  C   LIG    1        3.514   2.126   0.088  0.00  0.00    +0.220 C 
ATOM     10  N   LIG    1        2.402   1.160  -0.014  0.00  0.00    -0.480 N 
ATOM     11  C   LIG    1        2.494   0.283  -1.107  0.00  0.00    +0.190 C 
ATOM     12  C   LIG    1        3.767  -0.587  -1.028  0.00  0.00    +0.030 C 
ATOM     13  C   LIG    1        4.962   0.252  -1.405  0.00  0.00    +0.200 C 
ATOM     14  O   LIG    1        5.585   0.882  -0.267  0.00  0.00    -0.390 OA
ENDBRANCH   1  10
BRANCH   5  15
ATOM     15  N   LIG    1       -0.066   5.148   0.031  0.00  0.00    -0.450 N 
ATOM     16  C   LIG    1        0.628   5.680  -1.113  0.00  0.00    +0.200 C 
ATOM     17  C   LIG    1        1.423   6.964  -0.778  0.00  0.00    +0.020 C 
ATOM     18  C   LIG    1        0.617   7.878   0.172  0.00  0.00    +0.190 C 
ATOM     19  O   LIG    1       -0.744   7.944  -0.146  0.00  0.00    -0.370 OA
ATOM     20  C   LIG    1       -1.542   7.006   0.609  0.00  0.00    +0.160 C 
ATOM     21  C   LIG    1       -3.002   7.461   0.590  0.00  0.00    +0.060 C 
ATOM     22  C   LIG    1       -1.452   5.658   0.047  0.00  0.00    +0.200 C 
ENDBRANCH   5  15
BRANCH   3  23
ATOM     23  C   LIG    1       -2.508   1.041   0.019  0.00  0.00    +0.580 C 
ATOM     24  O   LIG    1       -2.519  -0.173   0.012  0.00  0.00    -0.520 OA
ATOM     25  N   LIG    1       -3.670   1.726   0.028  0.00  0.00    -0.830 N 
ATOM     26  H   LIG    1       -4.514   1.248   0.029  0.00  0.00    +0.410 HD
ATOM     27  H   LIG    1       -3.661   2.696   0.034  0.00  0.00    +0.410 HD
ENDBRANCH   3  23
TORSDOF 3
