REMARK  Name = ZINCrg000000sFe1.0
REMARK                            x       y       z     vdW  Elec       q    Type
REMARK                         _______ _______ _______ _____ _____    ______ ____
ROOT
ATOM      1  N   LIG    1       -3.410   8.078   0.961  0.00  0.00    -1.000 NA
ATOM      2  C   LIG    1       -2.144   8.825   0.953  0.00  0.00    +0.300 C 
ATOM      3  C   LIG    1       -1.265   8.288  -0.182  0.00  0.00    +0.290 C 
ATOM      4  N   LIG    1       -1.222   6.822  -0.089  0.00  0.00    -0.600 N 
ATOM      5  C   LIG    1       -2.487   6.074  -0.088  0.00  0.00    +0.260 C 
ATOM      6  C   LIG    1       -0.043   6.173  -0.013  0.00  0.00    +0.560 C 
ATOM      7  O   LIG    1        0.993   6.804   0.080  0.00  0.00    -0.530 OA
ATOM      8  C   LIG    1       -3.367   6.612   1.054  0.00  0.00    +0.300 C 
ENDROOT
BRANCH   6   9
ATOM      9  C   LIG    1       -0.008   4.696  -0.042  0.00  0.00    -0.120 A 
ATOM     10  C   LIG    1        0.962   4.003   0.684  0.00  0.00    +0.080 A 
ATOM     11  C   LIG    1        0.989   2.625   0.653  0.00  0.00    +0.050 A 
ATOM     12  C   LIG    1        0.056   1.928  -0.097  0.00  0.00    -0.070 A 
ATOM     13  C   LIG    1       -0.904   2.610  -0.824  0.00  0.00    +0.040 A 
ATOM     14 BR   LIG    1        0.100   0.038  -0.134  0.00  0.00    -0.040 Br
ATOM     15  C   LIG    1       -0.945   3.988  -0.797  0.00  0.00    +0.060 A 
ENDBRANCH   6   9
BRANCH   1  16
ATOM     16  S   LIG    1       -4.859   8.874   0.866  0.00  0.00    +2.720 S 
ATOM     17  O   LIG    1       -4.623  10.194   1.336  0.00  0.00    -0.950 OA
ATOM     18  O   LIG    1       -5.831   8.008   1.435  0.00  0.00    -0.960 OA
BRANCH  16  22
ATOM     19  C   LIG    1       -6.773   7.908  -3.943  0.00  0.00    +0.350 C 
ATOM     20  N   LIG    1       -6.078   8.585  -2.845  0.00  0.00    -0.400 N 
ATOM     21  C   LIG    1       -5.975   8.128  -1.573  0.00  0.00    +0.330 A 
ATOM     22  C   LIG    1       -5.263   9.020  -0.843  0.00  0.00    -0.750 A 
ATOM     23  C   LIG    1       -4.910  10.079  -1.685  0.00  0.00    +0.110 A 
ATOM     24  C   LIG    1       -5.421   9.792  -2.933  0.00  0.00    -0.060 A 
BRANCH  24  25
ATOM     25  C   LIG    1       -5.293  10.623  -4.135  0.00  0.00    +0.590 C 
ATOM     26  O   LIG    1       -5.711  10.217  -5.203  0.00  0.00    -0.550 OA
ATOM     27  N   LIG    1       -4.713  11.837  -4.056  0.00  0.00    -0.840 N 
ATOM     28  H   LIG    1       -4.693  12.417  -4.833  0.00  0.00    +0.410 HD
ATOM     29  H   LIG    1       -4.315  12.131  -3.221  0.00  0.00    +0.410 HD
ENDBRANCH  24  25
ENDBRANCH  16  22
ENDBRANCH   1  16
TORSDOF 4
