REMARK  Name = ZINCpe00000c9Ave.0
REMARK                            x       y       z     vdW  Elec       q    Type
REMARK                         _______ _______ _______ _____ _____    ______ ____
ROOT
ATOM      1  O   LIG    1       -1.804   0.939  -1.902  0.00  0.00    -0.520 OA
ATOM      2  C   LIG    1       -2.126   1.826  -1.141  0.00  0.00    +0.530 C 
ATOM      3  N   LIG    1       -3.282   2.492  -1.333  0.00  0.00    -0.620 N 
ATOM      4  C   LIG    1       -4.234   2.246  -2.425  0.00  0.00    +0.270 C 
ATOM      5  C   LIG    1       -5.567   2.883  -1.983  0.00  0.00    +0.000 C 
ATOM      6  C   LIG    1       -6.336   3.405  -3.192  0.00  0.00    +0.050 C 
ATOM      7  C   LIG    1       -5.426   4.332  -3.998  0.00  0.00    +0.030 C 
ATOM      8  C   LIG    1       -5.091   5.566  -3.174  0.00  0.00    +0.250 C 
ATOM      9  N   LIG    1       -4.973   5.289  -1.773  0.00  0.00    -0.590 N 
ATOM     10  C   LIG    1       -4.711   6.362  -1.000  0.00  0.00    +0.500 C 
ATOM     11  O   LIG    1       -4.626   6.236   0.203  0.00  0.00    -0.510 OA
ATOM     12  C   LIG    1       -5.136   4.039  -1.073  0.00  0.00    +0.250 C 
ATOM     13  C   LIG    1       -3.785   3.582  -0.489  0.00  0.00    +0.250 C 
ENDROOT
BRANCH  10  14
ATOM     14  C   LIG    1       -4.523   7.717  -1.631  0.00  0.00    +0.170 C 
BRANCH  14  15
ATOM     15  C   LIG    1       -4.243   8.737  -0.558  0.00  0.00    +0.020 A 
ATOM     16  N   LIG    1       -4.975   8.988   0.489  0.00  0.00    -0.340 NA
ATOM     17  O   LIG    1       -4.492   9.861   1.171  0.00  0.00    +0.110 OA
ATOM     18  C   LIG    1       -3.344  10.316   0.649  0.00  0.00    +0.160 A 
ATOM     19  C   LIG    1       -3.131   9.606  -0.485  0.00  0.00    -0.060 A 
ENDBRANCH  14  15
ENDBRANCH  10  14
BRANCH   2  20
ATOM     20  C   LIG    1       -1.234   2.184   0.020  0.00  0.00    +0.160 C 
BRANCH  20  21
ATOM     21  C   LIG    1       -0.016   1.298   0.009  0.00  0.00    +0.020 A 
ATOM     22  N   LIG    1        0.002  -0.004   0.002  0.00  0.00    -0.340 NA
ATOM     23  O   LIG    1        1.132  -0.434  -0.011  0.00  0.00    +0.110 OA
ATOM     24  C   LIG    1        2.036   0.556  -0.014  0.00  0.00    +0.160 A 
ATOM     25  C   LIG    1        1.335   1.715  -0.002  0.00  0.00    -0.060 A 
ENDBRANCH  20  21
ENDBRANCH   2  20
TORSDOF 4
