REMARK  Name = ZINCpk00000xIcSO.0
REMARK                            x       y       z     vdW  Elec       q    Type
REMARK                         _______ _______ _______ _____ _____    ______ ____
ROOT
ATOM      1  C   LIG    1        2.131  -0.114   1.147  0.00  0.00    +0.230 C 
ENDROOT
BRANCH   1   2
ATOM      2  C   LIG    1        2.876  -0.820   2.250  0.00  0.00    +0.520 C 
ATOM      3  N   LIG    1        4.197  -0.610   2.413  0.00  0.00    -0.680 N 
ATOM      4  H   LIG    1        4.682  -0.057   1.781  0.00  0.00    +0.410 HD
ATOM      5  O   LIG    1        2.285  -1.577   2.991  0.00  0.00    -0.480 OA
BRANCH   3   6
ATOM      6  C   LIG    1        4.869  -1.192   3.494  0.00  0.00    +0.200 A 
ATOM      7  C   LIG    1        4.494  -2.447   3.953  0.00  0.00    +0.030 A 
ATOM      8  C   LIG    1        5.164  -3.021   5.016  0.00  0.00    +0.070 A 
ATOM      9  C   LIG    1        6.199  -2.341   5.631  0.00  0.00    +0.000 A 
ATOM     10  C   LIG    1        6.571  -1.088   5.180  0.00  0.00    +0.090 A 
ATOM     11  C   LIG    1        5.910  -0.511   4.114  0.00  0.00    -0.220 A 
BRANCH  11  12
ATOM     12  C   LIG    1        6.316   0.855   3.623  0.00  0.00    +0.510 C 
ATOM     13  F   LIG    1        5.229   1.730   3.729  0.00  0.00    -0.170 F 
ATOM     14  F   LIG    1        6.717   0.769   2.286  0.00  0.00    -0.180 F 
ATOM     15  F   LIG    1        7.377   1.332   4.399  0.00  0.00    -0.170 F 
ENDBRANCH  11  12
ENDBRANCH   3   6
ENDBRANCH   1   2
BRANCH   1  16
ATOM     16  N   LIG    1        0.716  -0.507   1.180  0.00  0.00    -0.500 NA
ATOM     17  C   LIG    1        0.065  -0.026   2.405  0.00  0.00    +0.220 C 
BRANCH  16  18
ATOM     18  C   LIG    1        0.009  -0.030  -0.015  0.00  0.00    +0.190 C 
ATOM     19  C   LIG    1       -0.016   1.500  -0.017  0.00  0.00    +0.030 C 
BRANCH  18  26
ATOM     20  C   LIG    1       -5.723  -0.913  -2.001  0.00  0.00    +0.300 C 
ATOM     21  N   LIG    1       -4.350  -0.402  -2.010  0.00  0.00    -0.740 N 
ATOM     22  H   LIG    1       -4.046   0.160  -2.739  0.00  0.00    +0.400 HD
ATOM     23  C   LIG    1       -3.509  -0.714  -1.004  0.00  0.00    +0.690 C 
ATOM     24  N   LIG    1       -2.245  -0.244  -1.012  0.00  0.00    -0.690 N 
ATOM     25  H   LIG    1       -1.942   0.318  -1.742  0.00  0.00    +0.410 HD
ATOM     26  C   LIG    1       -1.404  -0.555  -0.006  0.00  0.00    +0.520 C 
ATOM     27  O   LIG    1       -1.784  -1.258   0.906  0.00  0.00    -0.440 OA
ATOM     28  O   LIG    1       -3.889  -1.418  -0.089  0.00  0.00    -0.530 OA
ENDBRANCH  18  26
ENDBRANCH  16  18
ENDBRANCH   1  16
TORSDOF 6
