REMARK  Name = ZINCpk00000y6xWq.0
REMARK                            x       y       z     vdW  Elec       q    Type
REMARK                         _______ _______ _______ _____ _____    ______ ____
ROOT
ATOM      1  N   LIG    1       -0.011   0.966   0.007  0.00  0.00    -0.730 N 
ATOM      2  H   LIG    1        0.002  -0.004   0.002  0.00  0.00    +0.400 HD
ATOM      3  C   LIG    1        1.147   1.655   0.000  0.00  0.00    +0.530 C 
ATOM      4  O   LIG    1        1.130   2.868   0.007  0.00  0.00    -0.520 OA
ENDROOT
BRANCH   3   5
ATOM      5  C   LIG    1        2.462   0.920  -0.017  0.00  0.00    -0.020 C 
ATOM      6  C   LIG    1        3.612   1.931  -0.021  0.00  0.00    +0.070 C 
ATOM      7  C   LIG    1        4.938   1.190   0.193  0.00  0.00    +0.170 C 
ATOM      8  C   LIG    1        4.982   0.018  -0.757  0.00  0.00    +0.280 A 
ATOM      9  N   LIG    1        6.018  -0.691  -1.107  0.00  0.00    -0.540 NA
ATOM     10  C   LIG    1        5.645  -1.639  -1.969  0.00  0.00    +0.220 A 
ATOM     11  N   LIG    1        4.356  -1.543  -2.177  0.00  0.00    -0.310 NA
ATOM     12  C   LIG    1        6.560  -2.657  -2.600  0.00  0.00    +0.190 C 
ATOM     13  N   LIG    1        3.905  -0.473  -1.399  0.00  0.00    -0.380 N 
ATOM     14  C   LIG    1        2.543   0.046  -1.274  0.00  0.00    +0.330 C 
ENDBRANCH   3   5
BRANCH   1  15
ATOM     15  C   LIG    1       -1.290   1.681   0.017  0.00  0.00    +0.280 C 
BRANCH  15  16
ATOM     16  C   LIG    1       -2.439   0.671   0.017  0.00  0.00    +0.130 C 
BRANCH  16  24
ATOM     17  C   LIG    1       -5.741   4.447   2.463  0.00  0.00    +0.120 C 
ATOM     18  C   LIG    1       -6.187   3.710   1.227  0.00  0.00    -0.040 A 
ATOM     19  C   LIG    1       -7.410   3.956   0.684  0.00  0.00    +0.030 A 
ATOM     20  C   LIG    1       -7.812   3.261  -0.468  0.00  0.00    +0.020 A 
ATOM     21  C   LIG    1       -6.992   2.353  -1.037  0.00  0.00    +0.200 A 
ATOM     22  N   LIG    1       -5.762   2.097  -0.503  0.00  0.00    -0.360 N 
ATOM     23  C   LIG    1       -4.751   1.251  -0.871  0.00  0.00    +0.090 A 
ATOM     24  C   LIG    1       -3.754   1.407   0.028  0.00  0.00    +0.060 A 
ATOM     25  N   LIG    1       -4.126   2.325   0.922  0.00  0.00    -0.480 NA
ATOM     26  C   LIG    1       -5.342   2.759   0.621  0.00  0.00    +0.230 A 
ENDBRANCH  16  24
ENDBRANCH  15  16
ENDBRANCH   1  15
TORSDOF 4
