REMARK  Name = ZINCrH00000No4NG.0
REMARK                            x       y       z     vdW  Elec       q    Type
REMARK                         _______ _______ _______ _____ _____    ______ ____
ROOT
ATOM      1  C   LIG    1       -2.079   0.054   2.294  0.00  0.00    +0.060 C 
ATOM      2  C   LIG    1       -1.692  -1.179   1.476  0.00  0.00    +0.200 C 
ATOM      3  C   LIG    1       -1.077  -0.742   0.142  0.00  0.00    +0.200 C 
ATOM      4  O   LIG    1       -0.891  -1.890  -0.689  0.00  0.00    -0.370 OA
ATOM      5  C   LIG    1       -2.103  -2.563  -1.038  0.00  0.00    +0.220 C 
ATOM      6  C   LIG    1       -2.771  -3.094   0.236  0.00  0.00    +0.250 C 
ATOM      7  N   LIG    1       -2.892  -1.983   1.193  0.00  0.00    -0.620 N 
ATOM      8  C   LIG    1       -4.068  -1.710   1.793  0.00  0.00    +0.520 C 
ATOM      9  O   LIG    1       -4.170  -0.738   2.512  0.00  0.00    -0.520 OA
ENDROOT
BRANCH   3  10
ATOM     10  C   LIG    1        0.254  -0.082   0.394  0.00  0.00    -0.070 A 
ATOM     11  C   LIG    1        1.395  -0.852   0.515  0.00  0.00    +0.040 A 
ATOM     12  C   LIG    1        2.617  -0.246   0.745  0.00  0.00    +0.030 A 
ATOM     13  C   LIG    1        2.697   1.129   0.855  0.00  0.00    +0.040 A 
ATOM     14  C   LIG    1        1.555   1.900   0.734  0.00  0.00    -0.040 A 
ATOM     15 CL   LIG    1        1.655   3.628   0.870  0.00  0.00    -0.070 Cl
ATOM     16  C   LIG    1        0.333   1.294   0.503  0.00  0.00    +0.030 A 
ENDBRANCH   3  10
BRANCH   8  17
ATOM     17  C   LIG    1       -5.255  -2.611   1.571  0.00  0.00    +0.060 C 
BRANCH  17  18
ATOM     18  C   LIG    1       -6.453  -2.080   2.360  0.00  0.00    +0.100 C 
BRANCH  18  19
ATOM     19  C   LIG    1       -7.640  -2.982   2.138  0.00  0.00    -0.110 A 
ATOM     20  C   LIG    1       -8.514  -2.725   1.093  0.00  0.00    +0.070 A 
ATOM     21  C   LIG    1       -9.603  -3.546   0.875  0.00  0.00    -0.020 A 
ATOM     22  C   LIG    1       -9.836  -4.630   1.708  0.00  0.00    +0.160 A 
ATOM     23  C   LIG    1       -8.956  -4.891   2.771  0.00  0.00    -0.220 A 
ATOM     24  C   LIG    1       -7.854  -4.053   2.977  0.00  0.00    +0.100 A 
BRANCH  23  25
ATOM     25  C   LIG    1       -9.191  -6.034   3.661  0.00  0.00    +0.490 C 
ATOM     26  O   LIG    1       -8.429  -6.255   4.578  0.00  0.00    -0.460 OA
ENDBRANCH  23  25
BRANCH  22  27
ATOM     27  O   LIG    1      -10.908  -5.433   1.497  0.00  0.00    -0.490 OA
ATOM     28  H   LIG    1      -11.707  -5.154   1.966  0.00  0.00    +0.400 HD
ENDBRANCH  22  27
ENDBRANCH  18  19
ENDBRANCH  17  18
ENDBRANCH   8  17
TORSDOF 6
