REMARK  Name = ZINCpe000000V9cE.0
REMARK                            x       y       z     vdW  Elec       q    Type
REMARK                         _______ _______ _______ _____ _____    ______ ____
ROOT
ATOM      1  C   LIG    1       -0.973   1.801   3.607  0.00  0.00    +0.160 C 
ATOM      2  C   LIG    1       -0.477   3.242   3.849  0.00  0.00    +0.060 C 
ATOM      3  C   LIG    1       -0.498   3.396   5.391  0.00  0.00    +0.020 C 
ATOM      4  C   LIG    1       -0.027   2.004   5.881  0.00  0.00    +0.020 C 
ATOM      5  C   LIG    1       -0.687   1.014   4.899  0.00  0.00    +0.040 C 
ENDROOT
BRANCH   1   8
ATOM      6  N   LIG    1       -0.779   0.172   1.756  0.00  0.00    -0.720 N 
ATOM      7  H   LIG    1       -1.623  -0.210   2.043  0.00  0.00    +0.410 HD
ATOM      8  C   LIG    1       -0.226   1.185   2.452  0.00  0.00    +0.530 C 
ATOM      9  O   LIG    1        0.872   1.602   2.149  0.00  0.00    -0.520 OA
BRANCH   6  10
ATOM     10  C   LIG    1       -0.104  -0.352   0.566  0.00  0.00    +0.360 C 
BRANCH  10  11
ATOM     11  C   LIG    1       -0.923  -1.472  -0.023  0.00  0.00    +0.460 C 
ATOM     12  O   LIG    1       -1.964  -1.798   0.497  0.00  0.00    -0.500 OA
BRANCH  11  14
ATOM     13  C   LIG    1       -1.337  -3.175  -1.638  0.00  0.00    +0.290 C 
ATOM     14  O   LIG    1       -0.497  -2.107  -1.126  0.00  0.00    -0.350 OA
ENDBRANCH  11  14
ENDBRANCH  10  11
ENDBRANCH   6  10
ENDBRANCH   1   8
BRANCH   1  15
ATOM     15  N   LIG    1       -2.411   1.805   3.330  0.00  0.00    -0.720 N 
ATOM     16  H   LIG    1       -3.025   1.378   3.947  0.00  0.00    +0.400 HD
ATOM     17  C   LIG    1       -2.881   2.402   2.217  0.00  0.00    +0.560 C 
ATOM     18  O   LIG    1       -2.124   3.016   1.490  0.00  0.00    -0.530 OA
BRANCH  17  19
ATOM     19  C   LIG    1       -4.315   2.311   1.880  0.00  0.00    -0.180 A 
ATOM     20  C   LIG    1       -4.783   2.928   0.736  0.00  0.00    +0.190 A 
ATOM     21  C   LIG    1       -6.149   2.841   0.416  0.00  0.00    -0.230 A 
ATOM     22  C   LIG    1       -6.941   3.319  -0.616  0.00  0.00    +0.310 A 
ATOM     23  N   LIG    1       -8.196   2.914  -0.391  0.00  0.00    -0.420 N 
ATOM     24  H   LIG    1       -8.955   3.111  -0.962  0.00  0.00    +0.450 HD
ATOM     25  N   LIG    1       -8.254   2.164   0.789  0.00  0.00    -0.300 NA
ATOM     26  C   LIG    1       -7.045   2.091   1.312  0.00  0.00    +0.120 A 
ATOM     27  C   LIG    1       -6.503   1.483   2.467  0.00  0.00    +0.040 A 
ATOM     28  C   LIG    1       -5.181   1.591   2.729  0.00  0.00    +0.080 A 
ENDBRANCH  17  19
ENDBRANCH   1  15
TORSDOF 6
