REMARK  Name = ZINCqH0000003psJ.0
REMARK                            x       y       z     vdW  Elec       q    Type
REMARK                         _______ _______ _______ _____ _____    ______ ____
ROOT
ATOM      1  N   LIG    1        1.137   1.882   0.191  0.00  0.00    -0.640 N 
ATOM      2  H   LIG    1        1.118   2.837   0.360  0.00  0.00    +0.420 HD
ATOM      3  C   LIG    1       -0.014   1.210  -0.012  0.00  0.00    +0.510 C 
ATOM      4  O   LIG    1        0.010   0.017  -0.224  0.00  0.00    -0.470 OA
ENDROOT
BRANCH   1   6
ATOM      5  C   LIG    1        3.574   1.795   0.344  0.00  0.00    -0.190 A 
ATOM      6  C   LIG    1        2.348   1.208   0.157  0.00  0.00    +0.050 A 
ATOM      7  S   LIG    1        2.519  -0.464  -0.131  0.00  0.00    +0.310 S 
ATOM      8  C   LIG    1        4.267  -0.387   0.007  0.00  0.00    -0.250 A 
ATOM      9  C   LIG    1        5.189  -1.571  -0.139  0.00  0.00    +0.150 C 
ATOM     10  C   LIG    1        4.666   0.851   0.258  0.00  0.00    -0.050 A 
BRANCH   5  11
ATOM     11  C   LIG    1        3.756   3.224   0.605  0.00  0.00    +0.540 C 
ATOM     12  O   LIG    1        3.760   3.638   1.749  0.00  0.00    -0.490 OA
BRANCH  11  13
ATOM     13  O   LIG    1        3.919   4.083  -0.423  0.00  0.00    -0.350 OA
BRANCH  13  15
ATOM     14  C   LIG    1        4.263   6.298  -1.374  0.00  0.00    +0.070 C 
ATOM     15  C   LIG    1        4.094   5.485  -0.089  0.00  0.00    +0.200 C 
ENDBRANCH  13  15
ENDBRANCH  11  13
ENDBRANCH   5  11
BRANCH  10  16
ATOM     16  C   LIG    1        6.113   1.237   0.431  0.00  0.00    +0.080 C 
ATOM     17  C   LIG    1        6.704   1.622  -0.927  0.00  0.00    +0.030 C 
ENDBRANCH  10  16
ENDBRANCH   1   6
BRANCH   3  18
ATOM     18  C   LIG    1       -1.330   1.944   0.019  0.00  0.00    +0.240 C 
BRANCH  18  19
ATOM     19  N   LIG    1       -2.431   0.980  -0.102  0.00  0.00    -0.470 N 
ATOM     20  C   LIG    1       -2.643   0.255   1.170  0.00  0.00    +0.240 C 
ATOM     21  C   LIG    1       -3.757   1.084   1.850  0.00  0.00    +0.060 C 
ATOM     22  C   LIG    1       -4.462   1.729   0.673  0.00  0.00    -0.130 A 
ATOM     23  C   LIG    1       -5.693   2.341   0.568  0.00  0.00    +0.030 A 
ATOM     24  C   LIG    1       -6.111   2.852  -0.648  0.00  0.00    +0.000 A 
ATOM     25  C   LIG    1       -5.292   2.749  -1.757  0.00  0.00    +0.030 A 
ATOM     26  C   LIG    1       -4.058   2.140  -1.656  0.00  0.00    +0.020 A 
ATOM     27  C   LIG    1       -3.629   1.625  -0.434  0.00  0.00    +0.080 A 
ENDBRANCH  18  19
ENDBRANCH   3  18
TORSDOF 7
