REMARK  Name = ZINCnE000001RpWk.1
REMARK                            x       y       z     vdW  Elec       q    Type
REMARK                         _______ _______ _______ _____ _____    ______ ____
ROOT
ATOM      1  C   LIG    1        4.961  -2.535   0.029  0.00  0.00    +0.380 A 
ATOM      2  N   LIG    1        3.775  -2.011   0.053  0.00  0.00    -0.530 NA
ATOM      3  C   LIG    1        3.698  -0.691  -0.036  0.00  0.00    +0.120 A 
ATOM      4  C   LIG    1        4.876  -0.051  -0.148  0.00  0.00    -0.180 A 
ATOM      5  S   LIG    1        6.162  -1.256  -0.125  0.00  0.00    -0.010 S 
ENDROOT
BRANCH   3   6
ATOM      6  C   LIG    1        2.402   0.031  -0.021  0.00  0.00    +0.010 A 
ATOM      7  C   LIG    1        2.233   1.146   0.798  0.00  0.00    +0.030 A 
ATOM      8  C   LIG    1        1.025   1.814   0.808  0.00  0.00    +0.010 A 
ATOM      9  C   LIG    1       -0.016   1.380   0.008  0.00  0.00    +0.010 A 
ATOM     10  C   LIG    1        0.145   0.274  -0.807  0.00  0.00    +0.010 A 
ATOM     11  C   LIG    1        1.349  -0.403  -0.826  0.00  0.00    -0.010 A 
ATOM     12 CL   LIG    1        1.551  -1.790  -1.849  0.00  0.00    -0.050 Cl
ENDBRANCH   3   6
BRANCH   1  14
ATOM     13  C   LIG    1        6.517  -4.321   0.074  0.00  0.00    +0.480 C 
ATOM     14  N   LIG    1        5.240  -3.892   0.110  0.00  0.00    -0.640 NA
ATOM     15  O   LIG    1        7.424  -3.519  -0.030  0.00  0.00    -0.590 OA
BRANCH  13  20
ATOM     16  C   LIG    1        7.614  -9.908   0.411  0.00  0.00    +0.300 C 
ATOM     17  N   LIG    1        7.341  -8.471   0.324  0.00  0.00    -0.500 N 
ATOM     18  C   LIG    1        6.058  -8.032   0.360  0.00  0.00    +0.260 A 
ATOM     19  C   LIG    1        5.770  -6.713   0.282  0.00  0.00    -0.010 A 
ATOM     20  C   LIG    1        6.815  -5.772   0.161  0.00  0.00    +0.020 A 
ATOM     21  C   LIG    1        8.122  -6.224   0.120  0.00  0.00    -0.060 A 
ATOM     22  C   LIG    1        8.368  -7.609   0.210  0.00  0.00    +0.510 A 
ATOM     23  O   LIG    1        9.514  -8.027   0.180  0.00  0.00    -0.570 OA
ENDBRANCH  13  20
ENDBRANCH   1  14
TORSDOF 3
