REMARK  Name = ZINCpk00000Fe5m1.1
REMARK                            x       y       z     vdW  Elec       q    Type
REMARK                         _______ _______ _______ _____ _____    ______ ____
ROOT
ATOM      1  C   LIG    1       -7.630   2.755  -3.733  0.00  0.00    +0.270 C 
ATOM      2  C   LIG    1       -7.025   3.097  -2.367  0.00  0.00    +0.300 C 
ATOM      3  N   LIG    1       -5.702   3.704  -2.583  0.00  0.00    -0.600 N 
ATOM      4  C   LIG    1       -5.602   4.821  -3.537  0.00  0.00    +0.260 C 
ATOM      5  C   LIG    1       -6.274   4.391  -4.850  0.00  0.00    +0.230 C 
ATOM      6  C   LIG    1       -4.617   3.255  -1.923  0.00  0.00    +0.610 C 
ATOM      7  O   LIG    1       -3.546   3.817  -2.060  0.00  0.00    -0.530 OA
ATOM      8  O   LIG    1       -7.593   3.915  -4.568  0.00  0.00    -0.370 OA
ENDROOT
BRANCH   1  11
ATOM      9  C   LIG    1      -10.784   1.015  -3.429  0.00  0.00    +0.290 A 
ATOM     10  N   LIG    1       -9.492   1.052  -3.634  0.00  0.00    -0.530 NA
ATOM     11  C   LIG    1       -9.058   2.309  -3.554  0.00  0.00    +0.240 A 
ATOM     12  N   LIG    1      -10.071   3.092  -3.290  0.00  0.00    -0.280 NA
ATOM     13  N   LIG    1      -11.208   2.271  -3.209  0.00  0.00    -0.480 N 
ATOM     14  H   LIG    1      -12.117   2.555  -3.028  0.00  0.00    +0.440 HD
BRANCH   9  16
ATOM     15  C   LIG    1      -12.268  -0.400  -4.823  0.00  0.00    +0.050 C 
ATOM     16  C   LIG    1      -11.646  -0.221  -3.437  0.00  0.00    +0.150 C 
ENDBRANCH   9  16
ENDBRANCH   1  11
BRANCH   6  17
ATOM     17  C   LIG    1       -4.726   2.083  -1.036  0.00  0.00    -0.060 A 
ATOM     18  C   LIG    1       -3.701   1.453  -0.399  0.00  0.00    +0.050 A 
ATOM     19  O   LIG    1       -4.240   0.445   0.306  0.00  0.00    -0.180 OA
ATOM     20  C   LIG    1       -5.565   0.453   0.104  0.00  0.00    +0.450 A 
ATOM     21  N   LIG    1       -5.869   1.427  -0.701  0.00  0.00    -0.470 NA
BRANCH  18  22
ATOM     22  C   LIG    1       -2.241   1.820  -0.468  0.00  0.00    +0.290 C 
ATOM     23  C   LIG    1       -1.460   0.773  -1.301  0.00  0.00    +0.020 C 
ATOM     24  C   LIG    1       -0.027   0.943  -0.723  0.00  0.00    +0.020 C 
ATOM     25  C   LIG    1       -0.311   1.278   0.757  0.00  0.00    +0.200 C 
ATOM     26  O   LIG    1       -1.653   1.772   0.841  0.00  0.00    -0.370 OA
ENDBRANCH  18  22
ENDBRANCH   6  17
TORSDOF 4
