REMARK  Name = ZINCpk00000Fe5m1.0
REMARK                            x       y       z     vdW  Elec       q    Type
REMARK                         _______ _______ _______ _____ _____    ______ ____
ROOT
ATOM      1  C   LIG    1        3.630  -5.834  -2.958  0.00  0.00    +0.260 C 
ATOM      2  C   LIG    1        4.186  -4.549  -2.334  0.00  0.00    +0.310 C 
ATOM      3  N   LIG    1        3.459  -4.290  -1.081  0.00  0.00    -0.600 N 
ATOM      4  C   LIG    1        3.349  -5.385  -0.105  0.00  0.00    +0.260 C 
ATOM      5  C   LIG    1        2.829  -6.631  -0.841  0.00  0.00    +0.240 C 
ATOM      6  C   LIG    1        2.914  -3.082  -0.833  0.00  0.00    +0.610 C 
ATOM      7  O   LIG    1        2.380  -2.864   0.238  0.00  0.00    -0.530 OA
ATOM      8  O   LIG    1        3.652  -6.879  -1.983  0.00  0.00    -0.390 OA
ENDROOT
BRANCH   1  12
ATOM      9  C   LIG    1        5.738  -7.332  -5.512  0.00  0.00    +0.180 A 
ATOM     10  N   LIG    1        5.513  -6.137  -5.986  0.00  0.00    -0.280 NA
ATOM     11  N   LIG    1        4.761  -5.483  -5.173  0.00  0.00    -0.270 NA
ATOM     12  C   LIG    1        4.480  -6.229  -4.139  0.00  0.00    +0.180 A 
ATOM     13  N   LIG    1        5.089  -7.425  -4.327  0.00  0.00    -0.560 N 
ATOM     14  H   LIG    1        5.065  -8.191  -3.732  0.00  0.00    +0.430 HD
BRANCH   9  16
ATOM     15  C   LIG    1        6.042  -8.671  -7.577  0.00  0.00    +0.050 C 
ATOM     16  C   LIG    1        6.566  -8.410  -6.163  0.00  0.00    +0.140 C 
ENDBRANCH   9  16
ENDBRANCH   1  12
BRANCH   6  17
ATOM     17  C   LIG    1        2.966  -2.025  -1.859  0.00  0.00    -0.070 A 
ATOM     18  C   LIG    1        2.365  -0.806  -1.795  0.00  0.00    +0.050 A 
ATOM     19  O   LIG    1        2.663  -0.162  -2.935  0.00  0.00    -0.180 OA
ATOM     20  C   LIG    1        3.436  -0.964  -3.680  0.00  0.00    +0.460 A 
ATOM     21  N   LIG    1        3.623  -2.085  -3.049  0.00  0.00    -0.460 NA
BRANCH  18  22
ATOM     22  C   LIG    1        1.520  -0.280  -0.663  0.00  0.00    +0.290 C 
ATOM     23  C   LIG    1        0.029  -0.237  -1.079  0.00  0.00    +0.020 C 
ATOM     24  C   LIG    1       -0.512   0.864  -0.127  0.00  0.00    +0.020 C 
ATOM     25  C   LIG    1        0.694   1.822  -0.017  0.00  0.00    +0.200 C 
ATOM     26  O   LIG    1        1.868   1.083  -0.372  0.00  0.00    -0.370 OA
ENDBRANCH  18  22
ENDBRANCH   6  17
TORSDOF 4
