REMARK  Name = ZINCrH000004sk3N.0
REMARK                            x       y       z     vdW  Elec       q    Type
REMARK                         _______ _______ _______ _____ _____    ______ ____
ROOT
ATOM      1  C   LIG    1       -6.832   4.831   6.418  0.00  0.00    +0.130 A 
ATOM      2  C   LIG    1       -8.004   4.330   5.869  0.00  0.00    +0.050 A 
ATOM      3  C   LIG    1       -9.227   4.729   6.372  0.00  0.00    +0.020 A 
ATOM      4  C   LIG    1       -9.284   5.628   7.421  0.00  0.00    +0.110 A 
ATOM      5  C   LIG    1       -8.118   6.129   7.971  0.00  0.00    -0.660 A 
ATOM      6  C   LIG    1       -6.893   5.729   7.476  0.00  0.00    +0.130 A 
ENDROOT
BRANCH   1   8
ATOM      7  C   LIG    1       -4.555   5.290   5.903  0.00  0.00    +0.540 C 
ATOM      8  N   LIG    1       -5.592   4.428   5.911  0.00  0.00    -0.670 N 
ATOM      9  H   LIG    1       -5.478   3.529   5.565  0.00  0.00    +0.420 HD
ATOM     10  O   LIG    1       -4.720   6.441   6.246  0.00  0.00    -0.490 OA
BRANCH   7  11
ATOM     11  C   LIG    1       -3.190   4.822   5.468  0.00  0.00    -0.020 C 
ATOM     12  C   LIG    1       -3.083   4.907   3.944  0.00  0.00    +0.090 C 
BRANCH  11  13
ATOM     13  S   LIG    1       -1.923   5.872   6.221  0.00  0.00    +0.100 S 
BRANCH  13  18
ATOM     14  C   LIG    1        3.174   4.947   5.719  0.00  0.00    +0.160 C 
ATOM     15  C   LIG    1        1.717   4.647   5.476  0.00  0.00    +0.080 A 
ATOM     16  C   LIG    1        1.307   3.606   4.751  0.00  0.00    -0.080 A 
ATOM     17  S   LIG    1       -0.454   3.623   4.717  0.00  0.00    +0.130 S 
ATOM     18  C   LIG    1       -0.470   5.033   5.684  0.00  0.00    +0.000 A 
ATOM     19  N   LIG    1        0.744   5.392   5.969  0.00  0.00    -0.450 NA
ENDBRANCH  13  18
ENDBRANCH  11  13
ENDBRANCH   7  11
ENDBRANCH   1   8
BRANCH   5  20
ATOM     20  S   LIG    1       -8.196   7.273   9.309  0.00  0.00    +2.690 S 
ATOM     21  O   LIG    1       -9.473   7.893   9.233  0.00  0.00    -0.950 OA
ATOM     22  O   LIG    1       -6.977   8.002   9.286  0.00  0.00    -0.940 OA
BRANCH  20  23
ATOM     23  N   LIG    1       -8.187   6.390  10.710  0.00  0.00    -1.000 NA
ATOM     24  C   LIG    1       -9.446   5.941  11.320  0.00  0.00    +0.290 C 
ATOM     25  C   LIG    1       -9.371   4.422  11.535  0.00  0.00    +0.010 C 
ATOM     26  C   LIG    1       -8.122   4.091  12.355  0.00  0.00    +0.010 C 
ATOM     27  C   LIG    1       -6.873   4.531  11.587  0.00  0.00    +0.010 C 
ATOM     28  C   LIG    1       -6.921   6.047  11.370  0.00  0.00    +0.290 C 
ENDBRANCH  20  23
ENDBRANCH   5  20
TORSDOF 6
