REMARK  Name = ZINCkj00000GePku.0
REMARK                            x       y       z     vdW  Elec       q    Type
REMARK                         _______ _______ _______ _____ _____    ______ ____
ROOT
ATOM      1  C   LIG    1        4.617  -0.142  -2.871  0.00  0.00    +0.240 C 
ENDROOT
BRANCH   1   2
ATOM      2  N   LIG    1        4.203   0.089  -1.480  0.00  0.00    -0.500 N 
ATOM      3  H   LIG    1        4.099  -0.796  -1.008  0.00  0.00    +0.430 HD
ATOM      4  H   LIG    1        4.904   0.641  -1.008  0.00  0.00    +0.430 HD
BRANCH   2   5
ATOM      5  C   LIG    1        2.921   0.806  -1.464  0.00  0.00    +0.250 C 
BRANCH   5   6
ATOM      6  C   LIG    1        2.490   1.048  -0.016  0.00  0.00    +0.100 C 
BRANCH   6   7
ATOM      7  C   LIG    1        1.175   1.783   0.000  0.00  0.00    -0.110 A 
ATOM      8  C   LIG    1       -0.013   1.076   0.008  0.00  0.00    +0.010 A 
ATOM      9  C   LIG    1       -1.219   1.751   0.017  0.00  0.00    +0.020 A 
ATOM     10  C   LIG    1       -1.238   3.133   0.030  0.00  0.00    +0.030 A 
ATOM     11  C   LIG    1       -0.050   3.840   0.022  0.00  0.00    +0.020 A 
ATOM     12  C   LIG    1        1.156   3.165   0.008  0.00  0.00    +0.010 A 
ENDBRANCH   6   7
ENDBRANCH   5   6
ENDBRANCH   2   5
ENDBRANCH   1   2
BRANCH   1  13
ATOM     13  C   LIG    1        5.953  -0.889  -2.887  0.00  0.00    +0.220 C 
BRANCH  13  14
ATOM     14  O   LIG    1        5.778  -2.190  -2.323  0.00  0.00    -0.540 OA
ATOM     15  H   LIG    1        5.137  -2.740  -2.795  0.00  0.00    +0.390 HD
ENDBRANCH  13  14
BRANCH  13  16
ATOM     16  C   LIG    1        6.445  -1.021  -4.330  0.00  0.00    +0.160 C 
BRANCH  16  17
ATOM     17  O   LIG    1        7.745  -1.614  -4.337  0.00  0.00    -0.370 OA
BRANCH  17  18
ATOM     18  C   LIG    1        8.300  -1.782  -5.643  0.00  0.00    +0.200 C 
BRANCH  18  19
ATOM     19  C   LIG    1        9.685  -2.422  -5.530  0.00  0.00    +0.160 C 
ATOM     20  C   LIG    1       10.268  -2.697  -6.939  0.00  0.00    +0.020 C 
ATOM     21  C   LIG    1       11.791  -2.697  -6.633  0.00  0.00    +0.010 C 
ATOM     22  C   LIG    1       11.902  -1.641  -5.512  0.00  0.00    +0.190 C 
ATOM     23  O   LIG    1       10.607  -1.509  -4.913  0.00  0.00    -0.370 OA
ENDBRANCH  18  19
ENDBRANCH  17  18
ENDBRANCH  16  17
ENDBRANCH  13  16
ENDBRANCH   1  13
TORSDOF 10
