REMARK  Name = ZINCkj000005epKu.0
REMARK                            x       y       z     vdW  Elec       q    Type
REMARK                         _______ _______ _______ _____ _____    ______ ____
ROOT
ATOM      1  C   LIG    1        1.434   6.066   1.888  0.00  0.00    +0.510 C 
ATOM      2  N   LIG    1        0.271   5.478   1.548  0.00  0.00    -0.610 N 
ATOM      3  C   LIG    1       -0.822   5.397   2.521  0.00  0.00    +0.280 C 
ATOM      4  O   LIG    1        2.380   6.025   1.129  0.00  0.00    -0.500 OA
ENDROOT
BRANCH   1   8
ATOM      5  N   LIG    1        2.381   9.135   4.677  0.00  0.00    -0.390 N 
ATOM      6  C   LIG    1        3.147   7.888   4.786  0.00  0.00    +0.270 C 
ATOM      7  C   LIG    1        3.034   7.099   3.480  0.00  0.00    +0.090 C 
ATOM      8  C   LIG    1        1.562   6.774   3.212  0.00  0.00    -0.010 C 
ATOM      9  C   LIG    1        0.760   8.078   3.174  0.00  0.00    +0.080 C 
ATOM     10  C   LIG    1        0.957   8.831   4.492  0.00  0.00    +0.260 C 
ATOM     11  H   LIG    1        2.716   9.666   3.887  0.00  0.00    +0.430 HD
BRANCH   5  12
ATOM     12  C   LIG    1        2.557   9.925   5.904  0.00  0.00    +0.430 C 
BRANCH  12  14
ATOM     13  C   LIG    1        1.009  12.069   5.801  0.00  0.00    +0.180 C 
ATOM     14  C   LIG    1        1.696  11.117   5.846  0.00  0.00    -0.290 C 
ENDBRANCH  12  14
ENDBRANCH   5  12
ENDBRANCH   1   8
BRANCH   2  15
ATOM     15  C   LIG    1        0.098   4.919   0.204  0.00  0.00    +0.370 C 
BRANCH  15  16
ATOM     16  C   LIG    1        0.536   3.477   0.200  0.00  0.00    +0.100 A 
ATOM     17  C   LIG    1       -0.401   2.478   0.380  0.00  0.00    -0.030 A 
ATOM     18  C   LIG    1        0.013   1.154   0.369  0.00  0.00    +0.060 A 
ATOM     19  C   LIG    1        1.361   0.885   0.187  0.00  0.00    -0.030 A 
ATOM     20  C   LIG    1        2.240   1.937   0.013  0.00  0.00    +0.260 A 
ATOM     21  N   LIG    1        1.810   3.184   0.024  0.00  0.00    -0.460 NA
ENDBRANCH  15  16
ENDBRANCH   2  15
TORSDOF 5
