REMARK  Name = ZINCtj00001UqOsZ.1
REMARK                            x       y       z     vdW  Elec       q    Type
REMARK                         _______ _______ _______ _____ _____    ______ ____
ROOT
ATOM      1  C   LIG    1        1.426   6.282   3.528  0.00  0.00    +0.020 A 
ATOM      2  C   LIG    1        2.159   7.362   3.902  0.00  0.00    +0.180 A 
ATOM      3  N   LIG    1        2.549   7.166   5.188  0.00  0.00    -0.370 N 
ATOM      4  N   LIG    1        2.038   5.932   5.610  0.00  0.00    -0.270 NA
ATOM      5  C   LIG    1        1.362   5.406   4.621  0.00  0.00    +0.270 A 
ENDROOT
BRANCH   3   6
ATOM      6  C   LIG    1        3.360   8.084   5.992  0.00  0.00    +0.290 C 
ATOM      7  C   LIG    1        3.055   9.559   5.617  0.00  0.00    +0.050 C 
ATOM      8  C   LIG    1        4.382  10.258   6.002  0.00  0.00    +0.270 C 
ATOM      9  N   LIG    1        5.436   9.292   5.644  0.00  0.00    -0.610 N 
ATOM     10  C   LIG    1        6.719   9.596   5.365  0.00  0.00    +0.530 C 
ATOM     11  O   LIG    1        7.528   8.710   5.187  0.00  0.00    -0.490 OA
ATOM     12  C   LIG    1        4.856   7.941   5.642  0.00  0.00    +0.280 C 
BRANCH  10  13
ATOM     13  C   LIG    1        7.149  11.038   5.276  0.00  0.00    -0.010 C 
ATOM     14  C   LIG    1        8.476  11.331   5.996  0.00  0.00    +0.120 C 
ATOM     15  C   LIG    1        7.833  12.646   6.473  0.00  0.00    +0.060 C 
ATOM     16  C   LIG    1        6.472  11.948   6.314  0.00  0.00    +0.090 C 
BRANCH  13  17
ATOM     17  N   LIG    1        7.094  11.565   3.906  0.00  0.00    -0.360 N 
ATOM     18  C   LIG    1        5.704  11.556   3.433  0.00  0.00    +0.330 C 
ATOM     19  C   LIG    1        7.917  10.726   3.024  0.00  0.00    +0.330 C 
ATOM     20  H   LIG    1        7.447  12.511   3.895  0.00  0.00    +0.430 HD
ENDBRANCH  13  17
ENDBRANCH  10  13
ENDBRANCH   3   6
BRANCH   1  22
ATOM     21  C   LIG    1        0.125   4.958   2.028  0.00  0.00    +0.510 C 
ATOM     22  N   LIG    1        0.830   6.081   2.268  0.00  0.00    -0.650 N 
ATOM     23  H   LIG    1        0.927   6.751   1.573  0.00  0.00    +0.410 HD
ATOM     24  O   LIG    1        0.003   4.121   2.897  0.00  0.00    -0.510 OA
BRANCH  21  25
ATOM     25  C   LIG    1       -0.513   4.743   0.680  0.00  0.00    +0.160 C 
BRANCH  25  30
ATOM     26  C   LIG    1       -4.127   1.211   1.012  0.00  0.00    +0.170 C 
ATOM     27  C   LIG    1       -2.797   1.892   0.815  0.00  0.00    +0.220 A 
ATOM     28  N   LIG    1       -1.677   1.298   0.505  0.00  0.00    -0.490 NA
ATOM     29  C   LIG    1       -0.702   2.214   0.411  0.00  0.00    +0.180 A 
ATOM     30  C   LIG    1       -1.237   3.421   0.672  0.00  0.00    -0.030 A 
ATOM     31  N   LIG    1       -2.567   3.218   0.928  0.00  0.00    -0.560 N 
ATOM     32  H   LIG    1       -3.221   3.899   1.147  0.00  0.00    +0.420 HD
ENDBRANCH  25  30
ENDBRANCH  21  25
ENDBRANCH   1  22
TORSDOF 6
