REMARK  Name = ZINCtj00001UqOsZ.0
REMARK                            x       y       z     vdW  Elec       q    Type
REMARK                         _______ _______ _______ _____ _____    ______ ____
ROOT
ATOM      1  C   LIG    1       -3.912   3.369  -3.670  0.00  0.00    +0.030 A 
ATOM      2  C   LIG    1       -5.221   3.696  -3.813  0.00  0.00    +0.170 A 
ATOM      3  N   LIG    1       -5.759   2.843  -4.724  0.00  0.00    -0.380 N 
ATOM      4  N   LIG    1       -4.748   1.972  -5.147  0.00  0.00    -0.270 NA
ATOM      5  C   LIG    1       -3.642   2.289  -4.523  0.00  0.00    +0.270 A 
ENDROOT
BRANCH   3   6
ATOM      6  C   LIG    1       -7.151   2.837  -5.182  0.00  0.00    +0.300 C 
ATOM      7  C   LIG    1       -7.724   4.278  -5.216  0.00  0.00    +0.050 C 
ATOM      8  C   LIG    1       -9.240   4.014  -5.036  0.00  0.00    +0.270 C 
ATOM      9  N   LIG    1       -9.316   2.888  -4.088  0.00  0.00    -0.610 N 
ATOM     10  C   LIG    1      -10.365   2.602  -3.291  0.00  0.00    +0.530 C 
ATOM     11  O   LIG    1      -10.363   1.587  -2.626  0.00  0.00    -0.490 OA
ATOM     12  C   LIG    1       -8.060   2.127  -4.157  0.00  0.00    +0.270 C 
BRANCH  10  13
ATOM     13  C   LIG    1      -11.540   3.542  -3.225  0.00  0.00    -0.010 C 
ATOM     14  C   LIG    1      -12.903   2.830  -3.277  0.00  0.00    +0.120 C 
ATOM     15  C   LIG    1      -13.377   3.977  -4.188  0.00  0.00    +0.060 C 
ATOM     16  C   LIG    1      -11.903   4.170  -4.582  0.00  0.00    +0.090 C 
BRANCH  13  17
ATOM     17  N   LIG    1      -11.428   4.520  -2.135  0.00  0.00    -0.360 N 
ATOM     18  C   LIG    1      -10.265   5.386  -2.371  0.00  0.00    +0.330 C 
ATOM     19  C   LIG    1      -11.262   3.813  -0.858  0.00  0.00    +0.330 C 
ATOM     20  H   LIG    1      -12.265   5.083  -2.101  0.00  0.00    +0.430 HD
ENDBRANCH  13  17
ENDBRANCH  10  13
ENDBRANCH   3   6
BRANCH   1  22
ATOM     21  C   LIG    1       -1.710   3.578  -2.774  0.00  0.00    +0.520 C 
ATOM     22  N   LIG    1       -2.987   4.005  -2.820  0.00  0.00    -0.650 N 
ATOM     23  H   LIG    1       -3.269   4.751  -2.268  0.00  0.00    +0.410 HD
ATOM     24  O   LIG    1       -1.357   2.645  -3.465  0.00  0.00    -0.500 OA
BRANCH  21  25
ATOM     25  C   LIG    1       -0.719   4.259  -1.865  0.00  0.00    +0.170 C 
BRANCH  25  29
ATOM     26  C   LIG    1        2.836   0.729  -1.946  0.00  0.00    +0.170 C 
ATOM     27  C   LIG    1        2.152   2.068  -2.036  0.00  0.00    +0.210 A 
ATOM     28  N   LIG    1        0.881   2.288  -1.837  0.00  0.00    -0.460 NA
ATOM     29  C   LIG    1        0.627   3.595  -2.001  0.00  0.00    +0.010 A 
ATOM     30  C   LIG    1        1.784   4.208  -2.313  0.00  0.00    +0.130 A 
ATOM     31  N   LIG    1        2.752   3.240  -2.336  0.00  0.00    -0.570 N 
ATOM     32  H   LIG    1        3.693   3.372  -2.530  0.00  0.00    +0.420 HD
ENDBRANCH  25  29
ENDBRANCH  21  25
ENDBRANCH   1  22
TORSDOF 6
