REMARK  Name = ZINCpe00000VVGfD.0
REMARK                            x       y       z     vdW  Elec       q    Type
REMARK                         _______ _______ _______ _____ _____    ______ ____
ROOT
ATOM      1  C   LIG    1       -9.501   1.519   0.946  0.00  0.00    +0.270 C 
ATOM      2  C   LIG    1       -9.531   2.886   1.634  0.00  0.00    +0.040 C 
ATOM      3  C   LIG    1       -8.413   2.951   2.677  0.00  0.00    +0.180 C 
ATOM      4  N   LIG    1       -7.117   2.741   2.021  0.00  0.00    -0.520 NA
ATOM      5  C   LIG    1       -7.047   1.416   1.393  0.00  0.00    +0.180 C 
ATOM      6  C   LIG    1       -8.124   1.305   0.312  0.00  0.00    +0.030 C 
ENDROOT
BRANCH   1  10
ATOM      7  N   LIG    1      -11.646   2.039  -1.959  0.00  0.00    -0.640 N 
ATOM      8  C   LIG    1      -12.416   0.909  -1.420  0.00  0.00    +0.250 C 
ATOM      9  C   LIG    1      -11.652   0.519  -0.140  0.00  0.00    +0.250 C 
ATOM     10  N   LIG    1      -10.533   1.471  -0.093  0.00  0.00    -0.630 N 
ATOM     11  C   LIG    1      -10.609   2.292  -1.149  0.00  0.00    +0.700 C 
ATOM     12  O   LIG    1       -9.808   3.182  -1.356  0.00  0.00    -0.570 OA
BRANCH   7  14
ATOM     13  C   LIG    1      -12.887   3.950  -2.848  0.00  0.00    +0.010 C 
ATOM     14  C   LIG    1      -11.965   2.777  -3.184  0.00  0.00    +0.310 C 
ENDBRANCH   7  14
ENDBRANCH   1  10
BRANCH   4  15
ATOM     15  C   LIG    1       -6.010   2.934   2.968  0.00  0.00    +0.220 C 
BRANCH  15  16
ATOM     16  C   LIG    1       -5.959   4.379   3.393  0.00  0.00    +0.520 C 
ATOM     17  N   LIG    1       -5.101   4.768   4.358  0.00  0.00    -0.650 N 
ATOM     18  H   LIG    1       -4.517   4.117   4.778  0.00  0.00    +0.410 HD
ATOM     19  O   LIG    1       -6.689   5.192   2.867  0.00  0.00    -0.480 OA
BRANCH  17  20
ATOM     20  C   LIG    1       -5.054   6.105   4.751  0.00  0.00    +0.310 A 
ATOM     21  C   LIG    1       -5.817   7.117   4.255  0.00  0.00    -0.110 A 
ATOM     22  C   LIG    1       -5.452   8.292   4.918  0.00  0.00    +0.090 A 
ATOM     23  N   LIG    1       -4.517   8.002   5.785  0.00  0.00    -0.290 NA
ATOM     24  C   LIG    1       -6.041   9.659   4.679  0.00  0.00    +0.160 C 
ATOM     25  N   LIG    1       -4.247   6.630   5.701  0.00  0.00    -0.390 N 
ATOM     26  C   LIG    1       -3.264   5.894   6.501  0.00  0.00    +0.340 C 
ENDBRANCH  17  20
ENDBRANCH  15  16
ENDBRANCH   4  15
TORSDOF 5
