REMARK  Name = ZINCpk00000y6tL9.0
REMARK                            x       y       z     vdW  Elec       q    Type
REMARK                         _______ _______ _______ _____ _____    ______ ____
ROOT
ATOM      1  C   LIG    1       -0.662   7.498   2.935  0.00  0.00    +0.570 C 
ATOM      2  N   LIG    1       -0.345   7.113   1.683  0.00  0.00    -0.720 N 
ATOM      3  H   LIG    1       -0.549   7.691   0.931  0.00  0.00    +0.410 HD
ATOM      4  O   LIG    1       -0.406   6.774   3.876  0.00  0.00    -0.510 OA
ENDROOT
BRANCH   1   7
ATOM      5  C   LIG    1       -2.246  10.865   2.355  0.00  0.00    +0.330 A 
ATOM      6  C   LIG    1       -1.626   9.650   2.095  0.00  0.00    -0.030 A 
ATOM      7  C   LIG    1       -1.323   8.804   3.163  0.00  0.00    -0.050 A 
ATOM      8  C   LIG    1       -1.666   9.219   4.455  0.00  0.00    +0.000 A 
ATOM      9  C   LIG    1       -2.277  10.445   4.626  0.00  0.00    +0.170 A 
ATOM     10  C   LIG    1       -2.645  10.904   6.014  0.00  0.00    +0.140 C 
ATOM     11  N   LIG    1       -2.547  11.219   3.593  0.00  0.00    -0.520 NA
BRANCH   5  13
ATOM     12  C   LIG    1       -3.185  12.933   1.659  0.00  0.00    +0.260 C 
ATOM     13  O   LIG    1       -2.547  11.698   1.328  0.00  0.00    -0.310 OA
ENDBRANCH   5  13
ENDBRANCH   1   7
BRANCH   2  14
ATOM     14  C   LIG    1        0.309   5.821   1.457  0.00  0.00    +0.270 C 
ATOM     15  C   LIG    1        1.848   5.974   1.440  0.00  0.00    +0.060 C 
ATOM     16  C   LIG    1        2.186   6.160  -0.022  0.00  0.00    +0.520 C 
ATOM     17  N   LIG    1        1.149   5.782  -0.789  0.00  0.00    -0.620 N 
ATOM     18  C   LIG    1        1.138   5.840  -2.252  0.00  0.00    +0.300 C 
ATOM     19  O   LIG    1        3.240   6.590  -0.442  0.00  0.00    -0.520 OA
ATOM     20  C   LIG    1        0.029   5.302   0.029  0.00  0.00    +0.290 C 
BRANCH  20  21
ATOM     21  C   LIG    1       -0.015   3.796   0.022  0.00  0.00    -0.160 A 
ATOM     22  C   LIG    1       -1.231   3.129   0.030  0.00  0.00    +0.080 A 
ATOM     23  C   LIG    1       -1.223   1.742   0.017  0.00  0.00    -0.030 A 
ATOM     24  C   LIG    1       -0.013   1.076   0.008  0.00  0.00    +0.270 A 
ATOM     25  N   LIG    1        1.125   1.743   0.001  0.00  0.00    -0.480 NA
ATOM     26  C   LIG    1        1.156   3.061   0.007  0.00  0.00    +0.270 A 
ENDBRANCH  20  21
ENDBRANCH   2  14
TORSDOF 4
