REMARK  Name = ZINCpe000000UaAS.0
REMARK                            x       y       z     vdW  Elec       q    Type
REMARK                         _______ _______ _______ _____ _____    ______ ____
ROOT
ATOM      1  C   LIG    1       -1.909   0.812   3.642  0.00  0.00    +0.510 C 
ATOM      2  N   LIG    1       -2.935   1.685   3.616  0.00  0.00    -0.640 N 
ATOM      3  H   LIG    1       -3.236   2.056   2.771  0.00  0.00    +0.430 HD
ATOM      4  O   LIG    1       -1.606   0.263   4.681  0.00  0.00    -0.480 OA
ENDROOT
BRANCH   1  10
ATOM      5  C   LIG    1       -0.037  -2.792   3.030  0.00  0.00    +0.140 C 
ATOM      6  C   LIG    1       -0.039  -1.347   3.540  0.00  0.00    +0.260 C 
ATOM      7  N   LIG    1       -0.207  -0.448   2.387  0.00  0.00    -0.580 N 
ATOM      8  C   LIG    1        0.679  -0.637   1.228  0.00  0.00    +0.200 C 
ATOM      9  C   LIG    1        0.647  -2.118   0.831  0.00  0.00    +0.220 C 
ATOM     10  C   LIG    1       -1.145   0.520   2.393  0.00  0.00    +0.510 C 
ATOM     11  O   LIG    1       -1.369   1.154   1.382  0.00  0.00    -0.500 OA
ATOM     12  O   LIG    1        0.926  -2.920   1.981  0.00  0.00    -0.370 OA
BRANCH   5  14
ATOM     13  C   LIG    1        0.215  -5.187   3.696  0.00  0.00    +0.020 C 
ATOM     14  C   LIG    1        0.328  -3.739   4.176  0.00  0.00    +0.050 C 
ENDBRANCH   5  14
BRANCH   8  15
ATOM     15  C   LIG    1        0.190   0.221   0.059  0.00  0.00    +0.060 C 
ATOM     16  C   LIG    1        1.098  -0.001  -1.152  0.00  0.00    +0.020 C 
ENDBRANCH   8  15
ENDBRANCH   1  10
BRANCH   2  17
ATOM     17  C   LIG    1       -3.567   2.058   4.806  0.00  0.00    +0.150 A 
ATOM     18  C   LIG    1       -2.845   2.132   5.995  0.00  0.00    +0.060 A 
ATOM     19  C   LIG    1       -3.516   2.506   7.149  0.00  0.00    +0.100 A 
ATOM     20  C   LIG    1       -4.867   2.791   7.083  0.00  0.00    -0.450 A 
ATOM     21  N   LIG    1       -5.521   2.711   5.940  0.00  0.00    -0.370 NA
ATOM     22  C   LIG    1       -4.922   2.365   4.819  0.00  0.00    +0.240 A 
BRANCH  20  23
ATOM     23  S   LIG    1       -5.727   3.267   8.545  0.00  0.00    +2.510 S 
ATOM     24  O   LIG    1       -4.978   2.677   9.599  0.00  0.00    -0.930 OA
ATOM     25  O   LIG    1       -7.073   2.884   8.300  0.00  0.00    -0.910 OA
ATOM     26  C   LIG    1       -5.577   5.074   8.590  0.00  0.00    -0.240 C 
ENDBRANCH  20  23
ENDBRANCH   2  17
TORSDOF 5
