REMARK  Name = ZINCtV00000L6ku7.0
REMARK                            x       y       z     vdW  Elec       q    Type
REMARK                         _______ _______ _______ _____ _____    ______ ____
ROOT
ATOM      1  N   LIG    1       -0.011   0.966   0.007  0.00  0.00    -0.660 N 
ATOM      2  H   LIG    1        0.788   1.333   0.417  0.00  0.00    +0.410 HD
ATOM      3  C   LIG    1        0.035  -0.236  -0.600  0.00  0.00    +0.510 C 
ATOM      4  O   LIG    1       -0.981  -0.733  -1.040  0.00  0.00    -0.510 OA
ENDROOT
BRANCH   1  10
ATOM      5  N   LIG    1       -4.897   3.585   0.204  0.00  0.00    -0.500 N 
ATOM      6  C   LIG    1       -5.772   2.521   0.329  0.00  0.00    +0.150 A 
ATOM      7  C   LIG    1       -5.025   1.334   0.344  0.00  0.00    -0.110 A 
ATOM      8  C   LIG    1       -3.609   1.727   0.219  0.00  0.00    -0.090 A 
ATOM      9  C   LIG    1       -2.416   1.010   0.176  0.00  0.00    +0.080 A 
ATOM     10  C   LIG    1       -1.214   1.683   0.051  0.00  0.00    +0.100 A 
ATOM     11  C   LIG    1       -1.197   3.073  -0.025  0.00  0.00    +0.030 A 
ATOM     12  C   LIG    1       -2.373   3.789   0.012  0.00  0.00    +0.010 A 
ATOM     13  C   LIG    1       -5.671   0.105   0.462  0.00  0.00    +0.060 A 
ATOM     14  C   LIG    1       -7.045   0.061   0.563  0.00  0.00    -0.020 A 
ATOM     15  C   LIG    1       -7.784   1.234   0.548  0.00  0.00    +0.050 A 
ATOM     16  C   LIG    1       -7.158   2.456   0.432  0.00  0.00    -0.020 A 
ATOM     17  C   LIG    1       -3.591   3.127   0.137  0.00  0.00    +0.140 A 
BRANCH   5  19
ATOM     18  C   LIG    1       -5.329   5.568   1.569  0.00  0.00    +0.020 C 
ATOM     19  C   LIG    1       -5.294   4.994   0.151  0.00  0.00    +0.290 C 
ENDBRANCH   5  19
ENDBRANCH   1  10
BRANCH   3  20
ATOM     20  C   LIG    1        1.347  -0.964  -0.734  0.00  0.00    +0.240 C 
ATOM     21  C   LIG    1        1.927  -1.230   0.657  0.00  0.00    +0.050 C 
BRANCH  20  22
ATOM     22  N   LIG    1        1.132  -2.237  -1.425  0.00  0.00    -0.720 N 
ATOM     23  H   LIG    1        0.261  -2.663  -1.398  0.00  0.00    +0.420 HD
BRANCH  22  24
ATOM     24  C   LIG    1        2.181  -2.839  -2.124  0.00  0.00    +0.250 A 
ATOM     25  C   LIG    1        3.428  -2.228  -2.169  0.00  0.00    -0.050 A 
ATOM     26  C   LIG    1        4.466  -2.828  -2.856  0.00  0.00    +0.030 A 
ATOM     27  C   LIG    1        4.261  -4.031  -3.509  0.00  0.00    -0.020 A 
ATOM     28  C   LIG    1        3.019  -4.639  -3.470  0.00  0.00    +0.030 A 
ATOM     29 CL   LIG    1        2.766  -6.148  -4.291  0.00  0.00    -0.050 Cl
ATOM     30 CL   LIG    1        6.026  -2.068  -2.907  0.00  0.00    -0.060 Cl
ATOM     31  C   LIG    1        1.979  -4.046  -2.780  0.00  0.00    -0.040 A 
ENDBRANCH  22  24
ENDBRANCH  20  22
ENDBRANCH   3  20
TORSDOF 5
