REMARK  Name = ZINCrH000004trvC.0
REMARK                            x       y       z     vdW  Elec       q    Type
REMARK                         _______ _______ _______ _____ _____    ______ ____
ROOT
ATOM      1  N   LIG    1       -0.011   0.966   0.007  0.00  0.00    -0.620 N 
ATOM      2  H   LIG    1        0.002  -0.004   0.002  0.00  0.00    +0.430 HD
ATOM      3  C   LIG    1       -1.187   1.624   0.017  0.00  0.00    +0.520 C 
ATOM      4  O   LIG    1       -1.204   2.837   0.023  0.00  0.00    -0.500 OA
ENDROOT
BRANCH   1   8
ATOM      5  C   LIG    1        3.393   1.971  -0.020  0.00  0.00    +0.110 A 
ATOM      6  C   LIG    1        3.065   3.265  -0.009  0.00  0.00    -0.130 A 
ATOM      7  S   LIG    1        1.307   3.382   0.008  0.00  0.00    +0.250 S 
ATOM      8  C   LIG    1        1.183   1.677  -0.000  0.00  0.00    +0.240 A 
ATOM      9  N   LIG    1        2.365   1.144  -0.009  0.00  0.00    -0.490 NA
BRANCH   5  10
ATOM     10  C   LIG    1        4.822   1.494  -0.037  0.00  0.00    +0.150 C 
BRANCH  10  14
ATOM     11  N   LIG    1        6.266  -0.000   1.306  0.00  0.00    -0.860 N 
ATOM     12  H   LIG    1        6.413  -0.604   2.050  0.00  0.00    +0.400 HD
ATOM     13  H   LIG    1        6.992   0.205   0.696  0.00  0.00    +0.400 HD
ATOM     14  C   LIG    1        5.052   0.555   1.119  0.00  0.00    +0.520 C 
ATOM     15  O   LIG    1        4.144   0.299   1.882  0.00  0.00    -0.520 OA
ENDBRANCH  10  14
ENDBRANCH   5  10
ENDBRANCH   1   8
BRANCH   3  16
ATOM     16  C   LIG    1       -2.482   0.853   0.018  0.00  0.00    +0.100 C 
BRANCH  16  17
ATOM     17  C   LIG    1       -3.658   1.831   0.029  0.00  0.00    +0.220 C 
BRANCH  17  18
ATOM     18  C   LIG    1       -4.953   1.060   0.031  0.00  0.00    +0.200 A 
ATOM     19  N   LIG    1       -5.595   0.662   1.094  0.00  0.00    -0.470 NA
ATOM     20  C   LIG    1       -6.704   0.010   0.713  0.00  0.00    +0.190 A 
ATOM     21  C   LIG    1       -6.730   0.006  -0.645  0.00  0.00    -0.020 A 
ATOM     22  O   LIG    1       -5.627   0.668  -1.059  0.00  0.00    -0.180 OA
BRANCH  21  23
ATOM     23  C   LIG    1       -7.766  -0.603  -1.505  0.00  0.00    -0.010 A 
ATOM     24  C   LIG    1       -8.169  -1.922  -1.289  0.00  0.00    +0.080 A 
ATOM     25  C   LIG    1       -9.137  -2.485  -2.094  0.00  0.00    +0.050 A 
ATOM     26  C   LIG    1       -9.709  -1.746  -3.115  0.00  0.00    -0.010 A 
ATOM     27  C   LIG    1       -9.314  -0.437  -3.336  0.00  0.00    +0.050 A 
ATOM     28 CL   LIG    1      -10.927  -2.462  -4.124  0.00  0.00    -0.050 Cl
ATOM     29  C   LIG    1       -8.350   0.140  -2.533  0.00  0.00    -0.010 A 
ATOM     30 CL   LIG    1       -7.861   1.783  -2.806  0.00  0.00    -0.040 Cl
ENDBRANCH  21  23
ENDBRANCH  17  18
ENDBRANCH  16  17
ENDBRANCH   3  16
TORSDOF 7
