REMARK  Name = ZINCqH0000006Ia6.0
REMARK                            x       y       z     vdW  Elec       q    Type
REMARK                         _______ _______ _______ _____ _____    ______ ____
ROOT
ATOM      1  C   LIG    1        1.171   2.098   0.002  0.00  0.00    +0.120 A 
ATOM      2  C   LIG    1       -0.017   1.394   0.010  0.00  0.00    +0.030 A 
ATOM      3  C   LIG    1        0.002  -0.004   0.002  0.00  0.00    -0.080 A 
ATOM      4  C   LIG    1        1.223  -0.683  -0.013  0.00  0.00    +0.080 A 
ATOM      5  C   LIG    1        2.406   0.026  -0.021  0.00  0.00    -0.030 A 
ATOM      6 CL   LIG    1        3.922  -0.819  -0.040  0.00  0.00    -0.030 Cl
ATOM      7  C   LIG    1        2.386   1.415  -0.013  0.00  0.00    +0.110 A 
ENDROOT
BRANCH   1   9
ATOM      8  C   LIG    1       -0.125   4.092   0.025  0.00  0.00    +0.250 C 
ATOM      9  O   LIG    1        1.156   3.458   0.010  0.00  0.00    -0.300 OA
ENDBRANCH   1   9
BRANCH   3  10
ATOM     10  C   LIG    1       -1.264  -0.760   0.011  0.00  0.00    +0.520 C 
ATOM     11  O   LIG    1       -2.325  -0.169   0.024  0.00  0.00    -0.490 OA
BRANCH  10  12
ATOM     12  O   LIG    1       -1.244  -2.108   0.003  0.00  0.00    -0.340 OA
BRANCH  12  13
ATOM     13  C   LIG    1       -2.528  -2.786   0.012  0.00  0.00    +0.230 C 
ATOM     14  C   LIG    1       -2.964  -3.032   1.458  0.00  0.00    +0.050 C 
BRANCH  13  15
ATOM     15  C   LIG    1       -2.404  -4.105  -0.707  0.00  0.00    -0.090 A 
ATOM     16  C   LIG    1       -1.176  -4.734  -0.791  0.00  0.00    +0.060 A 
ATOM     17  C   LIG    1       -1.063  -5.944  -1.450  0.00  0.00    +0.020 A 
ATOM     18  C   LIG    1       -2.177  -6.525  -2.026  0.00  0.00    +0.040 A 
ATOM     19  C   LIG    1       -3.405  -5.896  -1.943  0.00  0.00    +0.030 A 
ATOM     20  C   LIG    1       -3.521  -4.689  -1.278  0.00  0.00    -0.030 A 
ATOM     21 CL   LIG    1       -5.065  -3.904  -1.166  0.00  0.00    -0.060 Cl
ENDBRANCH  13  15
ENDBRANCH  12  13
ENDBRANCH  10  12
ENDBRANCH   3  10
BRANCH   7  22
ATOM     22  O   LIG    1        3.554   2.109  -0.019  0.00  0.00    -0.290 OA
BRANCH  22  23
ATOM     23  C   LIG    1        4.100   2.448  -1.296  0.00  0.00    +0.220 C 
BRANCH  23  24
ATOM     24  C   LIG    1        5.386   3.210  -1.105  0.00  0.00    +0.520 C 
ATOM     25  O   LIG    1        5.795   3.441   0.013  0.00  0.00    -0.510 OA
ATOM     26  N   LIG    1        6.082   3.636  -2.178  0.00  0.00    -0.850 N 
ATOM     27  H   LIG    1        6.910   4.127  -2.055  0.00  0.00    +0.410 HD
ATOM     28  H   LIG    1        5.755   3.451  -3.072  0.00  0.00    +0.400 HD
ENDBRANCH  23  24
ENDBRANCH  22  23
ENDBRANCH   7  22
TORSDOF 8
