REMARK  Name = ZINCpk00000xIbuJ.0
REMARK                            x       y       z     vdW  Elec       q    Type
REMARK                         _______ _______ _______ _____ _____    ______ ____
ROOT
ATOM      1  N   LIG    1        4.050  -0.802  -3.482  0.00  0.00    -0.720 N 
ATOM      2  H   LIG    1        4.509  -0.053  -3.893  0.00  0.00    +0.400 HD
ATOM      3  C   LIG    1        3.755  -1.895  -4.215  0.00  0.00    +0.560 C 
ATOM      4  O   LIG    1        3.180  -2.834  -3.701  0.00  0.00    -0.520 OA
ENDROOT
BRANCH   3   5
ATOM      5  C   LIG    1        4.132  -1.950  -5.645  0.00  0.00    -0.110 A 
ATOM      6  C   LIG    1        4.787  -0.870  -6.237  0.00  0.00    +0.030 A 
ATOM      7  C   LIG    1        5.142  -0.923  -7.567  0.00  0.00    +0.040 A 
ATOM      8  C   LIG    1        4.837  -2.054  -8.326  0.00  0.00    -0.110 A 
ATOM      9  C   LIG    1        4.177  -3.133  -7.736  0.00  0.00    +0.090 A 
ATOM     10  C   LIG    1        3.827  -3.082  -6.404  0.00  0.00    +0.090 A 
BRANCH   8  11
ATOM     11  C   LIG    1        5.212  -2.110  -9.757  0.00  0.00    +0.560 C 
ATOM     12  O   LIG    1        4.946  -3.095 -10.417  0.00  0.00    -0.530 OA
ATOM     13  N   LIG    1        5.849  -1.068 -10.327  0.00  0.00    -0.850 N 
ATOM     14  H   LIG    1        6.095  -1.104 -11.264  0.00  0.00    +0.410 HD
ATOM     15  H   LIG    1        6.062  -0.282  -9.800  0.00  0.00    +0.400 HD
ENDBRANCH   8  11
ENDBRANCH   3   5
BRANCH   1  16
ATOM     16  C   LIG    1        3.677  -0.747  -2.067  0.00  0.00    +0.290 C 
BRANCH  16  22
ATOM     17  C   LIG    1        3.626   0.702  -0.030  0.00  0.00    +0.260 C 
ATOM     18  O   LIG    1        4.092   1.926   0.540  0.00  0.00    -0.370 OA
ATOM     19  C   LIG    1        5.515   2.039   0.599  0.00  0.00    +0.220 C 
ATOM     20  C   LIG    1        6.088   1.982  -0.820  0.00  0.00    -0.010 C 
ATOM     21  C   LIG    1        5.653   0.673  -1.486  0.00  0.00    +0.020 C 
ATOM     22  C   LIG    1        4.124   0.591  -1.473  0.00  0.00    -0.030 C 
BRANCH  17  28
ATOM     23  C   LIG    1        1.739   3.160   0.002  0.00  0.00    +0.360 C 
ATOM     24  N   LIG    1        1.309   1.760  -0.001  0.00  0.00    -0.350 N 
ATOM     25  N   LIG    1       -0.016   1.304   0.009  0.00  0.00    -0.290 NA
ATOM     26  C   LIG    1        0.002  -0.004   0.002  0.00  0.00    +0.240 A 
ATOM     27  C   LIG    1        1.337  -0.423  -0.013  0.00  0.00    -0.110 A 
ATOM     28  C   LIG    1        2.119   0.681  -0.015  0.00  0.00    +0.090 A 
ENDBRANCH  17  28
ENDBRANCH  16  22
ENDBRANCH   1  16
TORSDOF 5
