REMARK  Name = ZINCtV00001bB3mz.0
REMARK                            x       y       z     vdW  Elec       q    Type
REMARK                         _______ _______ _______ _____ _____    ______ ____
ROOT
ATOM      1  C   LIG    1       -0.666  10.757  -0.789  0.00  0.00    -0.170 C 
ATOM      2  C   LIG    1       -0.793   9.497  -1.341  0.00  0.00    +0.290 C 
ENDROOT
BRANCH   2   3
ATOM      3  C   LIG    1       -0.453   8.351  -0.577  0.00  0.00    -0.210 A 
ATOM      4  C   LIG    1       -0.210   7.073  -1.053  0.00  0.00    +0.110 A 
ATOM      5  N   LIG    1        0.078   6.283   0.000  0.00  0.00    -0.390 N 
ATOM      6  C   LIG    1        0.027   7.001   1.163  0.00  0.00    +0.020 A 
ATOM      7  C   LIG    1        0.286   6.450   2.541  0.00  0.00    +0.130 C 
ATOM      8  C   LIG    1       -0.259   6.642  -2.496  0.00  0.00    +0.150 C 
ATOM      9  C   LIG    1       -0.287   8.277   0.881  0.00  0.00    -0.010 A 
BRANCH   5  10
ATOM     10  C   LIG    1        0.381   4.917  -0.084  0.00  0.00    +0.120 A 
ATOM     11  C   LIG    1        1.645   4.462   0.271  0.00  0.00    +0.040 A 
ATOM     12  C   LIG    1        1.940   3.116   0.187  0.00  0.00    +0.070 A 
ATOM     13  C   LIG    1        0.980   2.221  -0.249  0.00  0.00    -0.090 A 
ATOM     14  C   LIG    1       -0.277   2.672  -0.609  0.00  0.00    +0.070 A 
ATOM     15  I   LIG    1        1.433   0.179  -0.375  0.00  0.00    -0.020 I 
ATOM     16  C   LIG    1       -0.581   4.017  -0.521  0.00  0.00    +0.040 A 
ENDBRANCH   5  10
ENDBRANCH   2   3
BRANCH   1  19
ATOM     17  N   LIG    1       -1.033  13.162  -0.984  0.00  0.00    -0.730 N 
ATOM     18  H   LIG    1       -0.619  13.271  -0.113  0.00  0.00    +0.400 HD
ATOM     19  C   LIG    1       -1.157  11.932  -1.522  0.00  0.00    +0.580 C 
ATOM     20  O   LIG    1       -1.677  11.796  -2.613  0.00  0.00    -0.540 OA
BRANCH  17  21
ATOM     21  C   LIG    1       -1.523  14.334  -1.714  0.00  0.00    +0.260 C 
BRANCH  21  22
ATOM     22  C   LIG    1       -1.261  15.595  -0.888  0.00  0.00    +0.010 C 
BRANCH  22  23
ATOM     23  C   LIG    1       -1.773  16.819  -1.650  0.00  0.00    +0.020 C 
BRANCH  23  24
ATOM     24  C   LIG    1       -1.512  18.080  -0.825  0.00  0.00    +0.000 C 
BRANCH  24  25
ATOM     25  C   LIG    1       -2.023  19.304  -1.587  0.00  0.00    +0.000 C 
BRANCH  25  26
ATOM     26  C   LIG    1       -1.762  20.565  -0.761  0.00  0.00    +0.000 C 
BRANCH  26  28
ATOM     27  C   LIG    1       -2.012  23.050  -0.698  0.00  0.00    +0.000 C 
ATOM     28  C   LIG    1       -2.273  21.789  -1.524  0.00  0.00    -0.010 C 
ENDBRANCH  26  28
ENDBRANCH  25  26
ENDBRANCH  24  25
ENDBRANCH  23  24
ENDBRANCH  22  23
ENDBRANCH  21  22
ENDBRANCH  17  21
ENDBRANCH   1  19
BRANCH   1  29
ATOM     29  C   LIG    1       -0.054  10.918   0.495  0.00  0.00    +0.260 C 
ATOM     30  N   LIG    1        0.430  11.046   1.515  0.00  0.00    -0.430 NA
ENDBRANCH   1  29
TORSDOF 11
