REMARK  Name = ZINCrD000000CEhd.0
REMARK                            x       y       z     vdW  Elec       q    Type
REMARK                         _______ _______ _______ _____ _____    ______ ____
ROOT
ATOM      1  O   LIG    1        3.954  -1.155   0.622  0.00  0.00    -0.520 OA
ATOM      2  C   LIG    1        4.198   0.035   0.662  0.00  0.00    +0.570 C 
ATOM      3  N   LIG    1        5.439   0.459   0.976  0.00  0.00    -0.600 N 
ATOM      4  C   LIG    1        6.502  -0.498   1.290  0.00  0.00    +0.280 C 
ATOM      5  C   LIG    1        7.036  -0.181   2.696  0.00  0.00    +0.240 C 
ATOM      6  O   LIG    1        5.951   0.323   3.479  0.00  0.00    -0.310 OA
ATOM      7  C   LIG    1        5.721   1.661   3.520  0.00  0.00    +0.150 A 
ATOM      8  C   LIG    1        5.630   2.252   4.780  0.00  0.00    -0.010 A 
ATOM      9  C   LIG    1        5.358   3.598   4.905  0.00  0.00    +0.080 A 
ATOM     10  C   LIG    1        5.170   4.372   3.776  0.00  0.00    -0.030 A 
ATOM     11  C   LIG    1        5.274   3.795   2.523  0.00  0.00    +0.130 A 
ATOM     12  F   LIG    1        5.089   4.551   1.418  0.00  0.00    -0.130 F 
ATOM     13  C   LIG    1        5.567   2.445   2.394  0.00  0.00    -0.190 A 
ATOM     14  C   LIG    1        5.760   1.885   1.005  0.00  0.00    +0.350 C 
ENDROOT
BRANCH   2  15
ATOM     15  C   LIG    1        3.134   1.019   0.368  0.00  0.00    -0.100 A 
ATOM     16  C   LIG    1        2.849   2.036   1.281  0.00  0.00    +0.020 A 
ATOM     17  C   LIG    1        1.854   2.953   1.004  0.00  0.00    +0.050 A 
ATOM     18  C   LIG    1        1.138   2.868  -0.174  0.00  0.00    +0.020 A 
ATOM     19  C   LIG    1        1.414   1.859  -1.090  0.00  0.00    +0.160 A 
ATOM     20  C   LIG    1        2.407   0.930  -0.819  0.00  0.00    +0.030 A 
BRANCH  19  21
ATOM     21  N   LIG    1        0.687   1.777  -2.281  0.00  0.00    -0.650 N 
ATOM     22  H   LIG    1       -0.265   1.963  -2.282  0.00  0.00    +0.420 HD
BRANCH  21  23
ATOM     23  C   LIG    1        1.327   1.423  -3.464  0.00  0.00    +0.340 A 
ATOM     24  C   LIG    1        2.715   1.316  -3.502  0.00  0.00    +0.170 A 
ATOM     25  N   LIG    1        3.319   0.980  -4.626  0.00  0.00    -0.400 NA
ATOM     26  C   LIG    1        2.607   0.744  -5.715  0.00  0.00    +0.160 A 
ATOM     27  C   LIG    1        1.229   0.849  -5.682  0.00  0.00    +0.270 A 
ATOM     28  N   LIG    1        0.617   1.181  -4.558  0.00  0.00    -0.490 NA
ENDBRANCH  21  23
ENDBRANCH  19  21
ENDBRANCH   2  15
TORSDOF 3
