REMARK  Name = ZINCfA000000Jm2b.0
REMARK                            x       y       z     vdW  Elec       q    Type
REMARK                         _______ _______ _______ _____ _____    ______ ____
ROOT
ATOM      1  C   LIG    1       -2.179  -0.275   0.906  0.00  0.00    +0.170 A 
ATOM      2  C   LIG    1       -1.047  -1.077   0.889  0.00  0.00    -0.060 A 
ATOM      3  C   LIG    1       -1.166  -2.433   0.651  0.00  0.00    -0.010 A 
ATOM      4  C   LIG    1       -2.410  -2.989   0.419  0.00  0.00    -0.020 A 
ATOM      5  C   LIG    1       -3.539  -2.190   0.430  0.00  0.00    +0.090 A 
ATOM      6  C   LIG    1        0.063  -3.305   0.638  0.00  0.00    +0.110 C 
ATOM      7  C   LIG    1       -3.426  -0.835   0.672  0.00  0.00    -0.220 A 
ENDROOT
BRANCH   1   8
ATOM      8  O   LIG    1       -2.065   1.058   1.144  0.00  0.00    -0.320 OA
BRANCH   8   9
ATOM      9  C   LIG    1       -0.742   1.588   1.246  0.00  0.00    +0.120 C 
ATOM     10  C   LIG    1       -0.813   3.105   1.434  0.00  0.00    +0.090 C 
ATOM     11  C   LIG    1       -0.031   0.959   2.445  0.00  0.00    +0.030 C 
BRANCH   9  13
ATOM     12  C   LIG    1       -0.595   2.013  -1.212  0.00  0.00    +0.020 C 
ATOM     13  C   LIG    1        0.035   1.269  -0.033  0.00  0.00    +0.000 C 
ENDBRANCH   9  13
ENDBRANCH   8   9
ENDBRANCH   1   8
BRANCH   7  14
ATOM     14  C   LIG    1       -4.657   0.034   0.683  0.00  0.00    +0.340 C 
BRANCH  14  15
ATOM     15  N   LIG    1       -4.773   0.735  -0.603  0.00  0.00    -0.640 N 
ATOM     16  H   LIG    1       -4.844   0.060  -1.349  0.00  0.00    +0.430 HD
ATOM     17  H   LIG    1       -3.956   1.310  -0.747  0.00  0.00    +0.430 HD
ATOM     18  H   LIG    1       -5.597   1.317  -0.596  0.00  0.00    +0.440 HD
ENDBRANCH  14  15
ENDBRANCH   7  14
TORSDOF 5
