REMARK  Name = ZINCnE000004Tfhr.0
REMARK                            x       y       z     vdW  Elec       q    Type
REMARK                         _______ _______ _______ _____ _____    ______ ____
ROOT
ATOM      1  C   LIG    1        0.418  -3.140  -2.243  0.00  0.00    +0.090 C 
ATOM      2  C   LIG    1        1.366  -4.282  -1.869  0.00  0.00    +0.020 C 
ATOM      3  C   LIG    1        1.270  -5.391  -2.919  0.00  0.00    +0.020 C 
ATOM      4  C   LIG    1       -0.160  -5.939  -2.947  0.00  0.00    +0.260 C 
ATOM      5  N   LIG    1       -1.091  -4.823  -3.162  0.00  0.00    -0.610 N 
ATOM      6  C   LIG    1       -1.990  -4.862  -4.165  0.00  0.00    +0.550 C 
ATOM      7  O   LIG    1       -2.799  -3.962  -4.291  0.00  0.00    -0.540 OA
ATOM      8  C   LIG    1       -1.022  -3.663  -2.263  0.00  0.00    +0.290 C 
ENDROOT
BRANCH   1  13
ATOM      9  C   LIG    1        1.353   1.471  -0.673  0.00  0.00    +0.140 C 
ATOM     10  C   LIG    1        0.952   0.028  -0.501  0.00  0.00    +0.070 A 
ATOM     11  C   LIG    1        0.613  -0.513   0.710  0.00  0.00    -0.240 A 
ATOM     12  S   LIG    1        0.217  -2.210   0.444  0.00  0.00    +0.150 S 
ATOM     13  C   LIG    1        0.537  -2.034  -1.225  0.00  0.00    -0.000 A 
ATOM     14  N   LIG    1        0.890  -0.818  -1.496  0.00  0.00    -0.470 NA
BRANCH  11  15
ATOM     15  C   LIG    1        0.584   0.189   1.992  0.00  0.00    +0.550 C 
ATOM     16  O   LIG    1        0.262  -0.409   3.011  0.00  0.00    -0.680 OA
ATOM     17  O   LIG    1        0.882   1.376   2.046  0.00  0.00    -0.660 OA
ENDBRANCH  11  15
ENDBRANCH   1  13
BRANCH   6  18
ATOM     18  C   LIG    1       -1.994  -5.992  -5.106  0.00  0.00    -0.100 C 
ATOM     19  C   LIG    1       -2.963  -6.101  -6.011  0.00  0.00    -0.020 C 
ATOM     20  C   LIG    1       -4.142  -5.164  -5.969  0.00  0.00    +0.110 C 
BRANCH  19  21
ATOM     21  C   LIG    1       -2.881  -7.162  -7.078  0.00  0.00    +0.010 C 
ATOM     22  C   LIG    1       -2.877  -6.499  -8.457  0.00  0.00    +0.040 C 
ATOM     23  C   LIG    1       -4.090  -8.094  -6.964  0.00  0.00    +0.030 C 
ENDBRANCH  19  21
ENDBRANCH   6  18
TORSDOF 4
