REMARK  Name = ZINCrH000004ruzu.0
REMARK                            x       y       z     vdW  Elec       q    Type
REMARK                         _______ _______ _______ _____ _____    ______ ____
ROOT
ATOM      1  C   LIG    1       -4.736  -0.377   3.372  0.00  0.00    +0.520 C 
ATOM      2  N   LIG    1       -5.852  -1.040   3.736  0.00  0.00    -0.660 N 
ATOM      3  H   LIG    1       -6.488  -1.324   3.061  0.00  0.00    +0.420 HD
ATOM      4  O   LIG    1       -3.991   0.067   4.220  0.00  0.00    -0.510 OA
ENDROOT
BRANCH   2   5
ATOM      5  C   LIG    1       -6.093  -1.317   5.088  0.00  0.00    +0.170 A 
ATOM      6  C   LIG    1       -5.035  -1.399   5.980  0.00  0.00    +0.020 A 
ATOM      7  C   LIG    1       -5.275  -1.672   7.314  0.00  0.00    +0.030 A 
ATOM      8  C   LIG    1       -6.568  -1.866   7.763  0.00  0.00    -0.010 A 
ATOM      9  C   LIG    1       -7.630  -1.786   6.880  0.00  0.00    -0.010 A 
ATOM     10  C   LIG    1       -7.399  -1.507   5.541  0.00  0.00    +0.060 A 
BRANCH  10  11
ATOM     11  N   LIG    1       -8.471  -1.421   4.647  0.00  0.00    -0.500 N 
ATOM     12  C   LIG    1       -9.350  -0.295   4.987  0.00  0.00    +0.180 C 
ATOM     13  C   LIG    1      -10.426  -0.142   3.909  0.00  0.00    +0.020 C 
ATOM     14  C   LIG    1      -11.237  -1.438   3.818  0.00  0.00    +0.010 C 
ATOM     15  C   LIG    1      -10.291  -2.602   3.510  0.00  0.00    +0.020 C 
ATOM     16  C   LIG    1       -9.220  -2.683   4.600  0.00  0.00    +0.180 C 
ENDBRANCH  10  11
ENDBRANCH   2   5
BRANCH   1  17
ATOM     17  C   LIG    1       -4.414  -0.187   1.912  0.00  0.00    +0.100 C 
BRANCH  17  18
ATOM     18  C   LIG    1       -3.104   0.592   1.776  0.00  0.00    -0.290 C 
BRANCH  18  19
ATOM     19  S   LIG    1       -2.717   0.820   0.019  0.00  0.00    +2.500 S 
ATOM     20  O   LIG    1       -2.386  -0.423  -0.585  0.00  0.00    -0.930 OA
ATOM     21  O   LIG    1       -3.651   1.703  -0.587  0.00  0.00    -0.930 OA
BRANCH  19  26
ATOM     22  C   LIG    1        2.470   3.903  -0.003  0.00  0.00    +0.090 C 
ATOM     23  C   LIG    1        1.174   3.133   0.005  0.00  0.00    -0.030 A 
ATOM     24  C   LIG    1        1.192   1.751   0.008  0.00  0.00    -0.010 A 
ATOM     25  C   LIG    1        0.004   1.045   0.016  0.00  0.00    +0.120 A 
ATOM     26  C   LIG    1       -1.202   1.720   0.016  0.00  0.00    -0.670 A 
ATOM     27  C   LIG    1       -1.220   3.103   0.018  0.00  0.00    +0.120 A 
ATOM     28  C   LIG    1       -0.032   3.809   0.011  0.00  0.00    -0.010 A 
ENDBRANCH  19  26
ENDBRANCH  18  19
ENDBRANCH  17  18
ENDBRANCH   1  17
TORSDOF 6
