REMARK  Name = ZINCvU0000000CR0.0
REMARK                            x       y       z     vdW  Elec       q    Type
REMARK                         _______ _______ _______ _____ _____    ______ ____
ROOT
ATOM      1  C   LIG    1       -0.018   1.460   0.010  0.00  0.00    +0.250 C 
ATOM      2  C   LIG    1       -1.026   2.169  -0.610  0.00  0.00    -0.100 C 
ATOM      3  N   LIG    1       -1.135   3.524  -0.723  0.00  0.00    -0.480 NA
ATOM      4  C   LIG    1       -2.224   3.811  -1.381  0.00  0.00    +0.350 C 
ATOM      5  O   LIG    1       -2.899   2.699  -1.730  0.00  0.00    -0.290 OA
ATOM      6  C   LIG    1       -2.216   1.621  -1.285  0.00  0.00    +0.480 C 
ATOM      7  O   LIG    1       -2.519   0.450  -1.414  0.00  0.00    -0.410 OA
ENDROOT
BRANCH   1  11
ATOM      8  C   LIG    1       -0.377  -2.732   0.530  0.00  0.00    +0.140 A 
ATOM      9  C   LIG    1        0.852  -2.178   0.196  0.00  0.00    -0.050 A 
ATOM     10  C   LIG    1        0.974  -0.817   0.026  0.00  0.00    +0.070 A 
ATOM     11  C   LIG    1       -0.144   0.012   0.190  0.00  0.00    -0.110 A 
ATOM     12  C   LIG    1       -1.383  -0.549   0.532  0.00  0.00    +0.030 A 
ATOM     13  C   LIG    1       -1.495  -1.914   0.696  0.00  0.00    +0.090 A 
BRANCH  13  14
ATOM     14  O   LIG    1       -2.696  -2.463   1.022  0.00  0.00    -0.300 OA
ATOM     15  C   LIG    1       -3.799  -1.567   1.175  0.00  0.00    +0.230 C 
ENDBRANCH  13  14
BRANCH   8  16
ATOM     16  O   LIG    1       -0.490  -4.075   0.698  0.00  0.00    -0.300 OA
BRANCH  16  17
ATOM     17  C   LIG    1        0.694  -4.854   0.514  0.00  0.00    +0.180 C 
BRANCH  17  18
ATOM     18  C   LIG    1        0.373  -6.332   0.743  0.00  0.00    +0.040 C 
BRANCH  18  19
ATOM     19  C   LIG    1        1.640  -7.166   0.546  0.00  0.00    +0.020 C 
BRANCH  19  20
ATOM     20  C   LIG    1        1.319  -8.644   0.775  0.00  0.00    +0.000 C 
BRANCH  20  22
ATOM     21  C   LIG    1        2.265 -10.957   0.807  0.00  0.00    +0.000 C 
ATOM     22  C   LIG    1        2.587  -9.478   0.579  0.00  0.00    -0.010 C 
ENDBRANCH  20  22
ENDBRANCH  19  20
ENDBRANCH  18  19
ENDBRANCH  17  18
ENDBRANCH  16  17
ENDBRANCH   8  16
ENDBRANCH   1  11
BRANCH   4  23
ATOM     23  C   LIG    1       -2.666   5.183  -1.696  0.00  0.00    -0.090 A 
ATOM     24  C   LIG    1       -1.901   6.278  -1.286  0.00  0.00    +0.140 A 
ATOM     25  C   LIG    1       -2.315   7.557  -1.587  0.00  0.00    -0.080 A 
ATOM     26  C   LIG    1       -3.497   7.760  -2.288  0.00  0.00    +0.170 A 
ATOM     27  C   LIG    1       -4.263   6.674  -2.694  0.00  0.00    -0.020 A 
ATOM     28  C   LIG    1       -3.854   5.392  -2.402  0.00  0.00    +0.110 A 
BRANCH  26  29
ATOM     29  O   LIG    1       -3.903   9.022  -2.579  0.00  0.00    -0.310 OA
BRANCH  29  30
ATOM     30  C   LIG    1       -3.068  10.092  -2.132  0.00  0.00    +0.190 C 
ATOM     31  C   LIG    1       -3.684  11.429  -2.549  0.00  0.00    +0.070 C 
ENDBRANCH  29  30
ENDBRANCH  26  29
ENDBRANCH   4  23
TORSDOF 11
