REMARK  Name = ZINCvU00000006AK.0
REMARK                            x       y       z     vdW  Elec       q    Type
REMARK                         _______ _______ _______ _____ _____    ______ ____
ROOT
ATOM      1  C   LIG    1        0.059  -2.935   2.837  0.00  0.00    +0.170 A 
ATOM      2  N   LIG    1       -0.532  -2.632   1.716  0.00  0.00    -0.270 NA
ATOM      3  N   LIG    1       -0.464  -1.365   1.510  0.00  0.00    -0.290 NA
ATOM      4  C   LIG    1        0.180  -0.787   2.497  0.00  0.00    +0.150 A 
ATOM      5  N   LIG    1        0.538  -1.772   3.372  0.00  0.00    -0.450 N 
ENDROOT
BRANCH   1   6
ATOM      6  C   LIG    1        0.194  -4.314   3.431  0.00  0.00    +0.270 C 
BRANCH   6   7
ATOM      7  N   LIG    1       -1.112  -4.987   3.408  0.00  0.00    -0.510 NA
ATOM      8  C   LIG    1       -1.602  -5.140   2.032  0.00  0.00    +0.210 C 
ATOM      9  C   LIG    1       -2.089  -4.268   4.237  0.00  0.00    +0.190 C 
ENDBRANCH   6   7
BRANCH   6  11
ATOM     10  C   LIG    1        1.390  -6.500   3.256  0.00  0.00    +0.040 C 
ATOM     11  C   LIG    1        1.200  -5.125   2.612  0.00  0.00    +0.030 C 
ENDBRANCH   6  11
ENDBRANCH   1   6
BRANCH   4  12
ATOM     12  S   LIG    1        0.523   0.934   2.659  0.00  0.00    +0.070 S 
BRANCH  12  13
ATOM     13  C   LIG    1       -0.247   1.552   1.142  0.00  0.00    +0.150 C 
ATOM     14  C   LIG    1        0.498   0.994  -0.072  0.00  0.00    +0.110 C 
BRANCH  13  15
ATOM     15  C   LIG    1       -0.182   3.057   1.123  0.00  0.00    +0.170 A 
ATOM     16  N   LIG    1        0.856   3.786   1.424  0.00  0.00    -0.250 NA
ATOM     17  N   LIG    1        0.559   5.032   1.300  0.00  0.00    -0.260 NA
ATOM     18  C   LIG    1       -0.693   5.142   0.911  0.00  0.00    +0.250 A 
ATOM     19  O   LIG    1       -1.183   3.891   0.786  0.00  0.00    -0.210 OA
BRANCH  18  20
ATOM     20  C   LIG    1       -1.420   6.394   0.655  0.00  0.00    -0.160 A 
ATOM     21  C   LIG    1       -0.901   7.646   0.782  0.00  0.00    +0.110 A 
ATOM     22  C   LIG    1       -1.783   8.662   0.484  0.00  0.00    +0.020 A 
ATOM     23  C   LIG    1       -3.005   8.264   0.117  0.00  0.00    -0.010 A 
ATOM     24  S   LIG    1       -3.094   6.508   0.128  0.00  0.00    +0.180 S 
ENDBRANCH  18  20
ENDBRANCH  13  15
ENDBRANCH  12  13
ENDBRANCH   4  12
BRANCH   5  25
ATOM     25  C   LIG    1        1.280  -1.615   4.626  0.00  0.00    +0.360 C 
BRANCH  25  26
ATOM     26  C   LIG    1        0.312  -1.384   5.757  0.00  0.00    -0.120 A 
ATOM     27  C   LIG    1       -0.064  -0.097   6.093  0.00  0.00    +0.040 A 
ATOM     28  C   LIG    1       -0.956   0.115   7.128  0.00  0.00    +0.010 A 
ATOM     29  C   LIG    1       -1.465  -0.960   7.833  0.00  0.00    +0.030 A 
ATOM     30  C   LIG    1       -1.085  -2.247   7.500  0.00  0.00    +0.010 A 
ATOM     31  C   LIG    1       -0.197  -2.459   6.462  0.00  0.00    +0.020 A 
ENDBRANCH  25  26
ENDBRANCH   5  25
TORSDOF 9
