REMARK  Name = ZINCpe00000FUn1f.0
REMARK                            x       y       z     vdW  Elec       q    Type
REMARK                         _______ _______ _______ _____ _____    ______ ____
ROOT
ATOM      1  N   LIG    1       -1.191   1.867   0.018  0.00  0.00    -0.670 N 
ATOM      2  H   LIG    1       -1.205   2.834   0.092  0.00  0.00    +0.420 HD
ATOM      3  C   LIG    1       -0.015   1.208   0.014  0.00  0.00    +0.520 C 
ATOM      4  O   LIG    1        0.001  -0.004   0.003  0.00  0.00    -0.480 OA
ENDROOT
BRANCH   1  10
ATOM      5  C   LIG    1       -3.473   1.706  -0.786  0.00  0.00    -0.050 A 
ATOM      6  C   LIG    1       -4.665   0.985  -0.882  0.00  0.00    +0.180 A 
ATOM      7  C   LIG    1       -4.768  -0.256  -0.291  0.00  0.00    -0.060 A 
ATOM      8  C   LIG    1       -3.694  -0.794   0.398  0.00  0.00    +0.170 A 
ATOM      9  C   LIG    1       -2.507  -0.095   0.498  0.00  0.00    +0.060 A 
ATOM     10  C   LIG    1       -2.387   1.158  -0.086  0.00  0.00    +0.250 A 
BRANCH   7  11
ATOM     11  N   LIG    1       -6.033  -1.018  -0.395  0.00  0.00    +0.030 N 
ATOM     12  O   LIG    1       -6.127  -2.115   0.126  0.00  0.00    -0.150 OA
ATOM     13  O   LIG    1       -6.979  -0.549  -1.001  0.00  0.00    -0.150 OA
ENDBRANCH   7  11
BRANCH   5  15
ATOM     14  N   LIG    1       -3.269   4.019  -1.881  0.00  0.00    -0.370 NA
ATOM     15  C   LIG    1       -3.359   2.995  -1.397  0.00  0.00    +0.240 C 
ENDBRANCH   5  15
ENDBRANCH   1  10
BRANCH   3  16
ATOM     16  C   LIG    1        1.280   1.979   0.017  0.00  0.00    +0.290 C 
BRANCH  16  17
ATOM     17  O   LIG    1        2.396   1.050   0.006  0.00  0.00    -0.320 OA
BRANCH  17  18
ATOM     18  C   LIG    1        3.634   1.581   0.007  0.00  0.00    +0.520 C 
ATOM     19  O   LIG    1        3.777   2.787   0.018  0.00  0.00    -0.480 OA
BRANCH  18  20
ATOM     20  C   LIG    1        4.819   0.696  -0.004  0.00  0.00    -0.090 C 
ATOM     21  C   LIG    1        4.676  -0.696  -0.010  0.00  0.00    +0.120 C 
ATOM     22  C   LIG    1        5.808  -1.485  -0.026  0.00  0.00    +0.260 C 
ATOM     23  N   LIG    1        7.012  -0.943  -0.025  0.00  0.00    -0.100 NA
ATOM     24  C   LIG    1        7.191   0.365  -0.014  0.00  0.00    +0.270 C 
ATOM     25  O   LIG    1        8.146  -1.790  -0.036  0.00  0.00    -0.520 OA
ATOM     26  C   LIG    1        6.114   1.228  -0.003  0.00  0.00    +0.130 C 
ENDBRANCH  18  20
ENDBRANCH  17  18
ENDBRANCH  16  17
ENDBRANCH   3  16
TORSDOF 7
