REMARK  Name = ZINCkj000005f7za.1
REMARK                            x       y       z     vdW  Elec       q    Type
REMARK                         _______ _______ _______ _____ _____    ______ ____
ROOT
ATOM      1  C   LIG    1       -1.077   1.618  -0.330  0.00  0.00    +0.510 C 
ATOM      2  N   LIG    1       -0.183   0.995  -1.122  0.00  0.00    -0.700 N 
ATOM      3  H   LIG    1       -0.369   0.104  -1.458  0.00  0.00    +0.410 HD
ATOM      4  O   LIG    1       -0.844   2.732   0.090  0.00  0.00    -0.520 OA
ENDROOT
BRANCH   1  10
ATOM      5  N   LIG    1       -3.412   1.937   0.258  0.00  0.00    -0.370 N 
ATOM      6  C   LIG    1       -4.691   1.274   0.540  0.00  0.00    +0.250 C 
ATOM      7  C   LIG    1       -4.577   0.467   1.836  0.00  0.00    +0.060 C 
ATOM      8  C   LIG    1       -3.477  -0.587   1.679  0.00  0.00    +0.060 C 
ATOM      9  C   LIG    1       -2.164   0.110   1.312  0.00  0.00    +0.080 C 
ATOM     10  C   LIG    1       -2.368   0.930   0.036  0.00  0.00    +0.170 C 
ATOM     11  H   LIG    1       -3.156   2.518   1.042  0.00  0.00    +0.430 HD
BRANCH   5  13
ATOM     12  C   LIG    1       -4.035   1.910  -2.110  0.00  0.00    +0.090 C 
ATOM     13  C   LIG    1       -3.550   2.772  -0.943  0.00  0.00    +0.150 C 
ATOM     14  C   LIG    1       -4.563   3.886  -0.676  0.00  0.00    +0.090 C 
ENDBRANCH   5  13
ENDBRANCH   1  10
BRANCH   2  15
ATOM     15  C   LIG    1        1.069   1.666  -1.482  0.00  0.00    +0.290 C 
BRANCH  15  16
ATOM     16  C   LIG    1        1.895   0.752  -2.388  0.00  0.00    +0.160 C 
BRANCH  16  17
ATOM     17  C   LIG    1        3.183   1.442  -2.759  0.00  0.00    +0.190 A 
ATOM     18  N   LIG    1        4.303   1.371  -2.093  0.00  0.00    -0.480 NA
ATOM     19  C   LIG    1        5.234   2.110  -2.714  0.00  0.00    +0.160 A 
ATOM     20  C   LIG    1        4.670   2.660  -3.806  0.00  0.00    +0.130 A 
ATOM     21  N   LIG    1        3.370   2.232  -3.838  0.00  0.00    -0.460 N 
ATOM     22  C   LIG    1        2.368   2.571  -4.851  0.00  0.00    +0.330 C 
ENDBRANCH  16  17
ENDBRANCH  15  16
ENDBRANCH   2  15
TORSDOF 5
