REMARK  Name = ZINCkj000005f7za.0
REMARK                            x       y       z     vdW  Elec       q    Type
REMARK                         _______ _______ _______ _____ _____    ______ ____
ROOT
ATOM      1  C   LIG    1       -0.781   2.981   1.191  0.00  0.00    +0.520 C 
ATOM      2  N   LIG    1       -1.460   3.635   2.154  0.00  0.00    -0.700 N 
ATOM      3  H   LIG    1       -1.894   3.136   2.865  0.00  0.00    +0.410 HD
ATOM      4  O   LIG    1       -0.239   3.604   0.302  0.00  0.00    -0.520 OA
ENDROOT
BRANCH   1  10
ATOM      5  N   LIG    1        0.042   1.008   0.038  0.00  0.00    -0.360 N 
ATOM      6  C   LIG    1       -0.612   1.496  -1.183  0.00  0.00    +0.250 C 
ATOM      7  C   LIG    1       -2.021   0.906  -1.282  0.00  0.00    +0.060 C 
ATOM      8  C   LIG    1       -2.835   1.335  -0.058  0.00  0.00    +0.040 C 
ATOM      9  C   LIG    1       -2.106   0.886   1.212  0.00  0.00    +0.070 C 
ATOM     10  C   LIG    1       -0.696   1.477   1.217  0.00  0.00    +0.160 C 
ATOM     11  H   LIG    1        0.057  -0.001   0.030  0.00  0.00    +0.420 HD
BRANCH   5  13
ATOM     12  C   LIG    1        2.103   1.006   1.360  0.00  0.00    +0.080 C 
ATOM     13  C   LIG    1        1.419   1.516   0.090  0.00  0.00    +0.160 C 
ATOM     14  C   LIG    1        2.190   1.026  -1.137  0.00  0.00    +0.090 C 
ENDBRANCH   5  13
ENDBRANCH   1  10
BRANCH   2  15
ATOM     15  C   LIG    1       -1.544   5.097   2.129  0.00  0.00    +0.290 C 
BRANCH  15  16
ATOM     16  C   LIG    1       -2.365   5.582   3.325  0.00  0.00    +0.160 C 
BRANCH  16  17
ATOM     17  C   LIG    1       -2.450   7.087   3.299  0.00  0.00    +0.190 A 
ATOM     18  N   LIG    1       -1.613   7.906   3.872  0.00  0.00    -0.480 NA
ATOM     19  C   LIG    1       -1.999   9.169   3.638  0.00  0.00    +0.160 A 
ATOM     20  C   LIG    1       -3.123   9.130   2.898  0.00  0.00    +0.130 A 
ATOM     21  N   LIG    1       -3.410   7.809   2.682  0.00  0.00    -0.460 N 
ATOM     22  C   LIG    1       -4.546   7.279   1.924  0.00  0.00    +0.320 C 
ENDBRANCH  16  17
ENDBRANCH  15  16
ENDBRANCH   2  15
TORSDOF 5
