REMARK  Name = ZINCvU0000000DZc.0
REMARK                            x       y       z     vdW  Elec       q    Type
REMARK                         _______ _______ _______ _____ _____    ______ ____
ROOT
ATOM      1  C   LIG    1       -0.593   2.901   5.866  0.00  0.00    +0.280 A 
ATOM      2  N   LIG    1        0.004   3.347   6.926  0.00  0.00    -0.470 NA
ATOM      3  C   LIG    1       -0.764   3.823   7.888  0.00  0.00    +0.090 A 
ATOM      4  C   LIG    1       -2.072   3.776   7.628  0.00  0.00    -0.070 A 
ATOM      5  S   LIG    1       -2.286   3.072   6.027  0.00  0.00    +0.150 S 
ENDROOT
BRANCH   1   8
ATOM      6  C   LIG    1        2.098   1.700   3.535  0.00  0.00    +0.110 C 
ATOM      7  C   LIG    1        1.387   2.187   4.772  0.00  0.00    +0.510 C 
ATOM      8  N   LIG    1        0.052   2.365   4.755  0.00  0.00    -0.480 N 
ATOM      9  O   LIG    1        2.017   2.417   5.782  0.00  0.00    -0.470 OA
BRANCH   8  10
ATOM     10  C   LIG    1       -0.688   2.012   3.619  0.00  0.00    +0.100 A 
ATOM     11  C   LIG    1       -0.801   2.900   2.558  0.00  0.00    +0.030 A 
ATOM     12  C   LIG    1       -1.530   2.548   1.440  0.00  0.00    +0.030 A 
ATOM     13  C   LIG    1       -2.143   1.311   1.373  0.00  0.00    -0.060 A 
ATOM     14  C   LIG    1       -2.037   0.426   2.430  0.00  0.00    -0.070 A 
ATOM     15  C   LIG    1       -2.712  -0.920   2.357  0.00  0.00    +0.110 C 
ATOM     16  C   LIG    1       -2.933   0.927   0.148  0.00  0.00    +0.110 C 
ATOM     17  C   LIG    1       -1.309   0.771   3.552  0.00  0.00    +0.030 A 
ENDBRANCH   8  10
ENDBRANCH   1   8
BRANCH   3  18
ATOM     18  C   LIG    1       -0.209   4.375   9.176  0.00  0.00    +0.350 C 
BRANCH  18  19
ATOM     19  O   LIG    1       -1.284   4.811  10.010  0.00  0.00    -0.290 OA
BRANCH  19  20
ATOM     20  C   LIG    1       -0.955   5.337  11.214  0.00  0.00    +0.420 A 
ATOM     21  C   LIG    1       -1.959   5.793  12.102  0.00  0.00    -0.170 A 
ATOM     22  C   LIG    1       -1.557   6.323  13.324  0.00  0.00    +0.110 A 
ATOM     23  S   LIG    1       -2.966   6.813  14.246  0.00  0.00    +0.210 S 
ATOM     24  C   LIG    1       -4.072   6.299  12.972  0.00  0.00    -0.200 A 
ATOM     25  C   LIG    1       -5.577   6.266  12.720  0.00  0.00    +0.130 C 
ATOM     26  C   LIG    1       -5.717   6.081  11.196  0.00  0.00    +0.050 C 
ATOM     27  C   LIG    1       -4.399   5.361  10.850  0.00  0.00    +0.110 C 
ATOM     28  N   LIG    1       -0.248   6.382  13.609  0.00  0.00    -0.510 NA
ATOM     29  C   LIG    1        0.647   5.947  12.753  0.00  0.00    +0.560 A 
ATOM     30  C   LIG    1       -3.416   5.797  11.936  0.00  0.00    -0.080 A 
ATOM     31  N   LIG    1        0.313   5.431  11.584  0.00  0.00    -0.580 NA
ENDBRANCH  19  20
ENDBRANCH  18  19
ENDBRANCH   3  18
TORSDOF 5
