REMARK  Name = ZINCrH000004t4B9.0
REMARK                            x       y       z     vdW  Elec       q    Type
REMARK                         _______ _______ _______ _____ _____    ______ ____
ROOT
ATOM      1  C   LIG    1        1.484   3.922   0.620  0.00  0.00    +0.320 C 
ATOM      2  C   LIG    1        2.610   4.516  -0.261  0.00  0.00    +0.010 C 
ATOM      3  C   LIG    1        3.642   5.139   0.582  0.00  0.00    +0.000 C 
ATOM      4  C   LIG    1        3.148   6.321   1.411  0.00  0.00    +0.010 C 
ATOM      5  C   LIG    1        2.540   5.812   2.695  0.00  0.00    +0.010 C 
ATOM      6  C   LIG    1        1.027   5.591   2.512  0.00  0.00    +0.250 C 
ATOM      7  N   LIG    1        0.706   4.993   1.201  0.00  0.00    -0.590 N 
ATOM      8  C   LIG    1       -0.355   5.466   0.518  0.00  0.00    +0.540 C 
ATOM      9  O   LIG    1       -0.727   4.902  -0.492  0.00  0.00    -0.490 OA
ENDROOT
BRANCH   1  15
ATOM     10  C   LIG    1        1.331   3.905  -2.477  0.00  0.00    +0.310 C 
ATOM     11  N   LIG    1        0.531   3.057  -1.590  0.00  0.00    -0.420 N 
ATOM     12  C   LIG    1       -0.391   2.136  -1.990  0.00  0.00    +0.140 A 
ATOM     13  C   LIG    1       -0.918   1.561  -0.890  0.00  0.00    -0.070 A 
ATOM     14  C   LIG    1       -0.294   2.143   0.231  0.00  0.00    -0.080 A 
ATOM     15  C   LIG    1        0.588   3.055  -0.227  0.00  0.00    +0.040 A 
ENDBRANCH   1  15
BRANCH   8  16
ATOM     16  C   LIG    1       -1.066   6.670   0.997  0.00  0.00    -0.060 A 
ATOM     17  C   LIG    1       -0.358   7.707   1.607  0.00  0.00    +0.030 A 
ATOM     18  C   LIG    1       -1.027   8.829   2.047  0.00  0.00    +0.130 A 
ATOM     19  C   LIG    1       -2.399   8.925   1.895  0.00  0.00    -0.640 A 
ATOM     20  C   LIG    1       -3.108   7.899   1.296  0.00  0.00    +0.140 A 
ATOM     21  C   LIG    1       -2.450   6.773   0.847  0.00  0.00    +0.060 A 
BRANCH  19  22
ATOM     22  S   LIG    1       -3.247  10.360   2.467  0.00  0.00    +2.470 S 
ATOM     23  O   LIG    1       -4.409  10.428   1.653  0.00  0.00    -0.880 OA
ATOM     24  O   LIG    1       -2.264  11.386   2.428  0.00  0.00    -0.880 OA
BRANCH  22  25
ATOM     25  C   LIG    1       -3.692   9.970   4.181  0.00  0.00    -0.050 C 
ATOM     26  F   LIG    1       -2.530   9.721   4.920  0.00  0.00    -0.160 F 
ATOM     27  F   LIG    1       -4.510   8.836   4.204  0.00  0.00    -0.160 F 
ENDBRANCH  22  25
ENDBRANCH  19  22
ENDBRANCH   8  16
TORSDOF 4
