REMARK  Name = ZINCrH00000ajZP4.0
REMARK                            x       y       z     vdW  Elec       q    Type
REMARK                         _______ _______ _______ _____ _____    ______ ____
ROOT
ATOM      1  N   LIG    1        4.629   4.902   0.562  0.00  0.00    -0.350 N 
ATOM      2  N   LIG    1        5.969   5.324   0.561  0.00  0.00    -0.290 NA
ATOM      3  C   LIG    1        6.691   4.303   0.179  0.00  0.00    +0.230 A 
ATOM      4  N   LIG    1        5.893   3.265  -0.055  0.00  0.00    -0.510 NA
ATOM      5  C   LIG    1        4.641   3.606   0.174  0.00  0.00    +0.350 A 
ENDROOT
BRANCH   5   6
ATOM      6  C   LIG    1        3.458   2.729   0.028  0.00  0.00    +0.140 A 
ATOM      7  N   LIG    1        2.207   3.071   0.257  0.00  0.00    -0.250 NA
ATOM      8  N   LIG    1        1.393   1.954  -0.001  0.00  0.00    -0.380 N 
ATOM      9  C   LIG    1       -0.019   1.539   0.011  0.00  0.00    +0.320 C 
ATOM     10  C   LIG    1        0.002  -0.004   0.002  0.00  0.00    +0.210 C 
ATOM     11  C   LIG    1        1.362  -0.297  -0.671  0.00  0.00    +0.140 C 
ATOM     12  F   LIG    1       -0.032  -0.512   1.305  0.00  0.00    -0.190 F 
ATOM     13  C   LIG    1        2.192   0.937  -0.385  0.00  0.00    +0.060 A 
ATOM     14  C   LIG    1        3.470   1.381  -0.382  0.00  0.00    -0.040 A 
ENDBRANCH   5   6
BRANCH   1  16
ATOM     15  C   LIG    1        3.588   6.195   2.358  0.00  0.00    +0.050 C 
ATOM     16  C   LIG    1        3.455   5.703   0.915  0.00  0.00    +0.310 C 
BRANCH  16  17
ATOM     17  C   LIG    1        3.357   6.906  -0.026  0.00  0.00    -0.040 C 
ATOM     18  C   LIG    1        2.018   7.147  -0.726  0.00  0.00    +0.040 C 
ATOM     19  C   LIG    1        3.215   6.621  -1.523  0.00  0.00    +0.020 C 
ENDBRANCH  16  17
ENDBRANCH   1  16
BRANCH   3  20
ATOM     20  C   LIG    1        8.190   4.302   0.028  0.00  0.00    +0.220 C 
BRANCH  20  21
ATOM     21  C   LIG    1        8.554   4.712  -1.376  0.00  0.00    -0.050 A 
ATOM     22  C   LIG    1        8.756   6.046  -1.677  0.00  0.00    +0.010 A 
ATOM     23  C   LIG    1        9.090   6.423  -2.964  0.00  0.00    +0.040 A 
ATOM     24  C   LIG    1        9.222   5.466  -3.952  0.00  0.00    -0.020 A 
ATOM     25  C   LIG    1        9.020   4.129  -3.652  0.00  0.00    +0.100 A 
ATOM     26  F   LIG    1        9.150   3.193  -4.618  0.00  0.00    -0.140 F 
ATOM     27  C   LIG    1        8.691   3.752  -2.362  0.00  0.00    +0.000 A 
ENDBRANCH  20  21
ENDBRANCH   3  20
TORSDOF 5
