REMARK  Name = ZINCrH000004v3iI.0
REMARK                            x       y       z     vdW  Elec       q    Type
REMARK                         _______ _______ _______ _____ _____    ______ ____
ROOT
ATOM      1  O   LIG    1        7.748   4.318  -1.806  0.00  0.00    -0.560 OA
ATOM      2  C   LIG    1        7.555   3.251  -1.257  0.00  0.00    +0.710 C 
ATOM      3  N   LIG    1        6.307   2.897  -0.891  0.00  0.00    -0.740 N 
ATOM      4  H   LIG    1        6.154   2.046  -0.453  0.00  0.00    +0.400 HD
ATOM      5  N   LIG    1        8.589   2.422  -1.014  0.00  0.00    -0.690 N 
ATOM      6  H   LIG    1        8.449   1.606  -0.508  0.00  0.00    +0.410 HD
ENDROOT
BRANCH   3   7
ATOM      7  C   LIG    1        5.183   3.799  -1.155  0.00  0.00    +0.260 C 
ATOM      8  C   LIG    1        5.061   4.813  -0.014  0.00  0.00    -0.000 C 
ATOM      9  C   LIG    1        4.750   4.070   1.288  0.00  0.00    +0.210 C 
ATOM     10  O   LIG    1        3.549   3.312   1.127  0.00  0.00    -0.370 OA
ATOM     11  C   LIG    1        3.620   2.316   0.105  0.00  0.00    +0.200 C 
ATOM     12  C   LIG    1        3.886   2.988  -1.244  0.00  0.00    +0.030 C 
BRANCH  11  13
ATOM     13  C   LIG    1        2.316   1.564   0.044  0.00  0.00    -0.140 A 
ATOM     14  C   LIG    1        2.304   0.192  -0.154  0.00  0.00    +0.060 A 
ATOM     15  C   LIG    1        1.080  -0.458  -0.204  0.00  0.00    -0.030 A 
ATOM     16  C   LIG    1       -0.080   0.279  -0.056  0.00  0.00    +0.260 A 
ATOM     17  N   LIG    1       -0.031   1.584   0.131  0.00  0.00    -0.490 NA
ATOM     18  C   LIG    1        1.115   2.234   0.184  0.00  0.00    +0.290 A 
ENDBRANCH  11  13
ENDBRANCH   3   7
BRANCH   5  19
ATOM     19  C   LIG    1        9.864   2.737  -1.492  0.00  0.00    +0.190 A 
ATOM     20  C   LIG    1       10.006   3.408  -2.701  0.00  0.00    +0.020 A 
ATOM     21  C   LIG    1       11.261   3.725  -3.172  0.00  0.00    +0.070 A 
ATOM     22  C   LIG    1       12.393   3.361  -2.438  0.00  0.00    -0.040 A 
ATOM     23  C   LIG    1       12.247   2.682  -1.227  0.00  0.00    +0.090 A 
ATOM     24  C   LIG    1       10.989   2.373  -0.759  0.00  0.00    -0.010 A 
BRANCH  22  25
ATOM     25  C   LIG    1       13.741   3.694  -2.943  0.00  0.00    +0.240 A 
ATOM     26  N   LIG    1       14.875   3.412  -2.345  0.00  0.00    -0.480 NA
ATOM     27  C   LIG    1       15.884   3.867  -3.103  0.00  0.00    +0.150 A 
ATOM     28  C   LIG    1       15.352   4.451  -4.191  0.00  0.00    +0.150 A 
ATOM     29  O   LIG    1       14.012   4.342  -4.089  0.00  0.00    -0.200 OA
ENDBRANCH  22  25
ENDBRANCH   5  19
TORSDOF 4
