REMARK  Name = ZINCpk00000y6uWG.0
REMARK                            x       y       z     vdW  Elec       q    Type
REMARK                         _______ _______ _______ _____ _____    ______ ____
ROOT
ATOM      1  C   LIG    1       -0.729   1.579   1.267  0.00  0.00    +0.100 C 
ATOM      2  C   LIG    1       -2.158   0.981   1.355  0.00  0.00    +0.060 C 
ATOM      3  C   LIG    1       -2.412   1.008   2.885  0.00  0.00    +0.210 C 
ATOM      4  N   LIG    1       -1.104   0.683   3.494  0.00  0.00    -0.460 N 
ATOM      5  C   LIG    1       -0.040   1.034   2.536  0.00  0.00    +0.270 C 
ENDROOT
BRANCH   4   6
ATOM      6  C   LIG    1       -0.933   1.358   4.697  0.00  0.00    +0.300 A 
ATOM      7  C   LIG    1       -1.839   1.169   5.737  0.00  0.00    +0.170 A 
ATOM      8  N   LIG    1       -1.674   1.806   6.881  0.00  0.00    -0.380 NA
ATOM      9  C   LIG    1       -0.655   2.632   7.040  0.00  0.00    +0.190 A 
ATOM     10  C   LIG    1        0.250   2.829   6.004  0.00  0.00    +0.310 A 
ATOM     11  N   LIG    1        0.091   2.187   4.854  0.00  0.00    -0.530 NA
BRANCH  10  12
ATOM     12  O   LIG    1        1.295   3.678   6.168  0.00  0.00    -0.290 OA
BRANCH  12  13
ATOM     13  C   LIG    1        2.186   3.833   5.061  0.00  0.00    +0.180 C 
ATOM     14  C   LIG    1        3.310   2.800   5.162  0.00  0.00    +0.010 C 
ATOM     15  C   LIG    1        4.263   2.965   3.977  0.00  0.00    +0.020 C 
ATOM     16  C   LIG    1        4.861   4.373   3.997  0.00  0.00    +0.020 C 
ATOM     17  C   LIG    1        3.737   5.406   3.896  0.00  0.00    +0.020 C 
ATOM     18  C   LIG    1        2.784   5.241   5.081  0.00  0.00    +0.020 C 
ENDBRANCH  12  13
ENDBRANCH  10  12
ENDBRANCH   4   6
BRANCH   1  19
ATOM     19  O   LIG    1       -0.777   3.007   1.292  0.00  0.00    -0.540 OA
ATOM     20  H   LIG    1       -1.233   3.399   0.534  0.00  0.00    +0.380 HD
ENDBRANCH   1  19
BRANCH   1  21
ATOM     21  C   LIG    1       -0.013   1.086   0.008  0.00  0.00    +0.330 C 
BRANCH  21  22
ATOM     22  N   LIG    1       -0.721   1.571  -1.179  0.00  0.00    -0.300 N 
ATOM     23  C   LIG    1       -0.178   2.290  -2.188  0.00  0.00    +0.140 A 
ATOM     24  C   LIG    1       -1.179   2.521  -3.069  0.00  0.00    +0.140 A 
ATOM     25  N   LIG    1       -2.274   1.946  -2.558  0.00  0.00    -0.270 NA
ATOM     26  N   LIG    1       -1.969   1.392  -1.438  0.00  0.00    -0.080 NA
ENDBRANCH  21  22
ENDBRANCH   1  21
TORSDOF 6
