REMARK  Name = ZINCnE000001QOT5.1
REMARK                            x       y       z     vdW  Elec       q    Type
REMARK                         _______ _______ _______ _____ _____    ______ ____
ROOT
ATOM      1  N   LIG    1       -1.181   1.793   0.423  0.00  0.00    -0.700 NA
ATOM      2  C   LIG    1       -0.042   1.096   0.606  0.00  0.00    +0.650 C 
ATOM      3  N   LIG    1        1.122   1.747   0.802  0.00  0.00    -0.740 N 
ATOM      4  H   LIG    1        1.139   2.717   0.817  0.00  0.00    +0.390 HD
ATOM      5  O   LIG    1       -0.063  -0.119   0.588  0.00  0.00    -0.620 OA
ENDROOT
BRANCH   1  10
ATOM      6  C   LIG    1       -4.019  -2.118  -0.098  0.00  0.00    +0.120 C 
ATOM      7  C   LIG    1       -3.719  -0.642  -0.031  0.00  0.00    +0.150 A 
ATOM      8  C   LIG    1       -4.669   0.304  -0.179  0.00  0.00    -0.330 A 
ATOM      9  S   LIG    1       -3.892   1.879  -0.030  0.00  0.00    +0.030 S 
ATOM     10  C   LIG    1       -2.379   1.122   0.214  0.00  0.00    +0.360 A 
ATOM     11  N   LIG    1       -2.509  -0.168   0.172  0.00  0.00    -0.560 NA
BRANCH   8  12
ATOM     12  C   LIG    1       -6.106   0.064  -0.423  0.00  0.00    +0.050 A 
ATOM     13  C   LIG    1       -6.509  -0.840  -1.408  0.00  0.00    +0.000 A 
ATOM     14  C   LIG    1       -7.852  -1.063  -1.627  0.00  0.00    +0.000 A 
ATOM     15  C   LIG    1       -8.800  -0.387  -0.880  0.00  0.00    -0.030 A 
ATOM     16  C   LIG    1       -8.408   0.513   0.095  0.00  0.00    +0.000 A 
ATOM     17  C   LIG    1       -7.068   0.743   0.328  0.00  0.00    +0.000 A 
ENDBRANCH   8  12
ENDBRANCH   1  10
BRANCH   3  18
ATOM     18  C   LIG    1        2.361   0.990   0.995  0.00  0.00    +0.250 C 
BRANCH  18  19
ATOM     19  C   LIG    1        3.526   1.961   1.196  0.00  0.00    -0.020 C 
ATOM     20  C   LIG    1        3.411   2.669   2.569  0.00  0.00    +0.020 C 
ATOM     21  C   LIG    1        4.873   3.090   2.860  0.00  0.00    -0.020 C 
ATOM     22  C   LIG    1        5.718   1.911   2.334  0.00  0.00    +0.160 C 
ATOM     23  C   LIG    1        4.861   1.193   1.276  0.00  0.00    +0.050 C 
BRANCH  22  24
ATOM     24  O   LIG    1        6.923   2.398   1.740  0.00  0.00    -0.570 OA
ATOM     25  H   LIG    1        7.506   2.861   2.357  0.00  0.00    +0.370 HD
ENDBRANCH  22  24
ENDBRANCH  18  19
ENDBRANCH   3  18
TORSDOF 5
