REMARK  Name = ZINCpe00000bcSwt.0
REMARK                            x       y       z     vdW  Elec       q    Type
REMARK                         _______ _______ _______ _____ _____    ______ ____
ROOT
ATOM      1  C   LIG    1        0.062  -0.512   5.570  0.00  0.00    +0.500 C 
ATOM      2  N   LIG    1        0.044  -0.106   4.285  0.00  0.00    -0.610 N 
ATOM      3  C   LIG    1       -1.230   0.103   3.584  0.00  0.00    +0.280 C 
ATOM      4  C   LIG    1       -1.231  -0.745   2.306  0.00  0.00    +0.300 C 
ATOM      5  N   LIG    1        0.024  -0.503   1.581  0.00  0.00    -1.000 NA
ATOM      6  C   LIG    1        1.299  -0.717   2.280  0.00  0.00    +0.300 C 
ATOM      7  C   LIG    1        1.299   0.137   3.560  0.00  0.00    +0.270 C 
ATOM      8  O   LIG    1       -0.980  -0.710   6.158  0.00  0.00    -0.520 OA
ENDROOT
BRANCH   5   9
ATOM      9  S   LIG    1        0.002  -0.004   0.002  0.00  0.00    +2.690 S 
ATOM     10  O   LIG    1        1.252  -0.385  -0.556  0.00  0.00    -0.950 OA
ATOM     11  O   LIG    1       -1.247  -0.419  -0.533  0.00  0.00    -0.940 OA
BRANCH   9  12
ATOM     12  C   LIG    1       -0.022   1.758   0.012  0.00  0.00    -0.670 A 
ATOM     13  C   LIG    1        1.166   2.465   0.004  0.00  0.00    +0.130 A 
ATOM     14  C   LIG    1        1.148   3.847   0.012  0.00  0.00    +0.020 A 
ATOM     15  C   LIG    1       -0.058   4.523   0.026  0.00  0.00    +0.090 A 
ATOM     16  C   LIG    1       -1.247   3.816   0.033  0.00  0.00    -0.060 A 
ATOM     17 CL   LIG    1       -2.762   4.663   0.051  0.00  0.00    -0.050 Cl
ATOM     18  C   LIG    1       -1.228   2.432   0.021  0.00  0.00    +0.140 A 
ENDBRANCH   9  12
ENDBRANCH   5   9
BRANCH   1  19
ATOM     19  C   LIG    1        1.377  -0.722   6.276  0.00  0.00    +0.330 C 
BRANCH  19  21
ATOM     20  C   LIG    1        1.026  -2.475   7.932  0.00  0.00    +0.550 C 
ATOM     21  N   LIG    1        1.128  -1.160   7.652  0.00  0.00    -0.600 N 
ATOM     22  C   LIG    1        0.991  -0.170   8.723  0.00  0.00    +0.290 C 
ATOM     23  O   LIG    1        1.139  -3.297   7.043  0.00  0.00    -0.540 OA
BRANCH  20  25
ATOM     24  C   LIG    1        0.674  -4.212   9.590  0.00  0.00    +0.140 C 
ATOM     25  C   LIG    1        0.776  -2.915   9.313  0.00  0.00    -0.090 C 
ENDBRANCH  20  25
ENDBRANCH  19  21
ENDBRANCH   1  19
TORSDOF 5
