REMARK  Name = ZINCrg00000fRmcG.0
REMARK                            x       y       z     vdW  Elec       q    Type
REMARK                         _______ _______ _______ _____ _____    ______ ____
ROOT
ATOM      1  C   LIG    1        7.239   4.197  -0.047  0.00  0.00    +0.270 C 
ENDROOT
BRANCH   1   8
ATOM      2  C   LIG    1       11.114   8.840  -1.254  0.00  0.00    +0.650 C 
ATOM      3  N   LIG    1       10.046   8.018  -1.248  0.00  0.00    -0.600 N 
ATOM      4  C   LIG    1        8.682   8.565  -1.232  0.00  0.00    +0.300 C 
ATOM      5  C   LIG    1        7.931   7.971  -0.034  0.00  0.00    +0.290 C 
ATOM      6  N   LIG    1        8.109   6.513  -0.043  0.00  0.00    -0.610 N 
ATOM      7  C   LIG    1        9.473   5.966  -0.054  0.00  0.00    +0.270 C 
ATOM      8  C   LIG    1        7.041   5.691  -0.037  0.00  0.00    +0.520 C 
ATOM      9  O   LIG    1        5.920   6.154  -0.023  0.00  0.00    -0.500 OA
ATOM     10  C   LIG    1       10.225   6.560  -1.258  0.00  0.00    +0.290 C 
ATOM     11  O   LIG    1       10.955  10.045  -1.245  0.00  0.00    -0.570 OA
BRANCH   2  12
ATOM     12  O   LIG    1       12.359   8.326  -1.269  0.00  0.00    -0.370 OA
BRANCH  12  14
ATOM     13  C   LIG    1       14.787   8.507  -1.291  0.00  0.00    +0.070 C 
ATOM     14  C   LIG    1       13.462   9.271  -1.274  0.00  0.00    +0.220 C 
ENDBRANCH  12  14
ENDBRANCH   2  12
ENDBRANCH   1   8
BRANCH   1  15
ATOM     15  O   LIG    1        5.946   3.537  -0.037  0.00  0.00    -0.310 OA
BRANCH  15  16
ATOM     16  C   LIG    1        5.947   2.190  -0.045  0.00  0.00    +0.530 C 
ATOM     17  O   LIG    1        6.999   1.584  -0.059  0.00  0.00    -0.490 OA
BRANCH  16  18
ATOM     18  C   LIG    1        4.665   1.449  -0.035  0.00  0.00    +0.060 A 
ATOM     19  N   LIG    1        3.526   2.121  -0.021  0.00  0.00    -0.360 NA
ATOM     20  C   LIG    1        2.373   1.455  -0.013  0.00  0.00    +0.070 A 
ATOM     21  C   LIG    1        1.131   2.118   0.003  0.00  0.00    +0.090 A 
ATOM     22  C   LIG    1       -0.017   1.388   0.010  0.00  0.00    +0.040 A 
ATOM     23  C   LIG    1        0.002  -0.004   0.002  0.00  0.00    +0.070 A 
ATOM     24  C   LIG    1        1.170  -0.703  -0.013  0.00  0.00    +0.060 A 
ATOM     25  C   LIG    1        2.391  -0.010  -0.021  0.00  0.00    +0.100 A 
ATOM     26  N   LIG    1        3.565  -0.649  -0.036  0.00  0.00    -0.420 NA
ATOM     27  C   LIG    1        4.680   0.045  -0.043  0.00  0.00    +0.320 A 
ENDBRANCH  16  18
ENDBRANCH  15  16
ENDBRANCH   1  15
TORSDOF 6
