REMARK  Name = ZINCrD00000hQ4kr.0
REMARK                            x       y       z     vdW  Elec       q    Type
REMARK                         _______ _______ _______ _____ _____    ______ ____
ROOT
ATOM      1  C   LIG    1        4.669  -1.893  -0.351  0.00  0.00    +0.210 C 
ATOM      2  C   LIG    1        4.066  -2.861   0.669  0.00  0.00    +0.040 C 
ATOM      3  C   LIG    1        4.658  -4.256   0.454  0.00  0.00    +0.010 C 
ATOM      4  C   LIG    1        6.182  -4.180   0.581  0.00  0.00    +0.020 C 
ATOM      5  C   LIG    1        6.724  -3.173  -0.437  0.00  0.00    +0.180 C 
ATOM      6  N   LIG    1        6.128  -1.855  -0.188  0.00  0.00    -0.520 NA
ENDROOT
BRANCH   1  10
ATOM      7  C   LIG    1        2.831   1.295  -0.318  0.00  0.00    -0.050 A 
ATOM      8  C   LIG    1        3.772   1.541   0.659  0.00  0.00    +0.000 A 
ATOM      9  C   LIG    1        4.564   0.393   0.764  0.00  0.00    -0.030 A 
ATOM     10  C   LIG    1        4.103  -0.514  -0.130  0.00  0.00    +0.040 A 
ATOM     11  N   LIG    1        3.046   0.020  -0.790  0.00  0.00    -0.400 N 
ATOM     12  C   LIG    1        2.265  -0.648  -1.834  0.00  0.00    +0.320 C 
BRANCH   7  16
ATOM     13  C   LIG    1        0.763   4.432  -0.804  0.00  0.00    +0.290 C 
ATOM     14  N   LIG    1        1.746   3.478  -0.284  0.00  0.00    -0.720 N 
ATOM     15  H   LIG    1        2.366   3.751   0.411  0.00  0.00    +0.410 HD
ATOM     16  C   LIG    1        1.786   2.221  -0.768  0.00  0.00    +0.590 C 
ATOM     17  O   LIG    1        0.956   1.855  -1.579  0.00  0.00    -0.550 OA
ENDBRANCH   7  16
ENDBRANCH   1  10
BRANCH   6  18
ATOM     18  C   LIG    1        6.728  -0.833  -1.057  0.00  0.00    +0.330 C 
BRANCH  18  19
ATOM     19  C   LIG    1        8.180  -0.655  -0.694  0.00  0.00    +0.280 A 
ATOM     20  N   LIG    1        9.163  -1.323  -1.217  0.00  0.00    -0.480 NA
ATOM     21  C   LIG    1       10.328  -0.901  -0.654  0.00  0.00    +0.050 A 
ATOM     22  C   LIG    1       11.667  -1.255  -0.826  0.00  0.00    +0.050 A 
ATOM     23  C   LIG    1       12.642  -0.624  -0.083  0.00  0.00    +0.100 A 
ATOM     24  C   LIG    1       12.298   0.361   0.834  0.00  0.00    +0.030 A 
ATOM     25  C   LIG    1       10.978   0.719   1.013  0.00  0.00    +0.090 A 
ATOM     26  F   LIG    1       13.939  -0.965  -0.247  0.00  0.00    -0.130 F 
ATOM     27  C   LIG    1        9.986   0.094   0.274  0.00  0.00    -0.000 A 
ATOM     28  O   LIG    1        8.642   0.220   0.213  0.00  0.00    -0.200 OA
ENDBRANCH  18  19
ENDBRANCH   6  18
TORSDOF 4
