REMARK  Name = ZINCkj00000hbuj6.0
REMARK                            x       y       z     vdW  Elec       q    Type
REMARK                         _______ _______ _______ _____ _____    ______ ____
ROOT
ATOM      1  N   LIG    1        1.873  -5.996  -3.663  0.00  0.00    -0.760 N 
ATOM      2  H   LIG    1        1.532  -6.490  -2.901  0.00  0.00    +0.380 HD
ATOM      3  C   LIG    1        1.855  -4.648  -3.655  0.00  0.00    +0.710 C 
ATOM      4  N   LIG    1        1.363  -3.987  -2.589  0.00  0.00    -0.740 N 
ATOM      5  H   LIG    1        1.022  -4.481  -1.827  0.00  0.00    +0.400 HD
ATOM      6  O   LIG    1        2.283  -4.029  -4.610  0.00  0.00    -0.570 OA
ENDROOT
BRANCH   1  12
ATOM      7  C   LIG    1        2.257 -10.155  -3.330  0.00  0.00    +0.330 C 
ATOM      8  N   LIG    1        1.772  -8.857  -3.816  0.00  0.00    -0.390 N 
ATOM      9  C   LIG    1        0.746  -9.075  -4.843  0.00  0.00    +0.250 C 
ATOM     10  C   LIG    1        0.179  -7.728  -5.297  0.00  0.00    +0.050 C 
ATOM     11  C   LIG    1        1.310  -6.872  -5.877  0.00  0.00    +0.040 C 
ATOM     12  C   LIG    1        2.408  -6.715  -4.822  0.00  0.00    +0.280 C 
ATOM     13  C   LIG    1        2.893  -8.099  -4.385  0.00  0.00    +0.280 C 
ATOM     14  H   LIG    1        1.372  -8.339  -3.048  0.00  0.00    +0.420 HD
ENDBRANCH   1  12
BRANCH   4  15
ATOM     15  C   LIG    1        1.343  -2.522  -2.581  0.00  0.00    +0.270 C 
BRANCH  15  16
ATOM     16  C   LIG    1        0.739  -2.027  -1.265  0.00  0.00    +0.030 C 
BRANCH  16  17
ATOM     17  C   LIG    1        0.718  -0.497  -1.257  0.00  0.00    +0.010 C 
ATOM     18  C   LIG    1        2.154   0.032  -1.268  0.00  0.00    +0.020 C 
ATOM     19  C   LIG    1        2.133   1.562  -1.259  0.00  0.00    +0.000 C 
ATOM     20  C   LIG    1        1.417   2.055  -0.000  0.00  0.00    +0.010 C 
ATOM     21  C   LIG    1       -0.019   1.526   0.010  0.00  0.00    -0.010 C 
ATOM     22  C   LIG    1        0.002  -0.004   0.002  0.00  0.00    +0.160 C 
BRANCH  22  23
ATOM     23  O   LIG    1        0.693  -0.477   1.160  0.00  0.00    -0.560 OA
ATOM     24  H   LIG    1        0.294  -0.202   1.996  0.00  0.00    +0.380 HD
ENDBRANCH  22  23
ENDBRANCH  16  17
ENDBRANCH  15  16
ENDBRANCH   4  15
TORSDOF 5
