REMARK  Name = ZINCrH000004tQd1.0
REMARK                            x       y       z     vdW  Elec       q    Type
REMARK                         _______ _______ _______ _____ _____    ______ ____
ROOT
ATOM      1  O   LIG    1        5.390  -1.992   1.292  0.00  0.00    -0.500 OA
ATOM      2  C   LIG    1        5.027  -0.853   1.086  0.00  0.00    +0.530 C 
ATOM      3  N   LIG    1        4.016  -0.614   0.228  0.00  0.00    -0.610 N 
ATOM      4  C   LIG    1        3.341  -1.719  -0.469  0.00  0.00    +0.310 C 
ATOM      5  C   LIG    1        1.877  -1.779  -0.014  0.00  0.00    +0.120 C 
ATOM      6  C   LIG    1        1.313  -0.383  -0.011  0.00  0.00    -0.000 A 
ATOM      7  C   LIG    1        2.050   0.748  -0.014  0.00  0.00    -0.020 A 
ATOM      8  N   LIG    1        1.217   1.791   0.000  0.00  0.00    -0.470 NA
ATOM      9  C   LIG    1       -0.016   1.356   0.009  0.00  0.00    +0.400 A 
ATOM     10  N   LIG    1        0.002  -0.004   0.002  0.00  0.00    -0.410 N 
ATOM     11  C   LIG    1        3.561   0.763  -0.036  0.00  0.00    +0.390 C 
ENDROOT
BRANCH  10  12
ATOM     12  C   LIG    1       -1.114  -0.855   0.007  0.00  0.00    +0.100 A 
ATOM     13  C   LIG    1       -1.208  -1.882  -0.922  0.00  0.00    +0.060 A 
ATOM     14  C   LIG    1       -2.305  -2.721  -0.912  0.00  0.00    +0.020 A 
ATOM     15  C   LIG    1       -3.315  -2.532   0.015  0.00  0.00    +0.110 A 
ATOM     16  C   LIG    1       -3.225  -1.505   0.940  0.00  0.00    +0.020 A 
ATOM     17  F   LIG    1       -4.390  -3.351   0.020  0.00  0.00    -0.130 F 
ATOM     18  C   LIG    1       -2.127  -0.667   0.937  0.00  0.00    +0.060 A 
ENDBRANCH  10  12
BRANCH   2  19
ATOM     19  C   LIG    1        5.706   0.293   1.790  0.00  0.00    +0.240 C 
BRANCH  19  20
ATOM     20  O   LIG    1        6.737  -0.213   2.640  0.00  0.00    -0.280 OA
BRANCH  20  21
ATOM     21  C   LIG    1        7.452   0.698   3.352  0.00  0.00    +0.150 A 
ATOM     22  C   LIG    1        7.168   2.050   3.235  0.00  0.00    -0.070 A 
ATOM     23  C   LIG    1        7.896   2.974   3.960  0.00  0.00    +0.070 A 
ATOM     24  C   LIG    1        8.908   2.552   4.802  0.00  0.00    -0.020 A 
ATOM     25  C   LIG    1        9.194   1.204   4.921  0.00  0.00    +0.090 A 
ATOM     26  C   LIG    1        8.465   0.276   4.202  0.00  0.00    -0.120 A 
ATOM     27 BR   LIG    1        8.852  -1.568   4.371  0.00  0.00    -0.030 Br
ENDBRANCH  20  21
ENDBRANCH  19  20
ENDBRANCH   2  19
TORSDOF 4
