REMARK  Name = ZINCqH00000075Dq.0
REMARK                            x       y       z     vdW  Elec       q    Type
REMARK                         _______ _______ _______ _____ _____    ______ ____
ROOT
ATOM      1  N   LIG    1       -1.291   5.899   0.043  0.00  0.00    -0.470 N 
ATOM      2  C   LIG    1       -0.070   5.316   0.028  0.00  0.00    +0.560 A 
ATOM      3  C   LIG    1       -0.018   3.848   0.021  0.00  0.00    -0.200 A 
ATOM      4  C   LIG    1        1.191   3.155   0.007  0.00  0.00    +0.100 A 
ATOM      5  C   LIG    1        1.186   1.778   0.000  0.00  0.00    -0.010 A 
ATOM      6  C   LIG    1       -0.013   1.076   0.008  0.00  0.00    +0.070 A 
ATOM      7  C   LIG    1       -1.218   1.739   0.017  0.00  0.00    +0.030 A 
ATOM      8  C   LIG    1       -1.240   3.136   0.030  0.00  0.00    +0.170 A 
ATOM      9  N   LIG    1       -2.401   3.823   0.044  0.00  0.00    -0.530 NA
ATOM     10  O   LIG    1        0.948   5.983   0.021  0.00  0.00    -0.490 OA
ATOM     11  C   LIG    1       -2.424   5.133   0.050  0.00  0.00    +0.380 A 
ENDROOT
BRANCH   1  18
ATOM     12  C   LIG    1       -1.453   8.000  -1.151  0.00  0.00    +0.160 A 
ATOM     13  C   LIG    1       -1.562   9.381  -1.137  0.00  0.00    -0.060 A 
ATOM     14  C   LIG    1       -1.601  10.059   0.068  0.00  0.00    +0.080 A 
ATOM     15  C   LIG    1       -1.539   9.363   1.260  0.00  0.00    -0.110 A 
ATOM     16  C   LIG    1       -1.436   7.984   1.255  0.00  0.00    +0.080 A 
ATOM     17  C   LIG    1       -1.583  10.108   2.569  0.00  0.00    +0.100 C 
ATOM     18  C   LIG    1       -1.395   7.297   0.051  0.00  0.00    +0.060 A 
BRANCH  12  20
ATOM     19  C   LIG    1       -1.472   8.118  -3.526  0.00  0.00    +0.250 C 
ATOM     20  O   LIG    1       -1.408   7.332  -2.334  0.00  0.00    -0.310 OA
ENDBRANCH  12  20
ENDBRANCH   1  18
BRANCH  11  21
ATOM     21  S   LIG    1       -3.987   5.946   0.068  0.00  0.00    +0.050 S 
BRANCH  21  22
ATOM     22  C   LIG    1       -5.088   4.509   0.072  0.00  0.00    -0.010 C 
ATOM     23  C   LIG    1       -4.927   3.739  -1.241  0.00  0.00    +0.100 C 
BRANCH  22  24
ATOM     24  C   LIG    1       -6.516   4.970   0.211  0.00  0.00    +0.370 C 
ATOM     25  O   LIG    1       -6.829   6.081  -0.144  0.00  0.00    -0.440 OA
ATOM     26  C   LIG    1       -7.553   4.046   0.794  0.00  0.00    +0.090 C 
ENDBRANCH  22  24
ENDBRANCH  21  22
ENDBRANCH  11  21
TORSDOF 5
