REMARK  Name = ZINCvU00000007u7.0
REMARK                            x       y       z     vdW  Elec       q    Type
REMARK                         _______ _______ _______ _____ _____    ______ ____
ROOT
ATOM      1  C   LIG    1       -1.457   6.859  -2.990  0.00  0.00    -0.290 A 
ATOM      2  C   LIG    1       -2.600   7.432  -3.468  0.00  0.00    +0.140 A 
ATOM      3  C   LIG    1       -2.587   7.628  -4.835  0.00  0.00    -0.120 A 
ATOM      4  C   LIG    1       -1.435   7.213  -5.453  0.00  0.00    +0.000 A 
ATOM      5  S   LIG    1       -0.339   6.570  -4.315  0.00  0.00    +0.200 S 
ENDROOT
BRANCH   4   6
ATOM      6  N   LIG    1       -1.193   7.306  -6.811  0.00  0.00    -0.440 N 
ATOM      7  C   LIG    1       -2.241   6.621  -7.581  0.00  0.00    +0.180 C 
ATOM      8  C   LIG    1       -1.967   6.800  -9.077  0.00  0.00    +0.240 C 
ATOM      9  O   LIG    1       -0.660   6.304  -9.380  0.00  0.00    -0.380 OA
ATOM     10  C   LIG    1        0.385   6.950  -8.647  0.00  0.00    +0.250 C 
ATOM     11  C   LIG    1        0.135   6.772  -7.147  0.00  0.00    +0.170 C 
ENDBRANCH   4   6
BRANCH   3  12
ATOM     12  C   LIG    1       -3.722   8.235  -5.572  0.00  0.00    -0.020 A 
ATOM     13  C   LIG    1       -3.498   9.289  -6.457  0.00  0.00    +0.040 A 
ATOM     14  C   LIG    1       -4.557   9.846  -7.144  0.00  0.00    +0.000 A 
ATOM     15  C   LIG    1       -5.841   9.368  -6.947  0.00  0.00    +0.000 A 
ATOM     16  C   LIG    1       -6.069   8.327  -6.066  0.00  0.00    +0.000 A 
ATOM     17  C   LIG    1       -5.017   7.758  -5.378  0.00  0.00    +0.010 A 
ENDBRANCH   3  12
BRANCH   1  19
ATOM     18  O   LIG    1       -2.069   6.012  -0.959  0.00  0.00    -0.510 OA
ATOM     19  C   LIG    1       -1.207   6.550  -1.629  0.00  0.00    +0.600 C 
ATOM     20  N   LIG    1       -0.014   6.851  -1.078  0.00  0.00    -0.580 N 
BRANCH  20  21
ATOM     21  C   LIG    1        0.296   6.407   0.284  0.00  0.00    +0.200 C 
ATOM     22  C   LIG    1       -0.462   5.191   0.821  0.00  0.00    +0.030 C 
ATOM     23  C   LIG    1       -0.786   6.590   1.350  0.00  0.00    +0.020 C 
ENDBRANCH  20  21
BRANCH  20  24
ATOM     24  C   LIG    1        0.972   7.621  -1.840  0.00  0.00    +0.330 C 
BRANCH  24  25
ATOM     25  C   LIG    1        0.556   9.069  -1.879  0.00  0.00    -0.120 A 
ATOM     26  C   LIG    1        0.876   9.908  -0.829  0.00  0.00    +0.060 A 
ATOM     27  C   LIG    1        0.496  11.237  -0.864  0.00  0.00    -0.020 A 
ATOM     28  C   LIG    1       -0.205  11.726  -1.953  0.00  0.00    +0.110 A 
ATOM     29  C   LIG    1       -0.530  10.883  -3.002  0.00  0.00    -0.010 A 
ATOM     30  F   LIG    1       -0.578  13.025  -1.989  0.00  0.00    -0.140 F 
ATOM     31  C   LIG    1       -0.145   9.557  -2.966  0.00  0.00    +0.060 A 
ENDBRANCH  24  25
ENDBRANCH  20  24
ENDBRANCH   1  19
TORSDOF 6
