REMARK  Name = ZINCrg000009MC5z.0
REMARK                            x       y       z     vdW  Elec       q    Type
REMARK                         _______ _______ _______ _____ _____    ______ ____
ROOT
ATOM      1  C   LIG    1        6.215   1.561   1.488  0.00  0.00    +0.220 C 
ATOM      2  C   LIG    1        7.085   1.071   2.628  0.00  0.00    +0.230 C 
ATOM      3  O   LIG    1        7.494   2.189   3.405  0.00  0.00    -0.370 OA
ATOM      4  C   LIG    1        8.634   2.881   3.050  0.00  0.00    +0.200 C 
ATOM      5  C   LIG    1        8.434   3.523   1.655  0.00  0.00    +0.250 C 
ATOM      6  N   LIG    1        8.362   2.481   0.648  0.00  0.00    -0.600 N 
ATOM      7  C   LIG    1        9.499   2.081   0.045  0.00  0.00    +0.550 C 
ATOM      8  O   LIG    1        9.478   1.151  -0.733  0.00  0.00    -0.490 OA
ATOM      9  C   LIG    1        7.090   1.843   0.258  0.00  0.00    +0.290 C 
ENDROOT
BRANCH   7  10
ATOM     10  C   LIG    1       10.796   2.790   0.338  0.00  0.00    +0.050 C 
ATOM     11  S   LIG    1       10.811   4.399  -0.502  0.00  0.00    -0.180 S 
ATOM     12  C   LIG    1       12.458   5.046  -0.104  0.00  0.00    +0.110 C 
ATOM     13  C   LIG    1       13.534   4.137  -0.687  0.00  0.00    +0.050 C 
ATOM     14  C   LIG    1       13.623   2.832   0.096  0.00  0.00    +0.090 C 
ATOM     15  S   LIG    1       12.185   1.790  -0.268  0.00  0.00    -0.150 S 
ENDBRANCH   7  10
BRANCH   1  17
ATOM     16  C   LIG    1        4.065   0.471   1.844  0.00  0.00    +0.510 C 
ATOM     17  N   LIG    1        5.223   0.536   1.157  0.00  0.00    -0.720 N 
ATOM     18  H   LIG    1        5.398  -0.097   0.443  0.00  0.00    +0.410 HD
ATOM     19  O   LIG    1        3.845   1.262   2.737  0.00  0.00    -0.520 OA
BRANCH  16  20
ATOM     20  C   LIG    1        3.044  -0.583   1.503  0.00  0.00    +0.300 C 
BRANCH  20  22
ATOM     21  C   LIG    1        0.838  -1.284   2.264  0.00  0.00    +0.520 C 
ATOM     22  N   LIG    1        1.884  -0.443   2.387  0.00  0.00    -0.720 N 
ATOM     23  H   LIG    1        1.868   0.255   3.060  0.00  0.00    +0.410 HD
ATOM     24  O   LIG    1        0.857  -2.157   1.422  0.00  0.00    -0.530 OA
BRANCH  21  25
ATOM     25  C   LIG    1       -0.358  -1.136   3.169  0.00  0.00    +0.070 C 
BRANCH  25  27
ATOM     26  C   LIG    1       -0.785  -3.593   3.006  0.00  0.00    +0.030 C 
ATOM     27  C   LIG    1       -1.398  -2.203   2.819  0.00  0.00    -0.050 C 
ATOM     28  C   LIG    1       -1.835  -2.031   1.363  0.00  0.00    +0.030 C 
ATOM     29  C   LIG    1       -2.612  -2.053   3.737  0.00  0.00    +0.020 C 
ENDBRANCH  25  27
ENDBRANCH  21  25
ENDBRANCH  20  22
ENDBRANCH  16  20
ENDBRANCH   1  17
TORSDOF 6
