REMARK  Name = ZINCrH000004mLO0.0
REMARK                            x       y       z     vdW  Elec       q    Type
REMARK                         _______ _______ _______ _____ _____    ______ ____
ROOT
ATOM      1  C   LIG    1        1.106   2.042  -3.281  0.00  0.00    +0.580 C 
ATOM      2  N   LIG    1        0.987   3.095  -2.448  0.00  0.00    -0.610 N 
ATOM      3  C   LIG    1       -0.191   3.971  -2.516  0.00  0.00    +0.270 C 
ATOM      4  C   LIG    1       -0.835   4.028  -1.120  0.00  0.00    +0.260 C 
ATOM      5  N   LIG    1        0.212   4.324  -0.133  0.00  0.00    -0.610 N 
ATOM      6  C   LIG    1        1.393   3.450  -0.069  0.00  0.00    +0.290 C 
ATOM      7  C   LIG    1        0.093   5.377   0.700  0.00  0.00    +0.560 C 
ATOM      8  O   LIG    1        1.006   5.667   1.448  0.00  0.00    -0.510 OA
ATOM      9  C   LIG    1        2.034   3.391  -1.461  0.00  0.00    +0.290 C 
ATOM     10  O   LIG    1        2.131   1.387  -3.289  0.00  0.00    -0.510 OA
ENDROOT
BRANCH   7  11
ATOM     11  C   LIG    1       -1.148   6.178   0.703  0.00  0.00    -0.120 A 
ATOM     12  C   LIG    1       -2.392   5.545   0.708  0.00  0.00    +0.080 A 
ATOM     13  C   LIG    1       -3.547   6.298   0.717  0.00  0.00    +0.040 A 
ATOM     14  C   LIG    1       -3.475   7.682   0.709  0.00  0.00    -0.000 A 
ATOM     15  C   LIG    1       -2.245   8.317   0.698  0.00  0.00    +0.040 A 
ATOM     16 CL   LIG    1       -4.934   8.623   0.713  0.00  0.00    -0.040 Cl
ATOM     17  C   LIG    1       -1.081   7.574   0.695  0.00  0.00    +0.020 A 
ATOM     18 CL   LIG    1        0.460   8.372   0.681  0.00  0.00    -0.030 Cl
ENDBRANCH   7  11
BRANCH   1  25
ATOM     19  C   LIG    1       -0.594   0.415  -4.106  0.00  0.00    +0.170 A 
ATOM     20  C   LIG    1       -1.638   0.088  -4.957  0.00  0.00    -0.030 A 
ATOM     21  C   LIG    1       -2.096   1.010  -5.878  0.00  0.00    +0.060 A 
ATOM     22  C   LIG    1       -1.517   2.267  -5.958  0.00  0.00    +0.060 A 
ATOM     23  C   LIG    1       -0.480   2.611  -5.114  0.00  0.00    +0.060 A 
ATOM     24  F   LIG    1       -1.972   3.162  -6.862  0.00  0.00    -0.130 F 
ATOM     25  C   LIG    1       -0.005   1.684  -4.183  0.00  0.00    -0.140 A 
BRANCH  19  27
ATOM     26  C   LIG    1       -0.792  -1.765  -3.181  0.00  0.00    +0.250 C 
ATOM     27  O   LIG    1       -0.144  -0.491  -3.201  0.00  0.00    -0.300 OA
ENDBRANCH  19  27
ENDBRANCH   1  25
TORSDOF 3
