REMARK  Name = ZINCpk00000xO2Tc.0
REMARK                            x       y       z     vdW  Elec       q    Type
REMARK                         _______ _______ _______ _____ _____    ______ ____
ROOT
ATOM      1  N   LIG    1       -0.755   1.911   1.106  0.00  0.00    -0.590 N 
ATOM      2  C   LIG    1       -0.392   3.081   1.633  0.00  0.00    +0.520 C 
ATOM      3  C   LIG    1        0.894   3.779   1.294  0.00  0.00    +0.060 C 
ATOM      4  C   LIG    1        1.471   3.208  -0.004  0.00  0.00    +0.040 C 
ATOM      5  C   LIG    1        1.470   1.678   0.098  0.00  0.00    -0.020 C 
ATOM      6  O   LIG    1       -1.140   3.610   2.427  0.00  0.00    -0.550 OA
ATOM      7  C   LIG    1        0.021   1.189   0.106  0.00  0.00    +0.320 C 
ENDROOT
BRANCH   7   8
ATOM      8  C   LIG    1       -0.005  -0.284   0.425  0.00  0.00    -0.260 A 
ATOM      9  C   LIG    1       -0.276  -1.283  -0.447  0.00  0.00    +0.260 A 
ATOM     10  N   LIG    1       -0.196  -2.450   0.226  0.00  0.00    -0.370 N 
ATOM     11  N   LIG    1        0.127  -2.158   1.558  0.00  0.00    -0.290 NA
ATOM     12  C   LIG    1       -0.414  -3.785  -0.336  0.00  0.00    +0.360 C 
ATOM     13  C   LIG    1        0.241  -0.860   1.676  0.00  0.00    +0.250 A 
ENDBRANCH   7   8
BRANCH   1  15
ATOM     14  C   LIG    1       -3.173   1.886   0.740  0.00  0.00    +0.010 C 
ATOM     15  C   LIG    1       -2.014   1.316   1.560  0.00  0.00    +0.270 C 
ENDBRANCH   1  15
BRANCH   5  16
ATOM     16  C   LIG    1        2.206   1.080  -1.103  0.00  0.00    +0.300 C 
BRANCH  16  17
ATOM     17  N   LIG    1        3.622   1.454  -1.043  0.00  0.00    -0.690 N 
ATOM     18  H   LIG    1        3.948   2.002  -0.312  0.00  0.00    +0.420 HD
BRANCH  17  19
ATOM     19  C   LIG    1        4.493   1.026  -2.030  0.00  0.00    +0.580 A 
ATOM     20  N   LIG    1        4.028   0.278  -3.021  0.00  0.00    -0.550 NA
ATOM     21  C   LIG    1        4.828  -0.151  -3.983  0.00  0.00    +0.390 A 
ATOM     22  C   LIG    1        6.171   0.189  -3.950  0.00  0.00    -0.080 A 
ATOM     23  C   LIG    1        6.631   0.978  -2.892  0.00  0.00    +0.300 A 
ATOM     24  N   LIG    1        5.766   1.377  -1.962  0.00  0.00    -0.540 NA
BRANCH  23  25
ATOM     25  C   LIG    1        8.010   1.355  -2.814  0.00  0.00    +0.260 C 
ATOM     26  N   LIG    1        9.104   1.654  -2.751  0.00  0.00    -0.360 NA
ENDBRANCH  23  25
ENDBRANCH  17  19
ENDBRANCH  16  17
ENDBRANCH   5  16
TORSDOF 6
