REMARK  Name = ZINCqH0000006MPy.0
REMARK                            x       y       z     vdW  Elec       q    Type
REMARK                         _______ _______ _______ _____ _____    ______ ____
ROOT
ATOM      1  C   LIG    1        5.736   1.199  -1.363  0.00  0.00    +0.100 A 
ATOM      2  C   LIG    1        6.609   1.856  -2.215  0.00  0.00    -0.010 A 
ATOM      3  C   LIG    1        6.116   2.688  -3.203  0.00  0.00    -0.110 A 
ATOM      4  C   LIG    1        4.753   2.866  -3.344  0.00  0.00    +0.040 A 
ATOM      5  C   LIG    1        3.876   2.210  -2.501  0.00  0.00    -0.040 A 
ATOM      6  C   LIG    1        4.363   1.379  -1.505  0.00  0.00    +0.120 A 
ENDROOT
BRANCH   1   8
ATOM      7  C   LIG    1        7.639   0.243  -0.304  0.00  0.00    +0.240 C 
ATOM      8  O   LIG    1        6.219   0.381  -0.391  0.00  0.00    -0.300 OA
ENDBRANCH   1   8
BRANCH   3   9
ATOM      9  C   LIG    1        7.068   3.401  -4.129  0.00  0.00    +0.330 C 
BRANCH   9  10
ATOM     10  N   LIG    1        7.326   2.564  -5.303  0.00  0.00    -0.720 N 
ATOM     11  H   LIG    1        6.902   1.695  -5.383  0.00  0.00    +0.400 HD
ATOM     12  C   LIG    1        8.154   3.001  -6.273  0.00  0.00    +0.520 C 
ATOM     13  O   LIG    1        8.684   4.087  -6.174  0.00  0.00    -0.510 OA
BRANCH  12  14
ATOM     14  C   LIG    1        8.419   2.140  -7.481  0.00  0.00    +0.220 C 
BRANCH  14  15
ATOM     15  O   LIG    1        9.322   2.816  -8.359  0.00  0.00    -0.290 OA
BRANCH  15  16
ATOM     16  C   LIG    1        9.667   2.172  -9.505  0.00  0.00    +0.130 A 
ATOM     17  C   LIG    1        9.154   0.912  -9.775  0.00  0.00    -0.080 A 
ATOM     18  C   LIG    1        9.502   0.261 -10.943  0.00  0.00    +0.050 A 
ATOM     19  C   LIG    1       10.371   0.860 -11.836  0.00  0.00    -0.030 A 
ATOM     20  C   LIG    1       10.889   2.113 -11.566  0.00  0.00    +0.050 A 
ATOM     21  C   LIG    1       10.539   2.770 -10.402  0.00  0.00    -0.020 A 
ENDBRANCH  15  16
ENDBRANCH  14  15
ENDBRANCH  12  14
ENDBRANCH   9  10
ENDBRANCH   3   9
BRANCH   6  22
ATOM     22  O   LIG    1        3.502   0.737  -0.671  0.00  0.00    -0.290 OA
BRANCH  22  23
ATOM     23  C   LIG    1        2.107   0.868  -0.953  0.00  0.00    +0.160 C 
ATOM     24  C   LIG    1        1.522   2.108  -0.233  0.00  0.00    +0.000 C 
ATOM     25  C   LIG    1        0.016   1.764  -0.129  0.00  0.00    +0.020 C 
ATOM     26  C   LIG    1       -0.007   0.250   0.166  0.00  0.00    +0.020 C 
ATOM     27  C   LIG    1        1.323  -0.320  -0.357  0.00  0.00    +0.030 C 
ENDBRANCH  22  23
ENDBRANCH   6  22
TORSDOF 8
