REMARK  Name = ZINCrH00000No4Oe.0
REMARK                            x       y       z     vdW  Elec       q    Type
REMARK                         _______ _______ _______ _____ _____    ______ ____
ROOT
ATOM      1  N   LIG    1        5.186   8.175   0.836  0.00  0.00    -0.490 N 
ATOM      2  C   LIG    1        4.380   8.428  -0.365  0.00  0.00    +0.180 C 
ATOM      3  C   LIG    1        3.096   7.598  -0.304  0.00  0.00    +0.070 C 
ATOM      4  C   LIG    1        3.458   6.113  -0.213  0.00  0.00    -0.010 C 
ATOM      5  C   LIG    1        4.337   5.885   1.019  0.00  0.00    +0.060 C 
ATOM      6  C   LIG    1        5.585   6.765   0.920  0.00  0.00    +0.190 C 
ENDROOT
BRANCH   1  12
ATOM      7  C   LIG    1        6.469   9.901   1.950  0.00  0.00    -0.170 A 
ATOM      8  C   LIG    1        7.593  10.736   1.977  0.00  0.00    +0.130 A 
ATOM      9  C   LIG    1        8.514  10.679   0.956  0.00  0.00    -0.200 A 
ATOM     10  C   LIG    1        8.337   9.799  -0.101  0.00  0.00    +0.110 A 
ATOM     11  C   LIG    1        7.239   8.964  -0.140  0.00  0.00    -0.030 A 
ATOM     12  C   LIG    1        6.293   9.009   0.876  0.00  0.00    +0.180 A 
BRANCH   9  13
ATOM     13  C   LIG    1        9.723  11.578   0.987  0.00  0.00    +0.510 C 
ATOM     14  F   LIG    1        9.405  12.764   1.657  0.00  0.00    -0.170 F 
ATOM     15  F   LIG    1       10.118  11.874  -0.322  0.00  0.00    -0.180 F 
ATOM     16  F   LIG    1       10.769  10.932   1.655  0.00  0.00    -0.170 F 
ENDBRANCH   9  13
BRANCH   7  18
ATOM     17  O   LIG    1        4.511   9.230   3.007  0.00  0.00    -0.410 OA
ATOM     18  C   LIG    1        5.483   9.955   3.034  0.00  0.00    +0.470 C 
ENDBRANCH   7  18
ENDBRANCH   1  12
BRANCH   4  19
ATOM     19  C   LIG    1        2.199   5.294  -0.093  0.00  0.00    +0.520 C 
ATOM     20  N   LIG    1        2.275   3.952   0.002  0.00  0.00    -0.670 N 
ATOM     21  H   LIG    1        3.140   3.518   0.069  0.00  0.00    +0.410 HD
ATOM     22  O   LIG    1        1.118   5.843  -0.081  0.00  0.00    -0.510 OA
BRANCH  20  23
ATOM     23  C   LIG    1        1.105   3.183   0.003  0.00  0.00    +0.100 A 
ATOM     24  C   LIG    1       -0.010   3.593  -0.724  0.00  0.00    +0.060 A 
ATOM     25  C   LIG    1       -1.144   2.798  -0.692  0.00  0.00    -0.010 A 
ATOM     26  C   LIG    1       -1.134   1.637   0.058  0.00  0.00    +0.240 A 
ATOM     27  N   LIG    1       -0.060   1.274   0.731  0.00  0.00    -0.470 NA
ATOM     28  C   LIG    1        1.040   2.000   0.728  0.00  0.00    +0.240 A 
ENDBRANCH  20  23
ENDBRANCH   4  19
TORSDOF 5
