REMARK  Name = ZINCtV00000L6jXM.0
REMARK                            x       y       z     vdW  Elec       q    Type
REMARK                         _______ _______ _______ _____ _____    ______ ____
ROOT
ATOM      1  C   LIG    1       -4.232   2.837  -1.933  0.00  0.00    +0.470 A 
ATOM      2  C   LIG    1       -2.938   2.256  -1.975  0.00  0.00    -0.150 A 
ATOM      3  C   LIG    1       -2.333   2.104  -3.218  0.00  0.00    +0.090 A 
ATOM      4  S   LIG    1       -0.753   1.370  -3.017  0.00  0.00    +0.210 S 
ATOM      5  C   LIG    1       -0.933   1.282  -1.266  0.00  0.00    -0.190 A 
ATOM      6  C   LIG    1       -0.125   0.801  -0.063  0.00  0.00    +0.120 C 
ATOM      7  C   LIG    1       -0.785   1.476   1.155  0.00  0.00    +0.050 C 
ATOM      8  C   LIG    1       -2.229   1.681   0.646  0.00  0.00    +0.100 C 
ATOM      9  N   LIG    1       -2.989   2.507  -4.316  0.00  0.00    -0.470 NA
ATOM     10  C   LIG    1       -4.186   3.040  -4.229  0.00  0.00    +0.360 A 
ATOM     11  C   LIG    1       -2.101   1.771  -0.875  0.00  0.00    -0.090 A 
ATOM     12  N   LIG    1       -4.801   3.206  -3.072  0.00  0.00    -0.510 NA
ENDROOT
BRANCH   1  14
ATOM     13  C   LIG    1       -4.632   4.213   0.076  0.00  0.00    +0.310 C 
ATOM     14  N   LIG    1       -4.887   3.015  -0.727  0.00  0.00    -0.580 N 
BRANCH  14  15
ATOM     15  C   LIG    1       -5.792   2.050  -0.275  0.00  0.00    +0.210 A 
ATOM     16  C   LIG    1       -5.957   0.865  -0.980  0.00  0.00    -0.070 A 
ATOM     17  C   LIG    1       -6.848  -0.088  -0.528  0.00  0.00    +0.050 A 
ATOM     18  C   LIG    1       -7.584   0.141   0.621  0.00  0.00    -0.040 A 
ATOM     19  C   LIG    1       -7.427   1.323   1.322  0.00  0.00    +0.060 A 
ATOM     20  C   LIG    1       -6.533   2.278   0.878  0.00  0.00    -0.050 A 
ENDBRANCH  14  15
ENDBRANCH   1  14
BRANCH  10  21
ATOM     21  C   LIG    1       -4.881   3.477  -5.492  0.00  0.00    +0.190 C 
BRANCH  21  22
ATOM     22  S   LIG    1       -4.458   5.205  -5.848  0.00  0.00    -0.060 S 
BRANCH  22  23
ATOM     23  C   LIG    1       -5.348   5.533  -7.333  0.00  0.00    -0.080 A 
ATOM     24  C   LIG    1       -6.122   4.537  -7.915  0.00  0.00    +0.010 A 
ATOM     25  C   LIG    1       -6.822   4.798  -9.077  0.00  0.00    +0.050 A 
ATOM     26  C   LIG    1       -6.744   6.047  -9.667  0.00  0.00    -0.040 A 
ATOM     27  C   LIG    1       -5.969   7.040  -9.092  0.00  0.00    +0.050 A 
ATOM     28 CL   LIG    1       -7.619   6.370 -11.132  0.00  0.00    -0.060 Cl
ATOM     29  C   LIG    1       -5.272   6.787  -7.928  0.00  0.00    +0.050 A 
ENDBRANCH  22  23
ENDBRANCH  21  22
ENDBRANCH  10  21
TORSDOF 5
