REMARK  Name = ZINCqH0000005j9y.0
REMARK                            x       y       z     vdW  Elec       q    Type
REMARK                         _______ _______ _______ _____ _____    ______ ____
ROOT
ATOM      1  C   LIG    1        3.495   0.843  -0.027  0.00  0.00    +0.500 C 
ENDROOT
BRANCH   1   2
ATOM      2  C   LIG    1        1.993   0.725  -0.013  0.00  0.00    +0.170 A 
ATOM      3  N   LIG    1        1.299  -0.386  -0.012  0.00  0.00    -0.460 NA
ATOM      4  C   LIG    1        0.002  -0.004   0.002  0.00  0.00    +0.200 A 
ATOM      5  N   LIG    1       -0.016   1.303   0.009  0.00  0.00    -0.360 NA
ATOM      6  O   LIG    1        1.118   1.736   0.001  0.00  0.00    +0.110 OA
BRANCH   4   7
ATOM      7  C   LIG    1       -1.180  -0.901   0.009  0.00  0.00    +0.040 A 
ATOM      8  C   LIG    1       -1.008  -2.284  -0.007  0.00  0.00    +0.040 A 
ATOM      9  C   LIG    1       -2.112  -3.116   0.005  0.00  0.00    +0.130 A 
ATOM     10  C   LIG    1       -3.388  -2.577   0.021  0.00  0.00    -0.010 A 
ATOM     11  C   LIG    1       -3.564  -1.203   0.030  0.00  0.00    +0.140 A 
ATOM     12  F   LIG    1       -4.810  -0.682   0.046  0.00  0.00    -0.120 F 
ATOM     13  F   LIG    1       -1.947  -4.457  -0.004  0.00  0.00    -0.120 F 
ATOM     14  C   LIG    1       -2.465  -0.363   0.024  0.00  0.00    +0.020 A 
ENDBRANCH   4   7
ENDBRANCH   1   2
BRANCH   1  16
ATOM     15  C   LIG    1        4.304  -0.354  -2.113  0.00  0.00    +0.310 C 
ATOM     16  N   LIG    1        3.969   0.888  -1.412  0.00  0.00    -0.600 N 
ATOM     17  C   LIG    1        4.096   2.073  -2.043  0.00  0.00    +0.650 C 
ATOM     18  O   LIG    1        3.817   3.103  -1.462  0.00  0.00    -0.560 OA
BRANCH  17  19
ATOM     19  O   LIG    1        4.531   2.115  -3.316  0.00  0.00    -0.360 OA
BRANCH  19  20
ATOM     20  C   LIG    1        4.644   3.425  -3.932  0.00  0.00    +0.290 C 
BRANCH  20  21
ATOM     21  C   LIG    1        5.142   3.274  -5.346  0.00  0.00    -0.100 A 
ATOM     22  C   LIG    1        6.499   3.297  -5.606  0.00  0.00    +0.040 A 
ATOM     23  C   LIG    1        6.957   3.154  -6.903  0.00  0.00    +0.010 A 
ATOM     24  C   LIG    1        6.056   2.999  -7.940  0.00  0.00    +0.020 A 
ATOM     25  C   LIG    1        4.699   2.982  -7.680  0.00  0.00    +0.010 A 
ATOM     26  C   LIG    1        4.242   3.119  -6.383  0.00  0.00    +0.030 A 
ENDBRANCH  20  21
ENDBRANCH  19  20
ENDBRANCH  17  19
ENDBRANCH   1  16
TORSDOF 6
