REMARK  Name = ZINCvU00000009mm.0
REMARK                            x       y       z     vdW  Elec       q    Type
REMARK                         _______ _______ _______ _____ _____    ______ ____
ROOT
ATOM      1  C   LIG    1        0.078   6.283  -5.157  0.00  0.00    +0.220 C 
ATOM      2  C   LIG    1        0.369   7.755  -4.848  0.00  0.00    +0.020 C 
ATOM      3  C   LIG    1        0.025   8.607  -6.072  0.00  0.00    +0.020 C 
ATOM      4  C   LIG    1        0.897   8.180  -7.254  0.00  0.00    +0.010 C 
ATOM      5  C   LIG    1        0.612   6.713  -7.590  0.00  0.00    +0.260 C 
ATOM      6  N   LIG    1        0.801   5.904  -6.378  0.00  0.00    -0.610 N 
ATOM      7  C   LIG    1        1.623   4.836  -6.386  0.00  0.00    +0.510 C 
ATOM      8  O   LIG    1        1.856   4.242  -5.355  0.00  0.00    -0.510 OA
ENDROOT
BRANCH   1   9
ATOM      9  C   LIG    1        0.549   5.412  -3.990  0.00  0.00    +0.270 C 
ATOM     10  C   LIG    1       -0.083   5.914  -2.691  0.00  0.00    +0.020 C 
BRANCH   9  11
ATOM     11  N   LIG    1        0.146   4.023  -4.225  0.00  0.00    -0.670 N 
ATOM     12  H   LIG    1       -0.490   3.814  -4.927  0.00  0.00    +0.400 HD
BRANCH  11  15
ATOM     13  C   LIG    1        2.089   2.248  -1.681  0.00  0.00    +0.200 A 
ATOM     14  C   LIG    1        1.592   3.295  -2.432  0.00  0.00    -0.150 A 
ATOM     15  C   LIG    1        0.674   3.007  -3.445  0.00  0.00    +0.470 A 
ATOM     16  N   LIG    1        0.316   1.743  -3.648  0.00  0.00    -0.590 NA
ATOM     17  C   LIG    1        0.816   0.775  -2.908  0.00  0.00    +0.530 A 
ATOM     18  N   LIG    1        1.687   1.013  -1.948  0.00  0.00    -0.570 NA
BRANCH  13  19
ATOM     19  C   LIG    1        3.081   2.505  -0.577  0.00  0.00    +0.090 C 
BRANCH  19  21
ATOM     20  C   LIG    1        3.614   2.061   1.824  0.00  0.00    +0.020 C 
ATOM     21  C   LIG    1        2.554   1.910   0.731  0.00  0.00    -0.010 C 
ATOM     22  C   LIG    1        1.281   2.648   1.150  0.00  0.00    +0.010 C 
ENDBRANCH  19  21
ENDBRANCH  13  19
ENDBRANCH  11  15
ENDBRANCH   9  11
ENDBRANCH   1   9
BRANCH   7  23
ATOM     23  C   LIG    1        2.252   4.380  -7.677  0.00  0.00    +0.030 C 
BRANCH  23  24
ATOM     24  C   LIG    1        3.699   3.953  -7.417  0.00  0.00    +0.030 C 
BRANCH  24  25
ATOM     25  C   LIG    1        4.527   5.176  -7.017  0.00  0.00    -0.020 C 
ATOM     26  C   LIG    1        5.838   4.823  -6.295  0.00  0.00    +0.010 C 
ATOM     27  C   LIG    1        5.557   6.020  -5.369  0.00  0.00    -0.020 C 
ATOM     28  C   LIG    1        4.068   5.828  -5.702  0.00  0.00    +0.020 C 
ENDBRANCH  24  25
BRANCH  24  29
ATOM     29  C   LIG    1        4.284   3.334  -8.687  0.00  0.00    -0.010 C 
ATOM     30  C   LIG    1        3.883   1.864  -8.897  0.00  0.00    -0.000 C 
ATOM     31  C   LIG    1        5.327   1.622  -9.373  0.00  0.00    +0.000 C 
ATOM     32  C   LIG    1        5.730   2.836  -8.520  0.00  0.00    +0.010 C 
ENDBRANCH  24  29
ENDBRANCH  23  24
ENDBRANCH   7  23
TORSDOF 9
