REMARK  Name = ZINCnE000001N2hZ.1
REMARK                            x       y       z     vdW  Elec       q    Type
REMARK                         _______ _______ _______ _____ _____    ______ ____
ROOT
ATOM      1  N   LIG    1        1.356   2.033   0.000  0.00  0.00    -0.750 N 
ATOM      2  H   LIG    1        2.102   1.413  -0.010  0.00  0.00    +0.390 HD
ATOM      3  C   LIG    1        1.584   3.361   0.005  0.00  0.00    +0.560 C 
ATOM      4  O   LIG    1        0.649   4.139   0.018  0.00  0.00    -0.510 OA
ENDROOT
BRANCH   3   5
ATOM      5  C   LIG    1        2.969   3.872  -0.005  0.00  0.00    -0.220 A 
ATOM      6  C   LIG    1        4.030   2.982  -0.020  0.00  0.00    +0.070 A 
ATOM      7  C   LIG    1        5.344   3.474  -0.030  0.00  0.00    -0.160 A 
ATOM      8  C   LIG    1        6.445   2.599  -0.046  0.00  0.00    +0.040 A 
ATOM      9  C   LIG    1        7.708   3.106  -0.056  0.00  0.00    -0.090 A 
ATOM     10  C   LIG    1        7.928   4.482  -0.051  0.00  0.00    -0.010 A 
ATOM     11  C   LIG    1        6.887   5.359  -0.035  0.00  0.00    -0.040 A 
ATOM     12  C   LIG    1        5.568   4.875  -0.025  0.00  0.00    +0.030 A 
ATOM     13  C   LIG    1        4.474   5.756  -0.010  0.00  0.00    -0.200 A 
ATOM     14  C   LIG    1        3.202   5.264  -0.006  0.00  0.00    +0.300 A 
ATOM     15  O   LIG    1        2.150   6.121   0.003  0.00  0.00    -0.670 OA
ENDBRANCH   3   5
BRANCH   1  16
ATOM     16  C   LIG    1       -0.019   1.526   0.010  0.00  0.00    +0.240 C 
BRANCH  16  17
ATOM     17  C   LIG    1        0.002  -0.004   0.002  0.00  0.00    +0.020 C 
BRANCH  17  21
ATOM     18  C   LIG    1       -2.839  -4.116  -0.081  0.00  0.00    +0.050 C 
ATOM     19  C   LIG    1       -2.852  -2.587  -0.019  0.00  0.00    +0.140 C 
ATOM     20  C   LIG    1       -1.417  -2.060  -0.110  0.00  0.00    +0.000 C 
ATOM     21  C   LIG    1       -1.433  -0.534   0.013  0.00  0.00    -0.020 C 
ATOM     22  C   LIG    1       -2.113  -0.146   1.330  0.00  0.00    -0.010 C 
ATOM     23  C   LIG    1       -3.520  -0.746   1.365  0.00  0.00    +0.200 C 
ATOM     24  O   LIG    1       -3.435  -2.165   1.215  0.00  0.00    -0.380 OA
ENDBRANCH  17  21
ENDBRANCH  16  17
ENDBRANCH   1  16
TORSDOF 4
