REMARK  Name = ZINCrH000004np8o.0
REMARK                            x       y       z     vdW  Elec       q    Type
REMARK                         _______ _______ _______ _____ _____    ______ ____
ROOT
ATOM      1  C   LIG    1       -2.857  -1.348   0.541  0.00  0.00    +0.530 C 
ATOM      2  N   LIG    1       -2.551  -0.036   0.541  0.00  0.00    -0.590 N 
ATOM      3  C   LIG    1       -1.780   0.511   1.675  0.00  0.00    +0.260 C 
ATOM      4  C   LIG    1       -0.689   1.495   1.214  0.00  0.00    +0.020 C 
ATOM      5  C   LIG    1       -0.020   0.979  -0.036  0.00  0.00    +0.010 C 
ATOM      6  C   LIG    1       -0.736   1.540  -1.261  0.00  0.00    +0.000 C 
ATOM      7  C   LIG    1       -1.914   0.766  -1.682  0.00  0.00    +0.010 C 
ATOM      8  C   LIG    1       -2.991   0.779  -0.569  0.00  0.00    +0.250 C 
ATOM      9  O   LIG    1       -3.392  -1.846  -0.426  0.00  0.00    -0.540 OA
ENDROOT
BRANCH   8  10
ATOM     10  C   LIG    1       -4.303   0.218  -1.123  0.00  0.00    +0.000 C 
ATOM     11  C   LIG    1       -4.872   1.181  -2.171  0.00  0.00    +0.020 C 
ATOM     12  C   LIG    1       -6.249   0.689  -2.618  0.00  0.00    +0.020 C 
ATOM     13  C   LIG    1       -7.219   0.715  -1.436  0.00  0.00    +0.020 C 
ATOM     14  C   LIG    1       -6.738  -0.266  -0.361  0.00  0.00    -0.000 C 
ATOM     15  C   LIG    1       -5.309   0.077  -0.003  0.00  0.00    +0.370 C 
ATOM     16  O   LIG    1       -4.979   0.234   1.149  0.00  0.00    -0.450 OA
ENDBRANCH   8  10
BRANCH   1  17
ATOM     17  C   LIG    1       -2.534  -2.197   1.744  0.00  0.00    +0.120 C 
BRANCH  17  23
ATOM     18  C   LIG    1       -4.253  -4.020   1.845  0.00  0.00    +0.180 A 
ATOM     19  C   LIG    1       -4.659  -5.325   1.605  0.00  0.00    -0.110 A 
ATOM     20  C   LIG    1       -3.786  -6.225   1.024  0.00  0.00    +0.090 A 
ATOM     21  C   LIG    1       -2.510  -5.826   0.674  0.00  0.00    -0.110 A 
ATOM     22  C   LIG    1       -2.102  -4.521   0.907  0.00  0.00    +0.180 A 
ATOM     23  C   LIG    1       -2.975  -3.616   1.490  0.00  0.00    -0.130 A 
BRANCH  18  25
ATOM     24  C   LIG    1       -6.410  -3.622   2.761  0.00  0.00    +0.250 C 
ATOM     25  O   LIG    1       -5.110  -3.136   2.422  0.00  0.00    -0.310 OA
ENDBRANCH  18  25
BRANCH  22  26
ATOM     26  O   LIG    1       -0.846  -4.129   0.564  0.00  0.00    -0.310 OA
ATOM     27  C   LIG    1       -0.000  -5.114  -0.033  0.00  0.00    +0.250 C 
ENDBRANCH  22  26
ENDBRANCH  17  23
ENDBRANCH   1  17
TORSDOF 5
