REMARK  Name = ZINCrD00000F5Lki.0
REMARK                            x       y       z     vdW  Elec       q    Type
REMARK                         _______ _______ _______ _____ _____    ______ ____
ROOT
ATOM      1  C   LIG    1       -0.214   1.199   2.430  0.00  0.00    +0.510 C 
ATOM      2  N   LIG    1       -0.706   1.463   1.204  0.00  0.00    -0.730 N 
ATOM      3  H   LIG    1       -1.554   1.924   1.111  0.00  0.00    +0.400 HD
ATOM      4  O   LIG    1        0.847   0.622   2.546  0.00  0.00    -0.520 OA
ENDROOT
BRANCH   1   5
ATOM      5  C   LIG    1       -0.981   1.621   3.657  0.00  0.00    +0.060 C 
BRANCH   5   6
ATOM      6  C   LIG    1       -0.262   1.111   4.908  0.00  0.00    +0.070 C 
BRANCH   6   7
ATOM      7  C   LIG    1        1.065   1.810   5.045  0.00  0.00    -0.070 A 
ATOM      8  C   LIG    1        1.112   3.187   5.165  0.00  0.00    +0.000 A 
ATOM      9  C   LIG    1        2.329   3.828   5.295  0.00  0.00    +0.000 A 
ATOM     10  C   LIG    1        3.501   3.094   5.296  0.00  0.00    +0.000 A 
ATOM     11  C   LIG    1        3.455   1.718   5.171  0.00  0.00    +0.000 A 
ATOM     12  C   LIG    1        2.237   1.077   5.045  0.00  0.00    +0.040 A 
ENDBRANCH   6   7
BRANCH   6  13
ATOM     13  C   LIG    1       -1.120   1.398   6.141  0.00  0.00    +0.170 C 
BRANCH  13  15
ATOM     14  C   LIG    1       -3.351  -0.019   6.013  0.00  0.00    +0.010 C 
ATOM     15  C   LIG    1       -2.361   0.610   6.070  0.00  0.00    -0.190 C 
ENDBRANCH  13  15
ENDBRANCH   6  13
ENDBRANCH   5   6
ENDBRANCH   1   5
BRANCH   2  16
ATOM     16  C   LIG    1        0.039   1.053   0.011  0.00  0.00    +0.320 C 
BRANCH  16  17
ATOM     17  C   LIG    1       -0.722   1.464  -1.223  0.00  0.00    -0.090 A 
ATOM     18  C   LIG    1       -1.481   0.533  -1.908  0.00  0.00    +0.030 A 
ATOM     19  C   LIG    1       -2.184   0.911  -3.037  0.00  0.00    +0.020 A 
ATOM     20  C   LIG    1       -2.119   2.216  -3.488  0.00  0.00    +0.020 A 
ATOM     21  C   LIG    1       -1.355   3.145  -2.805  0.00  0.00    +0.030 A 
ATOM     22  C   LIG    1       -0.657   2.769  -1.673  0.00  0.00    -0.090 A 
BRANCH  22  23
ATOM     23  C   LIG    1        0.175   3.782  -0.930  0.00  0.00    +0.320 C 
BRANCH  23  24
ATOM     24  N   LIG    1        1.583   3.623  -1.300  0.00  0.00    -0.720 N 
ATOM     25  H   LIG    1        1.843   2.939  -1.937  0.00  0.00    +0.400 HD
ATOM     26  C   LIG    1        2.518   4.427  -0.756  0.00  0.00    +0.540 C 
ATOM     27  O   LIG    1        2.192   5.284   0.043  0.00  0.00    -0.540 OA
BRANCH  26  28
ATOM     28  C   LIG    1        3.933   4.267  -1.127  0.00  0.00    -0.090 C 
ATOM     29  C   LIG    1        4.855   5.060  -0.590  0.00  0.00    +0.140 C 
ENDBRANCH  26  28
ENDBRANCH  23  24
ENDBRANCH  22  23
ENDBRANCH  16  17
ENDBRANCH   2  16
TORSDOF 10
