REMARK  Name = ZINCvU0000000BTx.0
REMARK                            x       y       z     vdW  Elec       q    Type
REMARK                         _______ _______ _______ _____ _____    ______ ____
ROOT
ATOM      1  C   LIG    1        0.064   1.030  -2.789  0.00  0.00    +0.020 A 
ATOM      2  N   LIG    1        1.127   0.299  -2.660  0.00  0.00    -0.270 NA
ATOM      3  N   LIG    1        1.717  -0.107  -3.837  0.00  0.00    -0.270 NA
ATOM      4  C   LIG    1        1.133   0.293  -4.924  0.00  0.00    +0.020 A 
ATOM      5  S   LIG    1       -0.279   1.255  -4.501  0.00  0.00    +0.160 S 
ENDROOT
BRANCH   1   6
ATOM      6  S   LIG    1       -0.890   1.687  -1.462  0.00  0.00    +0.050 S 
BRANCH   6   7
ATOM      7  C   LIG    1       -0.013   1.086   0.008  0.00  0.00    +0.100 C 
BRANCH   7   8
ATOM      8  C   LIG    1       -0.729   1.579   1.267  0.00  0.00    +0.230 C 
BRANCH   8   9
ATOM      9  O   LIG    1       -0.038   1.106   2.425  0.00  0.00    -0.280 OA
BRANCH   9  15
ATOM     10  C   LIG    1        0.077   1.023   4.813  0.00  0.00    -0.200 A 
ATOM     11  C   LIG    1       -0.455   1.398   6.053  0.00  0.00    +0.100 A 
ATOM     12  C   LIG    1       -1.590   2.178   6.104  0.00  0.00    -0.040 A 
ATOM     13  C   LIG    1       -2.204   2.598   4.935  0.00  0.00    +0.080 A 
ATOM     14  C   LIG    1       -1.688   2.241   3.705  0.00  0.00    -0.090 A 
ATOM     15  C   LIG    1       -0.546   1.457   3.631  0.00  0.00    +0.180 A 
BRANCH  10  17
ATOM     16  C   LIG    1        1.947  -0.275   6.021  0.00  0.00    +0.060 C 
ATOM     17  C   LIG    1        1.282   0.188   4.749  0.00  0.00    +0.390 C 
ATOM     18  O   LIG    1        1.743  -0.131   3.674  0.00  0.00    -0.440 OA
ENDBRANCH  10  17
ENDBRANCH   9  15
ENDBRANCH   8   9
ENDBRANCH   7   8
ENDBRANCH   6   7
ENDBRANCH   1   6
BRANCH   4  19
ATOM     19  S   LIG    1        1.665  -0.074  -6.563  0.00  0.00    +0.050 S 
BRANCH  19  20
ATOM     20  C   LIG    1        3.144  -1.089  -6.294  0.00  0.00    +0.100 C 
BRANCH  20  21
ATOM     21  C   LIG    1        3.736  -1.497  -7.645  0.00  0.00    +0.230 C 
BRANCH  21  22
ATOM     22  O   LIG    1        4.901  -2.297  -7.434  0.00  0.00    -0.280 OA
BRANCH  22  23
ATOM     23  C   LIG    1        5.549  -2.744  -8.537  0.00  0.00    +0.180 A 
ATOM     24  C   LIG    1        5.078  -2.421  -9.801  0.00  0.00    -0.090 A 
ATOM     25  C   LIG    1        5.740  -2.877 -10.924  0.00  0.00    +0.080 A 
ATOM     26  C   LIG    1        6.877  -3.659 -10.800  0.00  0.00    -0.040 A 
ATOM     27  C   LIG    1        7.362  -3.990  -9.554  0.00  0.00    +0.110 A 
ATOM     28  C   LIG    1        6.706  -3.530  -8.406  0.00  0.00    -0.210 A 
BRANCH  28  29
ATOM     29  C   LIG    1        7.219  -3.874  -7.075  0.00  0.00    +0.390 C 
ATOM     30  O   LIG    1        6.644  -3.478  -6.083  0.00  0.00    -0.440 OA
ATOM     31  C   LIG    1        8.460  -4.719  -6.940  0.00  0.00    +0.070 C 
ENDBRANCH  28  29
ENDBRANCH  22  23
ENDBRANCH  21  22
ENDBRANCH  20  21
ENDBRANCH  19  20
ENDBRANCH   4  19
TORSDOF 12
