REMARK  Name = ZINCrH000004v8qa.0
REMARK                            x       y       z     vdW  Elec       q    Type
REMARK                         _______ _______ _______ _____ _____    ______ ____
ROOT
ATOM      1  O   LIG    1        6.928   1.975   1.198  0.00  0.00    -0.530 OA
ATOM      2  C   LIG    1        5.954   2.365   0.581  0.00  0.00    +0.590 C 
ATOM      3  N   LIG    1        6.009   3.524  -0.104  0.00  0.00    -0.670 N 
ATOM      4  H   LIG    1        5.211   3.876  -0.527  0.00  0.00    +0.420 HD
ENDROOT
BRANCH   2   5
ATOM      5  C   LIG    1        4.720   1.571   0.581  0.00  0.00    -0.370 A 
ATOM      6  C   LIG    1        4.679   0.309   1.189  0.00  0.00    +0.460 A 
ATOM      7  N   LIG    1        3.562  -0.388   1.178  0.00  0.00    -0.540 NA
ATOM      8  C   LIG    1        2.451   0.076   0.599  0.00  0.00    +0.400 A 
ATOM      9  C   LIG    1        1.287  -0.710   0.619  0.00  0.00    +0.030 A 
ATOM     10  C   LIG    1        0.149  -0.241   0.029  0.00  0.00    +0.140 A 
ATOM     11  C   LIG    1        0.159   1.017  -0.587  0.00  0.00    +0.010 A 
ATOM     12  C   LIG    1        1.290   1.759  -0.594  0.00  0.00    +0.290 A 
ATOM     13  N   LIG    1        2.429   1.299  -0.009  0.00  0.00    -0.420 N 
ATOM     14  C   LIG    1        3.542   2.063  -0.033  0.00  0.00    +0.530 A 
ATOM     15  O   LIG    1        3.534   3.156  -0.572  0.00  0.00    -0.520 OA
ENDBRANCH   2   5
BRANCH   3  16
ATOM     16  C   LIG    1        7.220   4.221  -0.204  0.00  0.00    +0.150 A 
ATOM     17  C   LIG    1        7.222   5.609  -0.229  0.00  0.00    +0.000 A 
ATOM     18  C   LIG    1        8.417   6.296  -0.322  0.00  0.00    +0.040 A 
ATOM     19  C   LIG    1        9.614   5.599  -0.403  0.00  0.00    +0.070 A 
ATOM     20  C   LIG    1        9.611   4.211  -0.384  0.00  0.00    +0.010 A 
ATOM     21  C   LIG    1        8.418   3.524  -0.285  0.00  0.00    +0.030 A 
BRANCH  19  22
ATOM     22  O   LIG    1       10.789   6.275  -0.500  0.00  0.00    -0.250 OA
BRANCH  22  23
ATOM     23  C   LIG    1       11.499   6.159  -1.652  0.00  0.00    +0.120 A 
ATOM     24  C   LIG    1       10.969   5.458  -2.727  0.00  0.00    -0.070 A 
ATOM     25  C   LIG    1       11.691   5.345  -3.899  0.00  0.00    +0.050 A 
ATOM     26  C   LIG    1       12.944   5.921  -3.999  0.00  0.00    -0.030 A 
ATOM     27  C   LIG    1       13.476   6.615  -2.928  0.00  0.00    +0.050 A 
ATOM     28  C   LIG    1       12.757   6.735  -1.755  0.00  0.00    -0.020 A 
ENDBRANCH  22  23
ENDBRANCH  19  22
ENDBRANCH   3  16
TORSDOF 4
