REMARK  Name = ZINCqH00000671cr.0
REMARK                            x       y       z     vdW  Elec       q    Type
REMARK                         _______ _______ _______ _____ _____    ______ ____
ROOT
ATOM      1  N   LIG    1        2.808   0.953   0.203  0.00  0.00    -0.470 N 
ATOM      2  C   LIG    1        1.889   1.952   0.038  0.00  0.00    +0.190 A 
ATOM      3  N   LIG    1        2.547   3.041  -0.243  0.00  0.00    -0.280 NA
ATOM      4  N   LIG    1        3.809   2.802  -0.257  0.00  0.00    -0.310 NA
ATOM      5  C   LIG    1        4.026   1.535   0.006  0.00  0.00    +0.350 A 
ENDROOT
BRANCH   2   6
ATOM      6  C   LIG    1        0.393   1.817   0.154  0.00  0.00    +0.090 C 
ATOM      7  C   LIG    1       -0.134   2.751   1.214  0.00  0.00    +0.060 C 
ATOM      8  C   LIG    1       -1.191   1.906   2.031  0.00  0.00    +0.090 C 
ATOM      9  C   LIG    1       -1.751   1.041   0.913  0.00  0.00    -0.080 C 
ATOM     10  C   LIG    1       -2.420   1.581  -0.327  0.00  0.00    -0.030 C 
ATOM     11  C   LIG    1       -1.465   1.438  -1.534  0.00  0.00    +0.090 C 
ATOM     12  C   LIG    1       -3.075   0.525   0.503  0.00  0.00    +0.250 C 
ATOM     13  F   LIG    1       -3.132  -0.768  -0.028  0.00  0.00    -0.160 F 
ATOM     14  F   LIG    1       -4.176   0.907   1.277  0.00  0.00    -0.160 F 
ATOM     15  C   LIG    1       -0.271   2.240  -1.137  0.00  0.00    +0.030 C 
ENDBRANCH   2   6
BRANCH   1  17
ATOM     16  C   LIG    1        2.224  -1.217  -0.762  0.00  0.00    +0.040 C 
ATOM     17  C   LIG    1        2.540  -0.451   0.524  0.00  0.00    +0.300 C 
ENDBRANCH   1  17
BRANCH   5  18
ATOM     18  N   LIG    1        5.260   0.907   0.072  0.00  0.00    -0.450 N 
ATOM     19  C   LIG    1        5.507   0.106  -1.135  0.00  0.00    +0.240 C 
BRANCH  18  20
ATOM     20  C   LIG    1        6.337   1.882   0.287  0.00  0.00    +0.330 C 
BRANCH  20  21
ATOM     21  C   LIG    1        7.620   1.154   0.596  0.00  0.00    +0.020 A 
ATOM     22  N   LIG    1        8.014   0.732   1.763  0.00  0.00    -0.340 NA
ATOM     23  O   LIG    1        9.088   0.179   1.696  0.00  0.00    +0.110 OA
ATOM     24  C   LIG    1        9.561   0.172   0.442  0.00  0.00    -0.030 A 
ATOM     25  C   LIG    1       10.866  -0.420  -0.027  0.00  0.00    +0.190 C 
ATOM     26  C   LIG    1        8.635   0.800  -0.321  0.00  0.00    -0.060 A 
ENDBRANCH  20  21
ENDBRANCH  18  20
ENDBRANCH   5  18
TORSDOF 5
