REMARK  Name = ZINCrH000004pOGu.0
REMARK                            x       y       z     vdW  Elec       q    Type
REMARK                         _______ _______ _______ _____ _____    ______ ____
ROOT
ATOM      1  C   LIG    1        7.206  -2.621  -0.082  0.00  0.00    +0.100 A 
ATOM      2  C   LIG    1        7.841  -1.447  -0.081  0.00  0.00    -0.130 A 
ATOM      3  S   LIG    1        6.628  -0.170  -0.063  0.00  0.00    +0.250 S 
ATOM      4  C   LIG    1        5.381  -1.339  -0.057  0.00  0.00    +0.240 A 
ATOM      5  N   LIG    1        5.889  -2.532  -0.063  0.00  0.00    -0.490 NA
ENDROOT
BRANCH   4   6
ATOM      6  N   LIG    1        4.022  -1.053  -0.042  0.00  0.00    -0.610 N 
ATOM      7  H   LIG    1        3.374  -1.776  -0.040  0.00  0.00    +0.430 HD
ATOM      8  C   LIG    1        3.603   0.228  -0.032  0.00  0.00    +0.600 C 
ATOM      9  O   LIG    1        4.415   1.133  -0.035  0.00  0.00    -0.500 OA
BRANCH   8  10
ATOM     10  C   LIG    1        2.162   0.531  -0.016  0.00  0.00    +0.010 A 
ATOM     11  C   LIG    1        1.688   1.797  -0.004  0.00  0.00    -0.010 A 
ATOM     12  S   LIG    1       -0.022   1.756   0.012  0.00  0.00    +0.260 S 
ATOM     13  C   LIG    1        0.002  -0.004   0.002  0.00  0.00    +0.110 A 
ATOM     14  N   LIG    1        1.236  -0.418  -0.012  0.00  0.00    -0.430 NA
BRANCH  13  15
ATOM     15  C   LIG    1       -1.187  -0.871   0.009  0.00  0.00    +0.040 A 
ATOM     16  C   LIG    1       -2.483  -0.452   0.024  0.00  0.00    +0.000 A 
ATOM     17  C   LIG    1       -3.283  -1.609   0.025  0.00  0.00    -0.050 A 
ATOM     18  C   LIG    1       -2.448  -2.668   0.011  0.00  0.00    +0.200 A 
ATOM     19  O   LIG    1       -1.183  -2.219  -0.004  0.00  0.00    -0.150 OA
ENDBRANCH  13  15
ENDBRANCH   8  10
ENDBRANCH   4   6
BRANCH   1  20
ATOM     20  C   LIG    1        7.933  -3.940  -0.095  0.00  0.00    +0.280 C 
BRANCH  20  24
ATOM     21  C   LIG    1        7.239  -6.329   3.353  0.00  0.00    +0.010 C 
ATOM     22  C   LIG    1        8.642  -6.315   2.742  0.00  0.00    +0.200 C 
ATOM     23  C   LIG    1        8.565  -5.821   1.295  0.00  0.00    +0.150 C 
ATOM     24  N   LIG    1        8.076  -4.434   1.281  0.00  0.00    -0.530 NA
ATOM     25  C   LIG    1        8.963  -3.562   2.065  0.00  0.00    +0.150 C 
ATOM     26  C   LIG    1        9.036  -4.078   3.504  0.00  0.00    +0.160 C 
ATOM     27  C   LIG    1       10.019  -3.222   4.306  0.00  0.00    +0.050 C 
ATOM     28  O   LIG    1        9.483  -5.437   3.496  0.00  0.00    -0.380 OA
ENDBRANCH  20  24
ENDBRANCH   1  20
TORSDOF 5
