REMARK  Name = ZINCrH000004q4is.0
REMARK                            x       y       z     vdW  Elec       q    Type
REMARK                         _______ _______ _______ _____ _____    ______ ____
ROOT
ATOM      1  C   LIG    1       -1.730   4.206   0.042  0.00  0.00    +0.180 A 
ATOM      2  C   LIG    1       -3.067   4.073  -0.050  0.00  0.00    -0.120 A 
ATOM      3  S   LIG    1       -3.779   5.683   0.010  0.00  0.00    +0.240 S 
ATOM      4  C   LIG    1       -2.226   6.382   0.144  0.00  0.00    +0.240 A 
ATOM      5  N   LIG    1       -1.315   5.462   0.143  0.00  0.00    -0.500 NA
ENDROOT
BRANCH   1   8
ATOM      6  C   LIG    1        0.643   3.749   1.995  0.00  0.00    +0.150 C 
ATOM      7  C   LIG    1        0.236   2.834   0.869  0.00  0.00    +0.120 A 
ATOM      8  C   LIG    1       -0.802   3.048   0.027  0.00  0.00    -0.120 A 
ATOM      9  C   LIG    1       -0.836   1.908  -0.903  0.00  0.00    -0.080 A 
ATOM     10  C   LIG    1       -1.657   1.556  -1.972  0.00  0.00    +0.050 A 
ATOM     11  C   LIG    1       -1.422   0.396  -2.657  0.00  0.00    -0.020 A 
ATOM     12  C   LIG    1       -0.370  -0.434  -2.295  0.00  0.00    +0.030 A 
ATOM     13  C   LIG    1        0.454  -0.104  -1.241  0.00  0.00    -0.010 A 
ATOM     14  C   LIG    1        0.231   1.072  -0.531  0.00  0.00    +0.100 A 
ATOM     15  N   LIG    1        0.862   1.662   0.542  0.00  0.00    -0.590 N 
ATOM     16  H   LIG    1        1.635   1.298   1.002  0.00  0.00    +0.420 HD
ENDBRANCH   1   8
BRANCH   4  17
ATOM     17  N   LIG    1       -1.975   7.745   0.241  0.00  0.00    -0.610 N 
ATOM     18  H   LIG    1       -1.063   8.067   0.315  0.00  0.00    +0.430 HD
ATOM     19  C   LIG    1       -3.000   8.621   0.234  0.00  0.00    +0.530 C 
ATOM     20  O   LIG    1       -4.141   8.219   0.142  0.00  0.00    -0.490 OA
BRANCH  19  21
ATOM     21  C   LIG    1       -2.729  10.099   0.339  0.00  0.00    +0.120 C 
ATOM     22  C   LIG    1       -4.053  10.872   0.307  0.00  0.00    +0.080 C 
ATOM     23  C   LIG    1       -3.763  12.365   0.123  0.00  0.00    +0.050 C 
ATOM     24  C   LIG    1       -3.220  12.610  -1.290  0.00  0.00    +0.310 C 
ATOM     25  N   LIG    1       -2.130  11.668  -1.545  0.00  0.00    -0.360 N 
ATOM     26  N   LIG    1       -1.147  11.729  -2.536  0.00  0.00    -0.300 NA
ATOM     27  C   LIG    1       -0.388  10.673  -2.376  0.00  0.00    +0.420 A 
ATOM     28  N   LIG    1       -0.846   9.962  -1.343  0.00  0.00    -0.530 NA
ATOM     29  C   LIG    1       -1.893  10.549  -0.835  0.00  0.00    +0.270 A 
ENDBRANCH  19  21
ENDBRANCH   4  17
TORSDOF 3
