REMARK  Name = ZINCrD00000F5LrF.0
REMARK                            x       y       z     vdW  Elec       q    Type
REMARK                         _______ _______ _______ _____ _____    ______ ____
ROOT
ATOM      1  C   LIG    1        1.248   1.716  -0.001  0.00  0.00    +0.310 C 
ENDROOT
BRANCH   1   3
ATOM      2  N   LIG    1        3.646   1.265   0.406  0.00  0.00    -0.600 N 
ATOM      3  C   LIG    1        2.385   0.791   0.351  0.00  0.00    +0.520 C 
ATOM      4  O   LIG    1        2.166  -0.378   0.586  0.00  0.00    -0.520 OA
BRANCH   2   5
ATOM      5  C   LIG    1        3.910   2.678   0.122  0.00  0.00    +0.270 C 
BRANCH   5   7
ATOM      6  C   LIG    1        4.101   4.958   1.125  0.00  0.00    +0.030 C 
ATOM      7  C   LIG    1        3.825   3.483   1.421  0.00  0.00    -0.010 C 
ENDBRANCH   5   7
ENDBRANCH   2   5
BRANCH   2   8
ATOM      8  C   LIG    1        4.751   0.367   0.748  0.00  0.00    +0.340 C 
BRANCH   8   9
ATOM      9  C   LIG    1        5.305  -0.250  -0.511  0.00  0.00    -0.110 A 
ATOM     10  C   LIG    1        4.792  -1.445  -0.979  0.00  0.00    +0.030 A 
ATOM     11  C   LIG    1        5.297  -2.008  -2.136  0.00  0.00    +0.000 A 
ATOM     12  C   LIG    1        6.322  -1.381  -2.819  0.00  0.00    +0.010 A 
ATOM     13  C   LIG    1        6.840  -0.189  -2.348  0.00  0.00    +0.000 A 
ATOM     14  C   LIG    1        6.331   0.377  -1.194  0.00  0.00    +0.010 A 
ENDBRANCH   8   9
ENDBRANCH   2   8
ENDBRANCH   1   3
BRANCH   1  15
ATOM     15  N   LIG    1       -0.011   0.966   0.007  0.00  0.00    -1.110 NA
ATOM     16  H   LIG    1        0.002  -0.004   0.002  0.00  0.00    +0.430 HD
BRANCH  15  17
ATOM     17  S   LIG    1       -1.456   1.774   0.019  0.00  0.00    +2.690 S 
ATOM     18  O   LIG    1       -1.361   2.752   1.045  0.00  0.00    -0.950 OA
ATOM     19  O   LIG    1       -2.472   0.781  -0.017  0.00  0.00    -0.960 OA
BRANCH  17  20
ATOM     20  C   LIG    1       -1.571   2.658  -1.501  0.00  0.00    -0.600 C 
ATOM     21  C   LIG    1       -2.511   2.342  -2.382  0.00  0.00    +0.220 C 
BRANCH  21  22
ATOM     22  C   LIG    1       -2.607   3.084  -3.657  0.00  0.00    -0.110 A 
ATOM     23  C   LIG    1       -1.715   4.120  -3.935  0.00  0.00    +0.050 A 
ATOM     24  C   LIG    1       -1.807   4.804  -5.129  0.00  0.00    +0.000 A 
ATOM     25  C   LIG    1       -2.789   4.473  -6.046  0.00  0.00    -0.060 A 
ATOM     26  C   LIG    1       -3.680   3.450  -5.775  0.00  0.00    +0.000 A 
ATOM     27  C   LIG    1       -2.887   5.229  -7.346  0.00  0.00    +0.100 C 
ATOM     28  C   LIG    1       -3.595   2.754  -4.586  0.00  0.00    +0.050 A 
ENDBRANCH  21  22
ENDBRANCH  17  20
ENDBRANCH  15  17
ENDBRANCH   1  15
TORSDOF 9
