REMARK  Name = ZINCrH000004qZAI.0
REMARK                            x       y       z     vdW  Elec       q    Type
REMARK                         _______ _______ _______ _____ _____    ______ ____
ROOT
ATOM      1  C   LIG    1        1.156   6.860  -3.058  0.00  0.00    +0.170 C 
ATOM      2  N   LIG    1        1.115   6.095  -2.011  0.00  0.00    -0.170 NA
ATOM      3  N   LIG    1       -0.089   5.843  -1.347  0.00  0.00    -0.440 N 
ATOM      4  C   LIG    1       -1.267   6.049  -1.968  0.00  0.00    +0.500 C 
ATOM      5  C   LIG    1       -1.286   6.571  -3.382  0.00  0.00    +0.100 C 
ATOM      6  O   LIG    1       -2.309   5.819  -1.390  0.00  0.00    -0.500 OA
ATOM      7  C   LIG    1       -0.093   7.506  -3.593  0.00  0.00    +0.120 C 
ENDROOT
BRANCH   1  11
ATOM      8  C   LIG    1        4.492   7.092  -4.282  0.00  0.00    +0.220 A 
ATOM      9  N   LIG    1        3.820   7.844  -5.116  0.00  0.00    -0.360 NA
ATOM     10  O   LIG    1        2.643   7.855  -4.821  0.00  0.00    +0.110 OA
ATOM     11  C   LIG    1        2.439   7.098  -3.730  0.00  0.00    +0.230 A 
ATOM     12  N   LIG    1        3.616   6.604  -3.381  0.00  0.00    -0.420 NA
BRANCH   8  17
ATOM     13  C   LIG    1       10.159   6.060  -4.425  0.00  0.00    +0.110 C 
ATOM     14  C   LIG    1        8.677   6.330  -4.389  0.00  0.00    -0.090 A 
ATOM     15  C   LIG    1        7.896   5.758  -3.401  0.00  0.00    +0.050 A 
ATOM     16  C   LIG    1        6.539   6.007  -3.359  0.00  0.00    +0.070 A 
ATOM     17  C   LIG    1        5.952   6.827  -4.320  0.00  0.00    -0.010 A 
ATOM     18  C   LIG    1        6.741   7.402  -5.314  0.00  0.00    +0.030 A 
ATOM     19  C   LIG    1        8.100   7.152  -5.344  0.00  0.00    +0.100 A 
ATOM     20  F   LIG    1        8.868   7.708  -6.306  0.00  0.00    -0.130 F 
ENDBRANCH   8  17
ENDBRANCH   1  11
BRANCH   3  21
ATOM     21  C   LIG    1       -0.070   5.347   0.032  0.00  0.00    +0.380 C 
BRANCH  21  22
ATOM     22  C   LIG    1       -0.050   3.840   0.023  0.00  0.00    -0.120 A 
ATOM     23  C   LIG    1        1.156   3.165   0.008  0.00  0.00    +0.040 A 
ATOM     24  C   LIG    1        1.175   1.783   0.000  0.00  0.00    -0.010 A 
ATOM     25  C   LIG    1       -0.013   1.076   0.008  0.00  0.00    +0.010 A 
ATOM     26  C   LIG    1       -1.219   1.751   0.017  0.00  0.00    -0.010 A 
ATOM     27  C   LIG    1       -1.238   3.133   0.029  0.00  0.00    +0.030 A 
ENDBRANCH  21  22
ENDBRANCH   3  21
TORSDOF 4
