REMARK  Name = ZINCbu0000000GBL.0
REMARK                            x       y       z     vdW  Elec       q    Type
REMARK                         _______ _______ _______ _____ _____    ______ ____
ROOT
ATOM      1  C   LIG    1       -1.436   3.522   2.483  0.00  0.00    -0.020 C 
ATOM      2  C   LIG    1       -2.905   3.097   2.434  0.00  0.00    +0.040 C 
ENDROOT
BRANCH   1   3
ATOM      3  C   LIG    1       -1.349   5.048   2.555  0.00  0.00    +0.000 C 
ATOM      4  C   LIG    1        0.121   5.472   2.605  0.00  0.00    +0.010 C 
ATOM      5  C   LIG    1        0.208   6.998   2.677  0.00  0.00    +0.010 C 
ATOM      6  C   LIG    1       -0.508   7.491   3.936  0.00  0.00    +0.010 C 
ATOM      7  C   LIG    1       -1.977   7.067   3.886  0.00  0.00    +0.010 C 
ATOM      8  C   LIG    1       -2.065   5.541   3.814  0.00  0.00    +0.020 C 
ENDBRANCH   1   3
BRANCH   1   9
ATOM      9  C   LIG    1       -0.720   3.028   1.225  0.00  0.00    +0.260 C 
BRANCH   9  11
ATOM     10  C   LIG    1       -0.013   1.086   0.008  0.00  0.00    +0.320 C 
ATOM     11  N   LIG    1       -0.700   1.560   1.217  0.00  0.00    -0.510 N 
ATOM     12  H   LIG    1       -0.212   1.225   2.034  0.00  0.00    +0.430 HD
ATOM     13  H   LIG    1       -1.647   1.210   1.224  0.00  0.00    +0.430 HD
ENDBRANCH   9  11
ENDBRANCH   1   9
TORSDOF 3
