REMARK  Name = ZINCnE000001QHH0.0
REMARK                            x       y       z     vdW  Elec       q    Type
REMARK                         _______ _______ _______ _____ _____    ______ ____
ROOT
ATOM      1  N   LIG    1        0.689   2.733  -3.407  0.00  0.00    -0.660 NA
ATOM      2  C   LIG    1        0.226   3.503  -2.404  0.00  0.00    +0.660 C 
ATOM      3  N   LIG    1       -0.540   2.961  -1.436  0.00  0.00    -0.620 N 
ATOM      4  C   LIG    1       -0.878   1.532  -1.462  0.00  0.00    +0.280 C 
ATOM      5  C   LIG    1       -0.485   0.908  -0.120  0.00  0.00    +0.010 C 
ATOM      6  C   LIG    1       -1.149   1.690   1.016  0.00  0.00    -0.050 C 
ATOM      7  C   LIG    1       -0.658   3.139   0.994  0.00  0.00    +0.030 C 
ATOM      8  C   LIG    1       -0.785   1.048   2.357  0.00  0.00    +0.010 C 
ATOM      9  C   LIG    1       -2.667   1.664   0.834  0.00  0.00    +0.020 C 
ATOM     10  C   LIG    1       -1.053   3.788  -0.336  0.00  0.00    +0.290 C 
ATOM     11  O   LIG    1        0.498   4.688  -2.371  0.00  0.00    -0.650 OA
ENDROOT
BRANCH   1  16
ATOM     12  C   LIG    1        3.450   3.380  -7.392  0.00  0.00    +0.170 C 
ATOM     13  C   LIG    1        2.673   3.595  -6.119  0.00  0.00    +0.150 A 
ATOM     14  N   LIG    1        2.538   4.721  -5.483  0.00  0.00    -0.450 NA
ATOM     15  O   LIG    1        1.854   4.569  -4.493  0.00  0.00    +0.000 OA
ATOM     16  C   LIG    1        1.474   3.288  -4.398  0.00  0.00    +0.440 A 
ATOM     17  N   LIG    1        1.999   2.658  -5.432  0.00  0.00    -0.570 NA
ENDBRANCH   1  16
BRANCH   7  18
ATOM     18  C   LIG    1       -1.287   3.901   2.132  0.00  0.00    -0.060 A 
ATOM     19  C   LIG    1       -2.612   4.288   2.056  0.00  0.00    +0.010 A 
ATOM     20  C   LIG    1       -3.191   4.982   3.102  0.00  0.00    +0.000 A 
ATOM     21  C   LIG    1       -2.442   5.298   4.220  0.00  0.00    -0.010 A 
ATOM     22  C   LIG    1       -1.115   4.915   4.294  0.00  0.00    +0.000 A 
ATOM     23  C   LIG    1       -0.538   4.217   3.251  0.00  0.00    +0.000 A 
ENDBRANCH   7  18
TORSDOF 2
