REMARK  Name = ZINCpk000000pJCE.0
REMARK                            x       y       z     vdW  Elec       q    Type
REMARK                         _______ _______ _______ _____ _____    ______ ____
ROOT
ATOM      1  C   LIG    1       -0.927   3.628   0.849  0.00  0.00    +0.480 C 
ATOM      2  N   LIG    1       -1.751   4.691   0.947  0.00  0.00    -0.540 N 
ATOM      3  C   LIG    1       -1.294   5.934   1.583  0.00  0.00    +0.290 C 
ATOM      4  C   LIG    1       -1.744   7.105   0.700  0.00  0.00    -0.010 C 
ATOM      5  C   LIG    1       -3.272   7.134   0.659  0.00  0.00    +0.110 C 
ATOM      6  C   LIG    1       -3.815   5.779   0.289  0.00  0.00    -0.080 A 
ATOM      7  C   LIG    1       -5.102   5.688  -0.216  0.00  0.00    +0.040 A 
ATOM      8  C   LIG    1       -5.631   4.460  -0.563  0.00  0.00    +0.030 A 
ATOM      9  C   LIG    1       -4.878   3.311  -0.408  0.00  0.00    +0.010 A 
ATOM     10  C   LIG    1       -3.592   3.392   0.094  0.00  0.00    +0.080 A 
ATOM     11  F   LIG    1       -2.855   2.270   0.246  0.00  0.00    -0.100 F 
ATOM     12  C   LIG    1       -3.057   4.631   0.438  0.00  0.00    +0.120 A 
ATOM     13  O   LIG    1       -1.153   2.759   0.034  0.00  0.00    -0.460 OA
ENDROOT
BRANCH   1  14
ATOM     14  C   LIG    1        0.274   3.521   1.752  0.00  0.00    +0.290 C 
BRANCH  14  15
ATOM     15  N   LIG    1        1.069   2.351   1.370  0.00  0.00    -0.360 N 
ATOM     16  C   LIG    1        0.601   1.173   0.914  0.00  0.00    +0.550 A 
ATOM     17  N   LIG    1        1.617   0.386   0.690  0.00  0.00    -0.510 NA
ATOM     18  C   LIG    1        2.760   1.022   0.991  0.00  0.00    +0.300 A 
ATOM     19  N   LIG    1        2.468   2.235   1.413  0.00  0.00    -0.260 NA
BRANCH  18  20
ATOM     20  C   LIG    1        4.077   0.474   0.872  0.00  0.00    +0.310 C 
ATOM     21  N   LIG    1        5.123   0.039   0.777  0.00  0.00    -0.360 NA
ENDBRANCH  18  20
ENDBRANCH  14  15
BRANCH  14  23
ATOM     22  C   LIG    1        1.025   3.398   4.132  0.00  0.00    +0.040 C 
ATOM     23  C   LIG    1       -0.190   3.370   3.202  0.00  0.00    +0.050 C 
ENDBRANCH  14  23
ENDBRANCH   1  14
BRANCH   4  24
ATOM     24  C   LIG    1       -1.220   8.419   1.284  0.00  0.00    +0.180 C 
BRANCH  24  25
ATOM     25  O   LIG    1       -1.541   9.495   0.400  0.00  0.00    -0.570 OA
ATOM     26  H   LIG    1       -1.238  10.360   0.708  0.00  0.00    +0.390 HD
ENDBRANCH  24  25
ENDBRANCH   4  24
TORSDOF 6
