REMARK  Name = ZINCrH00000tj1oe.0
REMARK                            x       y       z     vdW  Elec       q    Type
REMARK                         _______ _______ _______ _____ _____    ______ ____
ROOT
ATOM      1  N   LIG    1        1.362   2.017  -0.012  0.00  0.00    -0.720 N 
ATOM      2  H   LIG    1        1.781   2.262  -0.852  0.00  0.00    +0.420 HD
ENDROOT
BRANCH   1  12
ATOM      3  C   LIG    1        3.380   2.624   1.173  0.00  0.00    +0.040 A 
ATOM      4  C   LIG    1        4.075   2.751   2.365  0.00  0.00    +0.020 A 
ATOM      5  C   LIG    1        3.473   2.404   3.556  0.00  0.00    -0.190 A 
ATOM      6  C   LIG    1        2.172   1.918   3.583  0.00  0.00    +0.120 A 
ATOM      7  O   LIG    1        1.782   1.625   4.855  0.00  0.00    -0.300 OA
ATOM      8  C   LIG    1        2.638   2.311   5.783  0.00  0.00    +0.170 C 
ATOM      9  C   LIG    1        2.844   1.478   7.049  0.00  0.00    +0.070 C 
ATOM     10  C   LIG    1        1.471   1.799   2.386  0.00  0.00    -0.060 A 
ATOM     11  C   LIG    1        3.960   2.448   4.992  0.00  0.00    +0.080 C 
ATOM     12  C   LIG    1        2.072   2.144   1.188  0.00  0.00    +0.230 A 
BRANCH   3  13
ATOM     13  O   LIG    1        3.971   2.965  -0.004  0.00  0.00    -0.320 OA
BRANCH  13  15
ATOM     14  C   LIG    1        5.806   3.778  -1.350  0.00  0.00    +0.070 C 
ATOM     15  C   LIG    1        5.314   3.449   0.061  0.00  0.00    +0.180 C 
ENDBRANCH  13  15
ENDBRANCH   3  13
ENDBRANCH   1  12
BRANCH   1  16
ATOM     16  C   LIG    1       -0.013   1.512   0.001  0.00  0.00    +0.250 C 
ATOM     17  C   LIG    1        0.004  -0.017  -0.017  0.00  0.00    +0.050 C 
BRANCH  16  18
ATOM     18  C   LIG    1       -0.746   2.021  -1.214  0.00  0.00    +0.520 C 
ATOM     19  N   LIG    1       -2.035   1.683  -1.413  0.00  0.00    -0.670 N 
ATOM     20  H   LIG    1       -2.473   1.061  -0.811  0.00  0.00    +0.410 HD
ATOM     21  O   LIG    1       -0.175   2.734  -2.012  0.00  0.00    -0.500 OA
BRANCH  19  22
ATOM     22  C   LIG    1       -2.741   2.228  -2.485  0.00  0.00    +0.190 A 
ATOM     23  C   LIG    1       -2.094   2.486  -3.686  0.00  0.00    +0.030 A 
ATOM     24  C   LIG    1       -2.796   3.020  -4.749  0.00  0.00    +0.070 A 
ATOM     25  C   LIG    1       -4.144   3.312  -4.623  0.00  0.00    +0.010 A 
ATOM     26  C   LIG    1       -4.801   3.068  -3.436  0.00  0.00    +0.090 A 
ATOM     27  C   LIG    1       -4.106   2.522  -2.354  0.00  0.00    -0.060 A 
BRANCH  27  28
ATOM     28  C   LIG    1       -4.783   2.265  -1.119  0.00  0.00    +0.250 C 
ATOM     29  N   LIG    1       -5.320   2.061  -0.139  0.00  0.00    -0.410 NA
ENDBRANCH  27  28
ENDBRANCH  19  22
ENDBRANCH  16  18
ENDBRANCH   1  16
TORSDOF 7
