REMARK  Name = ZINCrD0000072549.0
REMARK                            x       y       z     vdW  Elec       q    Type
REMARK                         _______ _______ _______ _____ _____    ______ ____
ROOT
ATOM      1  C   LIG    1       -3.380   0.280   3.560  0.00  0.00    +0.450 A 
ATOM      2  N   LIG    1       -3.715   0.227   4.840  0.00  0.00    -0.530 NA
ATOM      3  C   LIG    1       -3.011   0.845   5.768  0.00  0.00    +0.340 A 
ATOM      4  C   LIG    1       -1.881   1.574   5.444  0.00  0.00    -0.100 A 
ATOM      5  C   LIG    1       -1.480   1.659   4.123  0.00  0.00    +0.140 A 
ATOM      6  C   LIG    1       -2.241   0.996   3.153  0.00  0.00    -0.260 A 
ENDROOT
BRANCH   6   7
ATOM      7  C   LIG    1       -1.859   1.054   1.730  0.00  0.00    +0.580 C 
ATOM      8  N   LIG    1       -0.839   1.842   1.338  0.00  0.00    -0.720 N 
ATOM      9  H   LIG    1       -0.356   2.372   1.991  0.00  0.00    +0.400 HD
ATOM     10  O   LIG    1       -2.464   0.389   0.911  0.00  0.00    -0.540 OA
BRANCH   8  11
ATOM     11  C   LIG    1       -0.459   1.899  -0.076  0.00  0.00    +0.240 C 
ATOM     12  C   LIG    1       -1.298   2.985  -0.818  0.00  0.00    +0.040 C 
ATOM     13  C   LIG    1       -0.269   3.849  -1.487  0.00  0.00    -0.050 C 
ATOM     14  C   LIG    1       -0.351   5.340  -1.694  0.00  0.00    +0.230 C 
ATOM     15  O   LIG    1        1.055   5.724  -1.795  0.00  0.00    -0.390 OA
ATOM     16  C   LIG    1        1.868   4.743  -1.091  0.00  0.00    +0.220 C 
ATOM     17  C   LIG    1        0.885   3.837  -0.406  0.00  0.00    -0.070 C 
ATOM     18  C   LIG    1        1.033   2.347  -0.217  0.00  0.00    +0.060 C 
ENDBRANCH   8  11
ENDBRANCH   6   7
BRANCH   1  19
ATOM     19  N   LIG    1       -4.151  -0.378   2.619  0.00  0.00    -0.640 N 
ATOM     20  H   LIG    1       -3.850  -0.435   1.699  0.00  0.00    +0.430 HD
BRANCH  19  24
ATOM     21  C   LIG    1       -7.771  -2.117   3.739  0.00  0.00    +0.110 A 
ATOM     22  C   LIG    1       -6.992  -2.710   2.757  0.00  0.00    +0.000 A 
ATOM     23  C   LIG    1       -5.793  -2.135   2.385  0.00  0.00    +0.020 A 
ATOM     24  C   LIG    1       -5.367  -0.962   2.995  0.00  0.00    +0.120 A 
ATOM     25  C   LIG    1       -6.145  -0.372   3.983  0.00  0.00    +0.050 A 
ATOM     26  C   LIG    1       -7.347  -0.946   4.349  0.00  0.00    -0.060 A 
BRANCH  21  27
ATOM     27  O   LIG    1       -8.952  -2.684   4.104  0.00  0.00    -0.320 OA
BRANCH  27  29
ATOM     28  C   LIG    1      -10.990  -2.800   5.397  0.00  0.00    +0.070 C 
ATOM     29  C   LIG    1       -9.703  -2.020   5.122  0.00  0.00    +0.170 C 
ENDBRANCH  27  29
ENDBRANCH  21  27
ENDBRANCH  19  24
ENDBRANCH   1  19
TORSDOF 6
