REMARK  Name = ZINCrD00000F5Lva.0
REMARK                            x       y       z     vdW  Elec       q    Type
REMARK                         _______ _______ _______ _____ _____    ______ ____
ROOT
ATOM      1  C   LIG    1       -4.910   5.991  -0.187  0.00  0.00    -0.050 A 
ATOM      2  C   LIG    1       -3.569   6.349  -0.165  0.00  0.00    -0.080 A 
ATOM      3  C   LIG    1       -2.921   7.710  -0.238  0.00  0.00    +0.100 C 
ATOM      4  C   LIG    1       -1.407   7.471  -0.162  0.00  0.00    +0.100 C 
ATOM      5  C   LIG    1       -1.240   5.975  -0.058  0.00  0.00    -0.100 C 
ATOM      6  C   LIG    1       -0.070   5.319   0.029  0.00  0.00    +0.100 C 
ATOM      7  C   LIG    1       -2.580   5.357  -0.061  0.00  0.00    +0.190 A 
ATOM      8  N   LIG    1       -2.904   4.071   0.018  0.00  0.00    -0.440 NA
ATOM      9  C   LIG    1       -4.162   3.639   0.004  0.00  0.00    +0.140 A 
ATOM     10  C   LIG    1       -4.460   2.266   0.091  0.00  0.00    +0.060 A 
ATOM     11  C   LIG    1       -5.758   1.854   0.076  0.00  0.00    +0.040 A 
ATOM     12  C   LIG    1       -6.802   2.770  -0.025  0.00  0.00    +0.030 A 
ATOM     13  C   LIG    1       -6.551   4.109  -0.111  0.00  0.00    +0.020 A 
ATOM     14  C   LIG    1       -5.230   4.566  -0.098  0.00  0.00    -0.060 A 
ENDROOT
BRANCH   6  15
ATOM     15  C   LIG    1       -0.043   3.848  -0.050  0.00  0.00    -0.080 A 
ATOM     16  C   LIG    1        0.800   3.114   0.788  0.00  0.00    +0.020 A 
ATOM     17  C   LIG    1        0.820   1.737   0.708  0.00  0.00    -0.010 A 
ATOM     18  C   LIG    1        0.006   1.082  -0.200  0.00  0.00    +0.010 A 
ATOM     19  C   LIG    1       -0.828   1.802  -1.037  0.00  0.00    -0.010 A 
ATOM     20  C   LIG    1       -0.863   3.179  -0.964  0.00  0.00    +0.070 A 
ENDBRANCH   6  15
BRANCH   1  21
ATOM     21  C   LIG    1       -5.974   7.010  -0.295  0.00  0.00    +0.520 C 
ATOM     22  O   LIG    1       -6.447   7.503   0.709  0.00  0.00    -0.480 OA
BRANCH  21  23
ATOM     23  O   LIG    1       -6.419   7.393  -1.508  0.00  0.00    -0.320 OA
BRANCH  23  24
ATOM     24  C   LIG    1       -7.466   8.399  -1.538  0.00  0.00    +0.260 C 
BRANCH  24  28
ATOM     25  N   LIG    1       -8.790   9.608  -3.242  0.00  0.00    -0.850 N 
ATOM     26  H   LIG    1       -9.026   9.801  -4.163  0.00  0.00    +0.410 HD
ATOM     27  H   LIG    1       -9.242  10.070  -2.519  0.00  0.00    +0.400 HD
ATOM     28  C   LIG    1       -7.833   8.699  -2.969  0.00  0.00    +0.520 C 
ATOM     29  O   LIG    1       -7.269   8.122  -3.873  0.00  0.00    -0.520 OA
ENDBRANCH  24  28
ENDBRANCH  23  24
ENDBRANCH  21  23
ENDBRANCH   1  21
TORSDOF 5
