REMARK  Name = ZINCpk000000mXam.0
REMARK                            x       y       z     vdW  Elec       q    Type
REMARK                         _______ _______ _______ _____ _____    ______ ____
ROOT
ATOM      1  C   LIG    1       -0.708   1.558  -1.264  0.00  0.00    +0.060 C 
ENDROOT
BRANCH   1   2
ATOM      2  C   LIG    1       -0.030   0.940  -2.460  0.00  0.00    +0.510 C 
ATOM      3  N   LIG    1       -0.476   1.212  -3.702  0.00  0.00    -0.730 N 
ATOM      4  H   LIG    1       -1.232   1.806  -3.827  0.00  0.00    +0.400 HD
ATOM      5  O   LIG    1        0.916   0.197  -2.304  0.00  0.00    -0.520 OA
BRANCH   3   6
ATOM      6  C   LIG    1        0.183   0.610  -4.864  0.00  0.00    +0.410 C 
BRANCH   6   7
ATOM      7  C   LIG    1       -0.502   1.072  -6.125  0.00  0.00    +0.170 A 
ATOM      8  N   LIG    1       -0.200   2.130  -6.827  0.00  0.00    -0.260 NA
ATOM      9  N   LIG    1       -0.991   2.219  -7.837  0.00  0.00    -0.280 NA
ATOM     10  C   LIG    1       -1.834   1.221  -7.824  0.00  0.00    +0.170 A 
ATOM     11  C   LIG    1       -3.001   0.621  -8.577  0.00  0.00    +0.180 C 
ATOM     12  C   LIG    1       -3.641  -0.361  -7.570  0.00  0.00    +0.070 C 
ATOM     13  C   LIG    1       -2.447  -0.691  -6.648  0.00  0.00    +0.300 C 
ATOM     14  N   LIG    1       -1.543   0.462  -6.744  0.00  0.00    -0.490 N 
ENDBRANCH   6   7
ENDBRANCH   3   6
ENDBRANCH   1   2
BRANCH   1  15
ATOM     15  C   LIG    1       -0.013   1.090   0.015  0.00  0.00    +0.310 C 
BRANCH  15  16
ATOM     16  C   LIG    1       -0.764   1.609   1.214  0.00  0.00    -0.110 A 
ATOM     17  C   LIG    1       -0.663   2.941   1.570  0.00  0.00    +0.020 A 
ATOM     18  C   LIG    1       -1.356   3.417   2.667  0.00  0.00    +0.000 A 
ATOM     19  C   LIG    1       -2.141   2.560   3.414  0.00  0.00    -0.080 A 
ATOM     20  C   LIG    1       -2.238   1.227   3.062  0.00  0.00    +0.000 A 
ATOM     21  C   LIG    1       -2.892   3.079   4.614  0.00  0.00    +0.090 C 
ATOM     22  C   LIG    1       -1.549   0.751   1.962  0.00  0.00    +0.030 A 
ENDBRANCH  15  16
BRANCH  15  25
ATOM     23  C   LIG    1        3.675   1.580   0.913  0.00  0.00    +0.080 C 
ATOM     24  C   LIG    1        2.295   0.986   0.792  0.00  0.00    +0.520 C 
ATOM     25  N   LIG    1        1.360   1.601   0.041  0.00  0.00    -0.720 N 
ATOM     26  H   LIG    1        1.596   2.382  -0.484  0.00  0.00    +0.400 HD
ATOM     27  O   LIG    1        2.026  -0.046   1.370  0.00  0.00    -0.540 OA
ENDBRANCH  15  25
ENDBRANCH   1  15
TORSDOF 6
