REMARK  Name = ZINCvU00000007FW.0
REMARK                            x       y       z     vdW  Elec       q    Type
REMARK                         _______ _______ _______ _____ _____    ______ ____
ROOT
ATOM      1  C   LIG    1       -3.239   3.159   0.064  0.00  0.00    +0.220 A 
ATOM      2  N   LIG    1       -2.472   3.842   0.866  0.00  0.00    -0.270 NA
ATOM      3  N   LIG    1       -2.909   3.762   2.072  0.00  0.00    -0.290 NA
ATOM      4  C   LIG    1       -3.989   3.016   2.107  0.00  0.00    +0.150 A 
ATOM      5  N   LIG    1       -4.238   2.611   0.825  0.00  0.00    -0.410 N 
ENDROOT
BRANCH   5   6
ATOM      6  C   LIG    1       -5.295   1.802   0.381  0.00  0.00    +0.090 A 
ATOM      7  C   LIG    1       -6.257   2.322  -0.473  0.00  0.00    +0.070 A 
ATOM      8  C   LIG    1       -7.294   1.522  -0.913  0.00  0.00    +0.010 A 
ATOM      9  C   LIG    1       -7.379   0.205  -0.493  0.00  0.00    +0.120 A 
ATOM     10  C   LIG    1       -6.423  -0.313   0.364  0.00  0.00    +0.010 A 
ATOM     11  F   LIG    1       -8.397  -0.574  -0.920  0.00  0.00    -0.130 F 
ATOM     12  C   LIG    1       -5.382   0.482   0.801  0.00  0.00    +0.070 A 
ENDBRANCH   5   6
BRANCH   1  14
ATOM     13  C   LIG    1       -1.912   2.036  -1.705  0.00  0.00    +0.020 C 
ATOM     14  C   LIG    1       -3.063   3.004  -1.425  0.00  0.00    +0.270 C 
BRANCH  14  15
ATOM     15  N   LIG    1       -2.759   4.312  -2.020  0.00  0.00    -0.530 NA
ATOM     16  C   LIG    1       -2.814   4.249  -3.486  0.00  0.00    +0.200 C 
ATOM     17  C   LIG    1       -1.454   4.808  -1.563  0.00  0.00    +0.200 C 
ENDBRANCH  14  15
ENDBRANCH   1  14
BRANCH   4  18
ATOM     18  S   LIG    1       -4.941   2.619   3.535  0.00  0.00    +0.100 S 
BRANCH  18  19
ATOM     19  C   LIG    1       -3.999   3.509   4.799  0.00  0.00    +0.110 C 
BRANCH  19  20
ATOM     20  C   LIG    1       -4.648   3.307   6.144  0.00  0.00    +0.550 C 
ATOM     21  N   LIG    1       -4.117   3.881   7.242  0.00  0.00    -0.690 N 
ATOM     22  H   LIG    1       -3.284   4.374   7.176  0.00  0.00    +0.420 HD
ATOM     23  O   LIG    1       -5.649   2.628   6.239  0.00  0.00    -0.490 OA
BRANCH  21  24
ATOM     24  C   LIG    1       -4.766   3.766   8.476  0.00  0.00    +0.220 A 
ATOM     25  C   LIG    1       -5.687   4.728   8.871  0.00  0.00    -0.100 A 
ATOM     26  C   LIG    1       -6.331   4.609  10.087  0.00  0.00    +0.120 A 
ATOM     27  C   LIG    1       -6.052   3.538  10.917  0.00  0.00    -0.100 A 
ATOM     28  C   LIG    1       -5.131   2.581  10.530  0.00  0.00    +0.120 A 
ATOM     29  I   LIG    1       -7.025   3.364  12.764  0.00  0.00    -0.000 I 
ATOM     30  I   LIG    1       -6.105   6.355   7.619  0.00  0.00    +0.000 I 
ATOM     31  C   LIG    1       -4.488   2.692   9.312  0.00  0.00    -0.090 A 
ATOM     32  I   LIG    1       -3.095   1.241   8.726  0.00  0.00    +0.000 I 
ENDBRANCH  21  24
ENDBRANCH  19  20
ENDBRANCH  18  19
ENDBRANCH   4  18
TORSDOF 7
