REMARK  Name = ZINCvU0000000Fes.0
REMARK                            x       y       z     vdW  Elec       q    Type
REMARK                         _______ _______ _______ _____ _____    ______ ____
ROOT
ATOM      1  N   LIG    1       -6.904   2.046   2.419  0.00  0.00    -0.850 N 
ATOM      2  N   LIG    1       -7.494   3.176   2.989  0.00  0.00    -0.200 NA
ATOM      3  C   LIG    1       -7.379   4.245   2.280  0.00  0.00    +0.140 C 
ATOM      4  C   LIG    1       -6.615   3.932   1.013  0.00  0.00    +0.100 C 
ATOM      5  C   LIG    1       -6.302   2.427   1.131  0.00  0.00    +0.280 C 
ENDROOT
BRANCH   3   6
ATOM      6  C   LIG    1       -7.911   5.571   2.647  0.00  0.00    -0.030 A 
ATOM      7  C   LIG    1       -7.720   6.663   1.797  0.00  0.00    +0.060 A 
ATOM      8  C   LIG    1       -8.224   7.899   2.143  0.00  0.00    +0.030 A 
ATOM      9  C   LIG    1       -8.909   8.061   3.336  0.00  0.00    -0.020 A 
ATOM     10  C   LIG    1       -9.097   6.984   4.186  0.00  0.00    +0.030 A 
ATOM     11 CL   LIG    1       -9.534   9.622   3.768  0.00  0.00    -0.060 Cl
ATOM     12  C   LIG    1       -8.602   5.741   3.848  0.00  0.00    +0.070 A 
ENDBRANCH   3   6
BRANCH   5  13
ATOM     13  C   LIG    1       -4.813   2.196   1.153  0.00  0.00    -0.180 A 
ATOM     14  C   LIG    1       -4.167   1.750   0.014  0.00  0.00    +0.090 A 
ATOM     15  C   LIG    1       -2.802   1.538   0.031  0.00  0.00    -0.070 A 
ATOM     16  C   LIG    1       -2.079   1.772   1.193  0.00  0.00    +0.220 A 
ATOM     17  C   LIG    1       -2.731   2.215   2.337  0.00  0.00    -0.070 A 
ATOM     18  C   LIG    1       -4.095   2.430   2.312  0.00  0.00    +0.070 A 
BRANCH  16  19
ATOM     19  N   LIG    1       -0.698   1.558   1.213  0.00  0.00    -0.640 N 
ATOM     20  C   LIG    1        0.063   1.806   2.440  0.00  0.00    +0.280 C 
ATOM     21  C   LIG    1       -0.013   1.086   0.008  0.00  0.00    +0.280 C 
ENDBRANCH  16  19
ENDBRANCH   5  13
BRANCH   1  22
ATOM     22  S   LIG    1       -6.884   0.527   3.080  0.00  0.00    +2.710 S 
ATOM     23  O   LIG    1       -6.590  -0.369   2.017  0.00  0.00    -0.940 OA
ATOM     24  O   LIG    1       -8.051   0.424   3.883  0.00  0.00    -0.930 OA
BRANCH  22  29
ATOM     25  C   LIG    1       -2.187   0.288   6.860  0.00  0.00    +0.090 C 
ATOM     26  C   LIG    1       -3.360   0.347   5.916  0.00  0.00    -0.020 A 
ATOM     27  C   LIG    1       -4.598   0.755   6.377  0.00  0.00    -0.020 A 
ATOM     28  C   LIG    1       -5.674   0.810   5.511  0.00  0.00    +0.130 A 
ATOM     29  C   LIG    1       -5.512   0.458   4.184  0.00  0.00    -0.690 A 
ATOM     30  C   LIG    1       -4.275   0.045   3.724  0.00  0.00    +0.150 A 
ATOM     31  C   LIG    1       -3.198  -0.006   4.589  0.00  0.00    -0.010 A 
ENDBRANCH  22  29
ENDBRANCH   1  22
TORSDOF 5
