REMARK  Name = ZINCqH0000007qkd.0
REMARK                            x       y       z     vdW  Elec       q    Type
REMARK                         _______ _______ _______ _____ _____    ______ ____
ROOT
ATOM      1  C   LIG    1        0.044  -4.645   0.021  0.00  0.00    +0.190 C 
ATOM      2  C   LIG    1       -0.194  -5.377   1.359  0.00  0.00    +0.030 C 
ATOM      3  C   LIG    1        0.677  -6.648   1.281  0.00  0.00    +0.020 C 
ATOM      4  C   LIG    1        1.368  -6.577  -0.098  0.00  0.00    +0.160 C 
ATOM      5  N   LIG    1        1.370  -5.132  -0.442  0.00  0.00    -0.490 NA
ENDROOT
BRANCH   1   9
ATOM      6  C   LIG    1        0.141  -0.413   0.633  0.00  0.00    +0.170 A 
ATOM      7  C   LIG    1        1.324  -1.131   0.538  0.00  0.00    -0.120 A 
ATOM      8  C   LIG    1        1.290  -2.499   0.340  0.00  0.00    +0.130 A 
ATOM      9  C   LIG    1        0.078  -3.154   0.236  0.00  0.00    -0.150 A 
ATOM     10  C   LIG    1       -1.108  -2.440   0.330  0.00  0.00    +0.170 A 
ATOM     11  C   LIG    1       -1.077  -1.069   0.533  0.00  0.00    -0.110 A 
BRANCH   6  13
ATOM     12  C   LIG    1        1.464   1.540   0.927  0.00  0.00    +0.250 C 
ATOM     13  O   LIG    1        0.175   0.931   0.828  0.00  0.00    -0.320 OA
ENDBRANCH   6  13
BRANCH  10  14
ATOM     14  O   LIG    1       -2.300  -3.085   0.228  0.00  0.00    -0.310 OA
ATOM     15  C   LIG    1       -3.481  -2.287   0.334  0.00  0.00    +0.240 C 
ENDBRANCH  10  14
ENDBRANCH   1   9
BRANCH   5  16
ATOM     16  C   LIG    1        1.527  -4.935  -1.889  0.00  0.00    +0.200 C 
BRANCH  16  17
ATOM     17  C   LIG    1        2.957  -5.208  -2.280  0.00  0.00    +0.510 C 
ATOM     18  N   LIG    1        3.337  -5.089  -3.568  0.00  0.00    -0.680 N 
ATOM     19  H   LIG    1        2.677  -4.904  -4.254  0.00  0.00    +0.410 HD
ATOM     20  O   LIG    1        3.765  -5.533  -1.437  0.00  0.00    -0.500 OA
BRANCH  18  21
ATOM     21  C   LIG    1        4.685  -5.234  -3.915  0.00  0.00    +0.140 A 
ATOM     22  C   LIG    1        5.678  -4.817  -3.039  0.00  0.00    +0.010 A 
ATOM     23  C   LIG    1        7.008  -4.966  -3.382  0.00  0.00    +0.030 A 
ATOM     24  C   LIG    1        7.350  -5.519  -4.602  0.00  0.00    -0.100 A 
ATOM     25  C   LIG    1        6.364  -5.930  -5.480  0.00  0.00    +0.030 A 
ATOM     26  C   LIG    1        8.802  -5.675  -4.976  0.00  0.00    +0.100 C 
ATOM     27  C   LIG    1        5.032  -5.789  -5.140  0.00  0.00    -0.020 A 
ENDBRANCH  18  21
ENDBRANCH  16  17
ENDBRANCH   5  16
TORSDOF 6
