REMARK  Name = ZINCpk00000e9m0g.0
REMARK                            x       y       z     vdW  Elec       q    Type
REMARK                         _______ _______ _______ _____ _____    ______ ____
ROOT
ATOM      1  C   LIG    1        6.048  -1.481  -3.772  0.00  0.00    -0.230 C 
ATOM      2  C   LIG    1        6.016  -0.232  -3.259  0.00  0.00    +0.200 C 
ATOM      3  N   LIG    1        7.131   0.331  -2.707  0.00  0.00    -0.640 N 
ATOM      4  H   LIG    1        7.059   1.229  -2.347  0.00  0.00    +0.430 HD
ATOM      5  C   LIG    1        8.317  -0.286  -2.635  0.00  0.00    +0.710 C 
ATOM      6  N   LIG    1        8.506  -1.533  -3.110  0.00  0.00    -0.710 N 
ATOM      7  H   LIG    1        9.374  -1.962  -3.047  0.00  0.00    +0.440 HD
ATOM      8  O   LIG    1        9.253   0.297  -2.125  0.00  0.00    -0.560 OA
ATOM      9  C   LIG    1        7.364  -2.230  -3.725  0.00  0.00    +0.290 C 
ATOM     10  C   LIG    1        7.753  -2.597  -5.159  0.00  0.00    +0.040 C 
ENDROOT
BRANCH   1  11
ATOM     11  C   LIG    1        4.892  -2.068  -4.339  0.00  0.00    +0.540 C 
ATOM     12  O   LIG    1        4.245  -2.877  -3.701  0.00  0.00    -0.480 OA
BRANCH  11  13
ATOM     13  O   LIG    1        4.507  -1.731  -5.588  0.00  0.00    -0.350 OA
BRANCH  13  15
ATOM     14  C   LIG    1        3.055  -1.859  -7.515  0.00  0.00    +0.070 C 
ATOM     15  C   LIG    1        3.331  -2.363  -6.097  0.00  0.00    +0.200 C 
ENDBRANCH  13  15
ENDBRANCH  11  13
ENDBRANCH   1  11
BRANCH   2  16
ATOM     16  C   LIG    1        4.728   0.550  -3.291  0.00  0.00    +0.300 C 
BRANCH  16  17
ATOM     17  O   LIG    1        4.269   0.780  -1.933  0.00  0.00    -0.350 OA
BRANCH  17  18
ATOM     18  C   LIG    1        3.126   1.468  -1.784  0.00  0.00    +0.470 C 
ATOM     19  O   LIG    1        2.529   1.865  -2.757  0.00  0.00    -0.490 OA
BRANCH  18  20
ATOM     20  C   LIG    1        2.587   1.746  -0.405  0.00  0.00    +0.180 C 
BRANCH  20  21
ATOM     21  C   LIG    1        1.303   2.528  -0.515  0.00  0.00    -0.120 A 
ATOM     22  C   LIG    1        0.088   1.882  -0.394  0.00  0.00    +0.050 A 
ATOM     23  C   LIG    1       -1.090   2.599  -0.501  0.00  0.00    +0.000 A 
ATOM     24  C   LIG    1       -1.053   3.963  -0.718  0.00  0.00    +0.060 A 
ATOM     25  C   LIG    1        0.162   4.612  -0.839  0.00  0.00    -0.010 A 
ATOM     26  C   LIG    1        1.342   3.894  -0.738  0.00  0.00    +0.120 A 
ATOM     27  F   LIG    1        2.530   4.527  -0.856  0.00  0.00    -0.140 F 
ENDBRANCH  20  21
ENDBRANCH  18  20
ENDBRANCH  17  18
ENDBRANCH  16  17
ENDBRANCH   2  16
TORSDOF 8
