REMARK  Name = ZINCvU0000000Hfn.0
REMARK                            x       y       z     vdW  Elec       q    Type
REMARK                         _______ _______ _______ _____ _____    ______ ____
ROOT
ATOM      1  C   LIG    1        8.753  -1.265   1.111  0.00  0.00    -0.120 A 
ATOM      2  C   LIG    1       10.147  -1.251   1.056  0.00  0.00    +0.040 A 
ATOM      3  C   LIG    1       10.790  -1.454  -0.148  0.00  0.00    +0.010 A 
ATOM      4  C   LIG    1       10.055  -1.672  -1.299  0.00  0.00    +0.040 A 
ATOM      5  C   LIG    1        8.672  -1.692  -1.251  0.00  0.00    +0.030 A 
ATOM      6  C   LIG    1        8.017  -1.485  -0.055  0.00  0.00    -0.030 A 
ENDROOT
BRANCH   1   8
ATOM      7  O   LIG    1        6.846  -0.950   2.425  0.00  0.00    -0.510 OA
ATOM      8  C   LIG    1        8.058  -1.048   2.397  0.00  0.00    +0.550 C 
ATOM      9  N   LIG    1        8.767  -0.958   3.540  0.00  0.00    -0.730 N 
ATOM     10  H   LIG    1        9.734  -1.036   3.518  0.00  0.00    +0.400 HD
BRANCH   9  11
ATOM     11  C   LIG    1        8.078  -0.742   4.814  0.00  0.00    +0.290 C 
BRANCH  11  12
ATOM     12  C   LIG    1        9.107  -0.678   5.946  0.00  0.00    -0.050 C 
ATOM     13  C   LIG    1        9.793  -2.042   6.098  0.00  0.00    +0.250 C 
ATOM     14  O   LIG    1       10.816  -1.923   7.087  0.00  0.00    -0.310 OA
ATOM     15  C   LIG    1       10.491  -1.342   8.271  0.00  0.00    +0.130 A 
ATOM     16  C   LIG    1       11.335  -1.535   9.360  0.00  0.00    -0.020 A 
ATOM     17  C   LIG    1       11.039  -0.958  10.578  0.00  0.00    +0.040 A 
ATOM     18  C   LIG    1        9.902  -0.185  10.718  0.00  0.00    -0.020 A 
ATOM     19  C   LIG    1        9.060   0.008   9.639  0.00  0.00    +0.050 A 
ATOM     20  C   LIG    1        9.351  -0.570   8.415  0.00  0.00    -0.160 A 
ATOM     21  C   LIG    1        8.404  -0.343   7.264  0.00  0.00    +0.100 C 
ENDBRANCH  11  12
ENDBRANCH   9  11
ENDBRANCH   1   8
BRANCH   6  22
ATOM     22  C   LIG    1        6.511  -1.502  -0.006  0.00  0.00    +0.160 C 
BRANCH  22  23
ATOM     23  S   LIG    1        5.886   0.195  -0.080  0.00  0.00    +0.080 S 
BRANCH  23  24
ATOM     24  C   LIG    1        4.152  -0.115  -0.007  0.00  0.00    +0.220 A 
ATOM     25  N   LIG    1        3.605  -1.301   0.076  0.00  0.00    -0.480 NA
ATOM     26  C   LIG    1        2.252  -1.156   0.112  0.00  0.00    +0.030 A 
ATOM     27  C   LIG    1        1.188  -2.055   0.195  0.00  0.00    +0.070 A 
ATOM     28  C   LIG    1       -0.106  -1.583   0.210  0.00  0.00    +0.020 A 
ATOM     29  C   LIG    1       -0.357  -0.221   0.142  0.00  0.00    +0.040 A 
ATOM     30  C   LIG    1        0.687   0.679   0.059  0.00  0.00    +0.050 A 
ATOM     31  C   LIG    1        1.994   0.222   0.043  0.00  0.00    +0.010 A 
ATOM     32  O   LIG    1        3.199   0.833  -0.030  0.00  0.00    -0.200 OA
ENDBRANCH  23  24
ENDBRANCH  22  23
ENDBRANCH   6  22
TORSDOF 6
