REMARK  Name = ZINCkj00000GeNyh.0
REMARK                            x       y       z     vdW  Elec       q    Type
REMARK                         _______ _______ _______ _____ _____    ______ ____
ROOT
ATOM      1  C   LIG    1        1.280   2.024   0.001  0.00  0.00    +0.150 C 
ATOM      2  C   LIG    1        1.188   3.368  -0.715  0.00  0.00    +0.040 C 
ATOM      3  C   LIG    1        2.533   3.713  -1.306  0.00  0.00    +0.040 C 
ATOM      4  C   LIG    1        3.350   4.551  -0.306  0.00  0.00    +0.260 C 
ATOM      5  N   LIG    1        3.205   4.063   1.079  0.00  0.00    -0.600 N 
ATOM      6  C   LIG    1        3.214   2.657   1.417  0.00  0.00    +0.290 C 
ATOM      7  C   LIG    1        3.058   4.965   2.070  0.00  0.00    +0.510 C 
ATOM      8  O   LIG    1        2.936   4.590   3.217  0.00  0.00    -0.520 OA
ATOM      9  C   LIG    1        1.766   2.107   1.387  0.00  0.00    +0.000 C 
ENDROOT
BRANCH   7  10
ATOM     10  C   LIG    1        3.044   6.438   1.753  0.00  0.00    +0.180 C 
ATOM     11  C   LIG    1        4.417   6.881   1.198  0.00  0.00    +0.040 C 
ATOM     12  C   LIG    1        4.626   8.290   1.795  0.00  0.00    +0.050 C 
ATOM     13  C   LIG    1        3.355   8.532   2.640  0.00  0.00    +0.140 C 
ATOM     14  O   LIG    1        2.867   7.211   2.960  0.00  0.00    -0.350 OA
BRANCH  13  15
ATOM     15  C   LIG    1        3.704   9.295   3.920  0.00  0.00    +0.290 C 
BRANCH  15  16
ATOM     16  N   LIG    1        2.483   9.514   4.707  0.00  0.00    -0.640 N 
ATOM     17  H   LIG    1        2.713  10.017   5.551  0.00  0.00    +0.440 HD
ATOM     18  H   LIG    1        2.074   8.623   4.948  0.00  0.00    +0.440 HD
ATOM     19  H   LIG    1        1.825  10.052   4.164  0.00  0.00    +0.430 HD
ENDBRANCH  15  16
ENDBRANCH  13  15
ENDBRANCH   7  10
BRANCH   1  20
ATOM     20  O   LIG    1       -0.017   1.425   0.010  0.00  0.00    -0.390 OA
BRANCH  20  21
ATOM     21  C   LIG    1        0.002  -0.004   0.002  0.00  0.00    +0.160 C 
BRANCH  21  23
ATOM     22  C   LIG    1       -1.413  -2.063   0.004  0.00  0.00    +0.030 C 
ATOM     23  C   LIG    1       -1.433  -0.534   0.013  0.00  0.00    +0.020 C 
ENDBRANCH  21  23
ENDBRANCH  20  21
ENDBRANCH   1  20
TORSDOF 6
