REMARK  Name = ZINCqH0000007qjR.2
REMARK                            x       y       z     vdW  Elec       q    Type
REMARK                         _______ _______ _______ _____ _____    ______ ____
ROOT
ATOM      1  C   LIG    1        3.678   2.177  -0.032  0.00  0.00    +0.220 C 
ATOM      2  C   LIG    1        3.919   2.795   1.361  0.00  0.00    +0.010 C 
ATOM      3  C   LIG    1        4.520   4.186   1.028  0.00  0.00    +0.030 C 
ATOM      4  C   LIG    1        3.741   4.563  -0.257  0.00  0.00    +0.170 C 
ATOM      5  N   LIG    1        3.590   3.291  -0.994  0.00  0.00    -0.500 NA
ENDROOT
BRANCH   1   9
ATOM      6  C   LIG    1        0.022  -0.035  -0.030  0.00  0.00    +0.130 A 
ATOM      7  C   LIG    1        1.196  -0.635  -0.459  0.00  0.00    -0.020 A 
ATOM      8  C   LIG    1        2.377   0.082  -0.459  0.00  0.00    +0.060 A 
ATOM      9  C   LIG    1        2.389   1.397  -0.031  0.00  0.00    -0.140 A 
ATOM     10  C   LIG    1        1.219   1.997   0.398  0.00  0.00    +0.040 A 
ATOM     11  C   LIG    1        0.036   1.284   0.399  0.00  0.00    -0.080 A 
BRANCH   6  13
ATOM     12  C   LIG    1       -2.312  -0.057   0.426  0.00  0.00    +0.250 C 
ATOM     13  O   LIG    1       -1.141  -0.738  -0.029  0.00  0.00    -0.320 OA
ENDBRANCH   6  13
ENDBRANCH   1   9
BRANCH   5  14
ATOM     14  C   LIG    1        2.317   3.255  -1.726  0.00  0.00    +0.210 C 
BRANCH  14  15
ATOM     15  C   LIG    1        2.411   4.142  -2.941  0.00  0.00    +0.510 C 
ATOM     16  N   LIG    1        1.354   4.265  -3.768  0.00  0.00    -0.620 N 
ATOM     17  C   LIG    1        0.115   3.537  -3.487  0.00  0.00    +0.280 C 
ATOM     18  O   LIG    1        3.437   4.745  -3.174  0.00  0.00    -0.520 OA
BRANCH  16  19
ATOM     19  C   LIG    1        1.445   5.128  -4.949  0.00  0.00    +0.330 C 
BRANCH  19  20
ATOM     20  C   LIG    1        1.948   4.324  -6.120  0.00  0.00    -0.120 A 
ATOM     21  C   LIG    1        3.306   4.241  -6.369  0.00  0.00    +0.040 A 
ATOM     22  C   LIG    1        3.768   3.500  -7.441  0.00  0.00    +0.000 A 
ATOM     23  C   LIG    1        2.872   2.851  -8.270  0.00  0.00    -0.080 A 
ATOM     24  C   LIG    1        1.514   2.939  -8.024  0.00  0.00    -0.010 A 
ATOM     25  C   LIG    1        3.375   2.049  -9.442  0.00  0.00    +0.090 C 
ATOM     26  C   LIG    1        1.053   3.675  -6.950  0.00  0.00    +0.020 A 
ENDBRANCH  19  20
ENDBRANCH  16  19
ENDBRANCH  14  15
ENDBRANCH   5  14
TORSDOF 6
