REMARK  Name = ZINCrD000000Am33.0
REMARK                            x       y       z     vdW  Elec       q    Type
REMARK                         _______ _______ _______ _____ _____    ______ ____
ROOT
ATOM      1  N   LIG    1        0.824  10.423  -2.104  0.00  0.00    -0.520 NA
ATOM      2  C   LIG    1        0.960   9.411  -3.161  0.00  0.00    +0.170 C 
ATOM      3  C   LIG    1       -0.158   8.373  -3.017  0.00  0.00    +0.300 C 
ATOM      4  N   LIG    1       -0.132   7.846  -1.644  0.00  0.00    -0.620 N 
ATOM      5  C   LIG    1       -0.133   8.806  -0.529  0.00  0.00    +0.280 C 
ATOM      6  C   LIG    1       -0.113   6.518  -1.413  0.00  0.00    +0.520 C 
ATOM      7  O   LIG    1       -0.117   5.741  -2.344  0.00  0.00    -0.530 OA
ATOM      8  C   LIG    1        0.990   9.827  -0.771  0.00  0.00    +0.180 C 
ENDROOT
BRANCH   1   9
ATOM      9  C   LIG    1        1.770  11.528  -2.308  0.00  0.00    +0.220 C 
BRANCH   9  11
ATOM     10  O   LIG    1        0.509  12.544  -0.591  0.00  0.00    -0.490 OA
ATOM     11  C   LIG    1        1.440  12.652  -1.361  0.00  0.00    +0.520 C 
ATOM     12  N   LIG    1        2.180  13.779  -1.368  0.00  0.00    -0.670 N 
ATOM     13  H   LIG    1        2.973  13.835  -1.925  0.00  0.00    +0.410 HD
BRANCH  12  14
ATOM     14  C   LIG    1        1.806  14.868  -0.572  0.00  0.00    +0.160 A 
ATOM     15  C   LIG    1        0.481  15.027  -0.191  0.00  0.00    +0.040 A 
ATOM     16  C   LIG    1        0.115  16.103   0.595  0.00  0.00    +0.040 A 
ATOM     17  C   LIG    1        1.066  17.021   1.001  0.00  0.00    +0.000 A 
ATOM     18  C   LIG    1        2.387  16.866   0.622  0.00  0.00    +0.050 A 
ATOM     19  C   LIG    1        2.761  15.788  -0.158  0.00  0.00    -0.070 A 
ATOM     20 CL   LIG    1        4.421  15.589  -0.626  0.00  0.00    -0.070 Cl
ENDBRANCH  12  14
ENDBRANCH   9  11
ENDBRANCH   1   9
BRANCH   6  21
ATOM     21  C   LIG    1       -0.086   5.999   0.002  0.00  0.00    +0.120 C 
BRANCH  21  22
ATOM     22  C   LIG    1       -0.068   4.492  -0.016  0.00  0.00    -0.060 A 
ATOM     23  C   LIG    1        1.137   3.816  -0.042  0.00  0.00    +0.040 A 
ATOM     24  C   LIG    1        1.154   2.434  -0.057  0.00  0.00    +0.020 A 
ATOM     25  C   LIG    1       -0.036   1.728  -0.047  0.00  0.00    -0.030 A 
ATOM     26  C   LIG    1       -1.242   2.405  -0.027  0.00  0.00    +0.020 A 
ATOM     27 CL   LIG    1       -0.015  -0.008  -0.067  0.00  0.00    -0.070 Cl
ATOM     28  C   LIG    1       -1.257   3.787  -0.006  0.00  0.00    +0.040 A 
ENDBRANCH  21  22
ENDBRANCH   6  21
TORSDOF 5
