REMARK  Name = ZINCkj000005h8gh.0
REMARK                            x       y       z     vdW  Elec       q    Type
REMARK                         _______ _______ _______ _____ _____    ______ ____
ROOT
ATOM      1  C   LIG    1        1.695   7.865  -2.863  0.00  0.00    +0.160 C 
ATOM      2  C   LIG    1        1.565   7.420  -1.404  0.00  0.00    +0.170 C 
ATOM      3  N   LIG    1        1.040   6.048  -1.361  0.00  0.00    -0.530 NA
ATOM      4  C   LIG    1       -0.265   5.967  -2.031  0.00  0.00    +0.160 C 
ATOM      5  C   LIG    1       -0.116   6.426  -3.484  0.00  0.00    +0.250 C 
ATOM      6  O   LIG    1        0.423   7.750  -3.507  0.00  0.00    -0.400 OA
ENDROOT
BRANCH   1   7
ATOM      7  C   LIG    1        2.164   9.320  -2.914  0.00  0.00    +0.280 C 
BRANCH   7   9
ATOM      8  C   LIG    1        2.619  11.177  -4.364  0.00  0.00    +0.320 C 
ATOM      9  N   LIG    1        2.285   9.747  -4.315  0.00  0.00    -0.380 N 
ATOM     10  C   LIG    1        3.346   8.973  -4.973  0.00  0.00    +0.320 C 
ATOM     11  H   LIG    1        1.409   9.590  -4.791  0.00  0.00    +0.430 HD
ENDBRANCH   7   9
ENDBRANCH   1   7
BRANCH   3  12
ATOM     12  C   LIG    1        0.953   5.561   0.023  0.00  0.00    +0.240 C 
BRANCH  12  13
ATOM     13  C   LIG    1        0.643   4.086   0.018  0.00  0.00    -0.050 A 
ATOM     14  C   LIG    1        1.667   3.197   0.003  0.00  0.00    +0.050 A 
ATOM     15  C   LIG    1        1.389   1.813  -0.002  0.00  0.00    +0.100 A 
ATOM     16  N   LIG    1        2.126   0.718  -0.014  0.00  0.00    -0.300 NA
ATOM     17  N   LIG    1        1.282  -0.399  -0.012  0.00  0.00    -0.420 N 
ATOM     18  H   LIG    1        1.580  -1.322  -0.020  0.00  0.00    +0.450 HD
ATOM     19  C   LIG    1        0.002  -0.004   0.002  0.00  0.00    +0.280 A 
ATOM     20  C   LIG    1       -0.017   1.378   0.010  0.00  0.00    -0.210 A 
ATOM     21  C   LIG    1       -1.031   2.359   0.030  0.00  0.00    +0.100 A 
ATOM     22  C   LIG    1       -0.691   3.673   0.029  0.00  0.00    -0.040 A 
ENDBRANCH  12  13
ENDBRANCH   3  12
TORSDOF 4
