REMARK  Name = ZINCvU00000006mR.0
REMARK                            x       y       z     vdW  Elec       q    Type
REMARK                         _______ _______ _______ _____ _____    ______ ____
ROOT
ATOM      1  C   LIG    1        0.721   9.509  -1.443  0.00  0.00    +0.190 C 
ENDROOT
BRANCH   1   4
ATOM      2  C   LIG    1        0.193   6.047  -0.446  0.00  0.00    +0.130 A 
ATOM      3  N   LIG    1        0.145   7.348  -0.396  0.00  0.00    -0.450 NA
ATOM      4  C   LIG    1        0.705   8.003  -1.388  0.00  0.00    +0.070 A 
ATOM      5  C   LIG    1        1.253   7.252  -2.347  0.00  0.00    -0.040 A 
ATOM      6  S   LIG    1        1.028   5.558  -1.918  0.00  0.00    +0.110 S 
BRANCH   2  10
ATOM      7  C   LIG    1       -1.428   3.410   2.470  0.00  0.00    +0.120 A 
ATOM      8  C   LIG    1       -1.536   4.783   2.639  0.00  0.00    -0.040 A 
ATOM      9  C   LIG    1       -1.012   5.641   1.695  0.00  0.00    +0.080 A 
ATOM     10  C   LIG    1       -0.370   5.129   0.567  0.00  0.00    -0.030 A 
ATOM     11  C   LIG    1       -0.255   3.747   0.399  0.00  0.00    -0.010 A 
ATOM     12  C   LIG    1       -0.787   2.893   1.346  0.00  0.00    +0.100 A 
BRANCH   7  14
ATOM     13  C   LIG    1       -2.589   3.167   4.531  0.00  0.00    +0.240 C 
ATOM     14  O   LIG    1       -1.946   2.569   3.403  0.00  0.00    -0.300 OA
ENDBRANCH   7  14
BRANCH  12  15
ATOM     15  O   LIG    1       -0.682   1.547   1.184  0.00  0.00    -0.300 OA
ATOM     16  C   LIG    1       -0.013   1.086   0.008  0.00  0.00    +0.250 C 
ENDBRANCH  12  15
ENDBRANCH   2  10
ENDBRANCH   1   4
BRANCH   1  17
ATOM     17  S   LIG    1       -0.759  10.097  -2.303  0.00  0.00    +0.070 S 
BRANCH  17  18
ATOM     18  C   LIG    1       -0.488  11.836  -2.224  0.00  0.00    +0.210 A 
ATOM     19  N   LIG    1        0.536  12.444  -1.666  0.00  0.00    -0.330 NA
ATOM     20  N   LIG    1        0.426  13.717  -1.789  0.00  0.00    -0.020 NA
ATOM     21  N   LIG    1       -0.661  14.016  -2.415  0.00  0.00    -0.070 NA
ATOM     22  N   LIG    1       -1.300  12.803  -2.724  0.00  0.00    -0.310 N 
BRANCH  22  23
ATOM     23  C   LIG    1       -2.514  12.628  -3.402  0.00  0.00    +0.110 A 
ATOM     24  C   LIG    1       -2.688  11.544  -4.251  0.00  0.00    +0.030 A 
ATOM     25  C   LIG    1       -3.887  11.372  -4.914  0.00  0.00    +0.050 A 
ATOM     26  C   LIG    1       -4.911  12.284  -4.741  0.00  0.00    -0.060 A 
ATOM     27  C   LIG    1       -4.740  13.369  -3.900  0.00  0.00    +0.040 A 
ATOM     28  C   LIG    1       -3.545  13.543  -3.230  0.00  0.00    +0.050 A 
BRANCH  26  29
ATOM     29  C   LIG    1       -6.217  12.097  -5.469  0.00  0.00    +0.020 C 
ATOM     30  C   LIG    1       -6.840  10.759  -5.064  0.00  0.00    +0.030 C 
ATOM     31  C   LIG    1       -5.965  12.105  -6.978  0.00  0.00    +0.030 C 
ENDBRANCH  26  29
ENDBRANCH  22  23
ENDBRANCH  17  18
ENDBRANCH   1  17
TORSDOF 8
