REMARK  Name = ZINCpk00000xI1oI.0
REMARK                            x       y       z     vdW  Elec       q    Type
REMARK                         _______ _______ _______ _____ _____    ______ ____
ROOT
ATOM      1  N   LIG    1        1.548   3.052   0.003  0.00  0.00    -0.410 N 
ATOM      2  C   LIG    1        0.587   3.988   0.114  0.00  0.00    +0.550 A 
ATOM      3  C   LIG    1        0.940   5.409   0.124  0.00  0.00    -0.170 A 
ATOM      4  C   LIG    1        2.278   5.775   0.008  0.00  0.00    +0.280 A 
ATOM      5  C   LIG    1        3.246   4.771  -0.111  0.00  0.00    -0.330 A 
ATOM      6  C   LIG    1        4.666   5.099  -0.237  0.00  0.00    +0.560 A 
ATOM      7  O   LIG    1        5.045   6.257  -0.241  0.00  0.00    -0.470 OA
ATOM      8  N   LIG    1        5.545   4.077  -0.348  0.00  0.00    -0.440 N 
ATOM      9  C   LIG    1        6.874   4.356  -0.467  0.00  0.00    +0.290 A 
ATOM     10  C   LIG    1        7.783   3.361  -0.579  0.00  0.00    +0.010 A 
ATOM     11  C   LIG    1        7.362   2.024  -0.576  0.00  0.00    +0.150 A 
ATOM     12  C   LIG    1        6.036   1.735  -0.458  0.00  0.00    -0.110 A 
ATOM     13  C   LIG    1        5.569   0.302  -0.453  0.00  0.00    +0.150 C 
ATOM     14  C   LIG    1        5.103   2.784  -0.341  0.00  0.00    +0.450 A 
ATOM     15  N   LIG    1        3.810   2.479  -0.226  0.00  0.00    -0.570 NA
ATOM     16  O   LIG    1       -0.579   3.652   0.210  0.00  0.00    -0.460 OA
ATOM     17  C   LIG    1        2.871   3.407  -0.112  0.00  0.00    +0.490 A 
ENDROOT
BRANCH   1  21
ATOM     18  C   LIG    1        1.663  -1.934  -0.024  0.00  0.00    +0.190 C 
ATOM     19  C   LIG    1        1.254  -0.484  -0.013  0.00  0.00    -0.030 A 
ATOM     20  C   LIG    1        2.079   0.589  -0.015  0.00  0.00    +0.000 A 
ATOM     21  C   LIG    1        1.195   1.700  -0.000  0.00  0.00    +0.200 A 
ATOM     22  N   LIG    1       -0.014   1.205   0.009  0.00  0.00    -0.330 NA
ATOM     23  O   LIG    1        0.002  -0.004   0.002  0.00  0.00    +0.120 OA
ENDBRANCH   1  21
BRANCH   3  24
ATOM     24  C   LIG    1       -0.078   6.409   0.247  0.00  0.00    +0.280 C 
ATOM     25  N   LIG    1       -0.886   7.202   0.344  0.00  0.00    -0.410 NA
ENDBRANCH   3  24
TORSDOF 2
