REMARK  Name = ZINCrH000004qtXP.0
REMARK                            x       y       z     vdW  Elec       q    Type
REMARK                         _______ _______ _______ _____ _____    ______ ____
ROOT
ATOM      1  N   LIG    1       -7.457   4.233  -2.250  0.00  0.00    -1.110 NA
ATOM      2  H   LIG    1       -7.207   4.063  -3.172  0.00  0.00    +0.420 HD
ENDROOT
BRANCH   1   3
ATOM      3  S   LIG    1       -9.003   4.698  -1.884  0.00  0.00    +2.690 S 
ATOM      4  O   LIG    1       -9.429   3.867  -0.813  0.00  0.00    -0.950 OA
ATOM      5  O   LIG    1       -9.698   4.791  -3.120  0.00  0.00    -0.950 OA
BRANCH   3  11
ATOM      6  C   LIG    1       -8.883   8.051   2.124  0.00  0.00    +0.090 C 
ATOM      7  C   LIG    1       -8.864   7.826   0.634  0.00  0.00    -0.110 A 
ATOM      8  C   LIG    1       -8.780   8.905  -0.226  0.00  0.00    +0.070 A 
ATOM      9  C   LIG    1       -8.763   8.699  -1.593  0.00  0.00    -0.110 A 
ATOM     10  C   LIG    1       -8.831   7.414  -2.099  0.00  0.00    +0.020 A 
ATOM     11  C   LIG    1       -8.916   6.336  -1.239  0.00  0.00    -0.680 A 
ATOM     12  C   LIG    1       -8.813   7.189  -3.589  0.00  0.00    +0.100 C 
ATOM     13  C   LIG    1       -8.671   9.874  -2.531  0.00  0.00    +0.090 C 
ATOM     14  C   LIG    1       -8.938   6.542   0.128  0.00  0.00    +0.020 A 
ATOM     15  C   LIG    1       -9.037   5.367   1.066  0.00  0.00    +0.110 C 
ENDBRANCH   3  11
ENDBRANCH   1   3
BRANCH   1  16
ATOM     16  C   LIG    1       -6.466   4.077  -1.182  0.00  0.00    +0.320 C 
BRANCH  16  17
ATOM     17  C   LIG    1       -5.279   3.309  -1.705  0.00  0.00    -0.120 A 
ATOM     18  C   LIG    1       -4.217   3.986  -2.276  0.00  0.00    +0.050 A 
ATOM     19  C   LIG    1       -3.128   3.286  -2.757  0.00  0.00    +0.020 A 
ATOM     20  C   LIG    1       -3.101   1.901  -2.667  0.00  0.00    +0.150 A 
ATOM     21  C   LIG    1       -4.171   1.223  -2.098  0.00  0.00    -0.020 A 
ATOM     22  C   LIG    1       -5.255   1.930  -1.614  0.00  0.00    +0.050 A 
BRANCH  20  23
ATOM     23  N   LIG    1       -1.999   1.188  -3.153  0.00  0.00    -0.670 N 
ATOM     24  H   LIG    1       -2.128   0.323  -3.572  0.00  0.00    +0.410 HD
ATOM     25  C   LIG    1       -0.759   1.701  -3.034  0.00  0.00    +0.540 C 
ATOM     26  O   LIG    1       -0.604   2.816  -2.580  0.00  0.00    -0.520 OA
BRANCH  25  27
ATOM     27  C   LIG    1        0.437   0.891  -3.464  0.00  0.00    -0.070 C 
ATOM     28  C   LIG    1        1.386   0.396  -2.370  0.00  0.00    +0.060 C 
ATOM     29  C   LIG    1        1.818   1.529  -3.303  0.00  0.00    +0.080 C 
ENDBRANCH  25  27
ENDBRANCH  20  23
ENDBRANCH  16  17
ENDBRANCH   1  16
TORSDOF 6
