REMARK  Name = ZINCrD000000AQXX.0
REMARK                            x       y       z     vdW  Elec       q    Type
REMARK                         _______ _______ _______ _____ _____    ______ ____
ROOT
ATOM      1  O   LIG    1        2.915  -1.151   2.784  0.00  0.00    -0.530 OA
ATOM      2  C   LIG    1        3.152  -0.300   1.953  0.00  0.00    +0.520 C 
ATOM      3  N   LIG    1        2.190   0.086   1.091  0.00  0.00    -0.730 N 
ATOM      4  H   LIG    1        2.379   0.767   0.426  0.00  0.00    +0.400 HD
ENDROOT
BRANCH   2   5
ATOM      5  C   LIG    1        4.521   0.327   1.884  0.00  0.00    +0.000 C 
ATOM      6  C   LIG    1        5.417  -0.283   2.966  0.00  0.00    +0.050 C 
ATOM      7  C   LIG    1        6.786   0.402   2.928  0.00  0.00    +0.040 C 
ATOM      8  C   LIG    1        6.605   1.908   3.127  0.00  0.00    +0.190 C 
ATOM      9  N   LIG    1        5.741   2.443   2.067  0.00  0.00    -0.470 N 
ATOM     10  C   LIG    1        4.405   1.835   2.113  0.00  0.00    +0.230 C 
BRANCH   9  11
ATOM     11  C   LIG    1        5.661   3.829   2.141  0.00  0.00    +0.260 A 
ATOM     12  C   LIG    1        6.822   4.598   2.112  0.00  0.00    +0.210 A 
ATOM     13  N   LIG    1        6.741   5.913   2.183  0.00  0.00    -0.420 NA
ATOM     14  C   LIG    1        5.561   6.500   2.279  0.00  0.00    +0.180 A 
ATOM     15  C   LIG    1        4.406   5.741   2.307  0.00  0.00    +0.250 A 
ATOM     16  N   LIG    1        4.478   4.423   2.233  0.00  0.00    -0.480 NA
ENDBRANCH   9  11
ENDBRANCH   2   5
BRANCH   3  17
ATOM     17  C   LIG    1        0.859  -0.523   1.159  0.00  0.00    +0.280 C 
BRANCH  17  18
ATOM     18  C   LIG    1       -0.002   0.007   0.010  0.00  0.00    -0.030 C 
ATOM     19  C   LIG    1        0.683  -0.281  -1.341  0.00  0.00    +0.020 C 
ATOM     20  C   LIG    1        0.032  -1.603  -1.823  0.00  0.00    +0.010 C 
ATOM     21  C   LIG    1       -1.444  -1.437  -1.383  0.00  0.00    +0.020 C 
ATOM     22  C   LIG    1       -1.354  -0.728  -0.016  0.00  0.00    +0.030 C 
BRANCH  18  23
ATOM     23  C   LIG    1       -0.223   1.489   0.172  0.00  0.00    -0.070 A 
ATOM     24  C   LIG    1        0.251   2.140   1.295  0.00  0.00    +0.010 A 
ATOM     25  C   LIG    1        0.053   3.500   1.441  0.00  0.00    +0.010 A 
ATOM     26  C   LIG    1       -0.629   4.207   0.468  0.00  0.00    +0.000 A 
ATOM     27  C   LIG    1       -1.107   3.555  -0.653  0.00  0.00    +0.000 A 
ATOM     28  C   LIG    1       -0.905   2.196  -0.801  0.00  0.00    +0.010 A 
ENDBRANCH  18  23
ENDBRANCH  17  18
ENDBRANCH   3  17
TORSDOF 5
