REMARK  Name = ZINCpk00000KfKY0.0
REMARK                            x       y       z     vdW  Elec       q    Type
REMARK                         _______ _______ _______ _____ _____    ______ ____
ROOT
ATOM      1  C   LIG    1        3.575   6.438   0.048  0.00  0.00    +0.220 C 
ATOM      2  C   LIG    1        2.882   7.816   0.093  0.00  0.00    +0.050 C 
ATOM      3  C   LIG    1        1.494   7.531  -0.539  0.00  0.00    +0.040 C 
ATOM      4  C   LIG    1        1.208   6.097  -0.027  0.00  0.00    +0.270 C 
ATOM      5  N   LIG    1        2.518   5.421  -0.046  0.00  0.00    -0.610 N 
ATOM      6  C   LIG    1        2.713   4.090  -0.130  0.00  0.00    +0.580 C 
ATOM      7  O   LIG    1        1.768   3.346  -0.303  0.00  0.00    -0.510 OA
ENDROOT
BRANCH   6   8
ATOM      8  C   LIG    1        4.081   3.533  -0.010  0.00  0.00    -0.080 A 
ATOM      9  C   LIG    1        5.205   4.346  -0.187  0.00  0.00    +0.010 A 
ATOM     10  C   LIG    1        6.464   3.790  -0.067  0.00  0.00    +0.320 A 
ATOM     11  N   LIG    1        6.616   2.511   0.215  0.00  0.00    -0.480 NA
ATOM     12  C   LIG    1        5.582   1.704   0.386  0.00  0.00    +0.360 A 
ATOM     13  C   LIG    1        4.282   2.183   0.282  0.00  0.00    +0.060 A 
BRANCH  12  14
ATOM     14  N   LIG    1        5.800   0.354   0.678  0.00  0.00    -0.340 N 
ATOM     15  C   LIG    1        6.992  -0.264   0.806  0.00  0.00    +0.520 A 
ATOM     16  N   LIG    1        6.768  -1.522   1.085  0.00  0.00    -0.540 NA
ATOM     17  C   LIG    1        5.455  -1.748   1.134  0.00  0.00    +0.450 A 
ATOM     18  N   LIG    1        4.821  -0.631   0.891  0.00  0.00    -0.310 NA
ENDBRANCH  12  14
ENDBRANCH   6   8
BRANCH   1  19
ATOM     19  C   LIG    1        4.393   6.222   1.323  0.00  0.00    +0.300 C 
BRANCH  19  23
ATOM     20  C   LIG    1        7.706   9.714   2.721  0.00  0.00    +0.100 C 
ATOM     21  C   LIG    1        6.988   8.651   1.929  0.00  0.00    -0.240 A 
ATOM     22  C   LIG    1        5.860   8.004   2.305  0.00  0.00    +0.230 A 
ATOM     23  N   LIG    1        5.541   7.131   1.327  0.00  0.00    -0.370 N 
ATOM     24  N   LIG    1        6.500   7.252   0.312  0.00  0.00    -0.300 NA
ATOM     25  C   LIG    1        7.366   8.163   0.674  0.00  0.00    +0.240 A 
ENDBRANCH  19  23
ENDBRANCH   1  19
TORSDOF 4
