REMARK  Name = ZINCpk00000kLEM2.0
REMARK                            x       y       z     vdW  Elec       q    Type
REMARK                         _______ _______ _______ _____ _____    ______ ____
ROOT
ATOM      1  C   LIG    1       -6.437   7.583   0.282  0.00  0.00    +0.520 C 
ATOM      2  N   LIG    1       -6.103   6.339   0.678  0.00  0.00    -0.610 N 
ATOM      3  C   LIG    1       -5.380   6.123   1.938  0.00  0.00    +0.270 C 
ATOM      4  C   LIG    1       -4.124   5.294   1.650  0.00  0.00    +0.010 C 
ATOM      5  C   LIG    1       -4.523   4.006   0.926  0.00  0.00    -0.010 C 
ATOM      6  C   LIG    1       -5.189   4.354  -0.407  0.00  0.00    +0.040 C 
ATOM      7  C   LIG    1       -6.457   5.173  -0.143  0.00  0.00    +0.250 C 
ATOM      8  O   LIG    1       -6.141   8.538   0.969  0.00  0.00    -0.530 OA
ENDROOT
BRANCH   1   9
ATOM      9  C   LIG    1       -7.179   7.788  -1.013  0.00  0.00    +0.120 C 
BRANCH   9  16
ATOM     10  C   LIG    1       -5.147   9.486  -2.247  0.00  0.00    +0.090 C 
ATOM     11  C   LIG    1       -6.466  10.068  -1.807  0.00  0.00    -0.120 A 
ATOM     12  C   LIG    1       -6.731  11.412  -1.983  0.00  0.00    +0.260 A 
ATOM     13  N   LIG    1       -7.883  11.929  -1.600  0.00  0.00    -0.480 NA
ATOM     14  C   LIG    1       -8.821  11.191  -1.040  0.00  0.00    +0.250 A 
ATOM     15  C   LIG    1       -8.630   9.837  -0.838  0.00  0.00    -0.030 A 
ATOM     16  C   LIG    1       -7.429   9.260  -1.222  0.00  0.00    -0.030 A 
ENDBRANCH   9  16
ENDBRANCH   1   9
BRANCH   5  17
ATOM     17  C   LIG    1       -3.276   3.159   0.668  0.00  0.00    +0.040 C 
BRANCH  17  18
ATOM     18  C   LIG    1       -3.687   1.818   0.057  0.00  0.00    +0.170 C 
ATOM     19  O   LIG    1       -4.143   2.003  -1.301  0.00  0.00    -0.350 OA
ATOM     20  C   LIG    1       -4.026   0.704  -1.922  0.00  0.00    +0.200 C 
ATOM     21  C   LIG    1       -2.691   0.134  -1.393  0.00  0.00    +0.030 C 
ATOM     22  C   LIG    1       -2.463   0.883  -0.061  0.00  0.00    -0.050 C 
BRANCH  22  23
ATOM     23  C   LIG    1       -1.189   1.686  -0.119  0.00  0.00    +0.530 C 
ATOM     24  O   LIG    1       -0.846   2.205  -1.160  0.00  0.00    -0.530 OA
ATOM     25  N   LIG    1       -0.431   1.827   0.987  0.00  0.00    -0.860 N 
ATOM     26  H   LIG    1        0.391   2.341   0.949  0.00  0.00    +0.400 HD
ATOM     27  H   LIG    1       -0.706   1.412   1.819  0.00  0.00    +0.400 HD
ENDBRANCH  22  23
ENDBRANCH  17  18
ENDBRANCH   5  17
TORSDOF 5
