REMARK  Name = ZINCkj00000GeP24.1
REMARK                            x       y       z     vdW  Elec       q    Type
REMARK                         _______ _______ _______ _____ _____    ______ ____
ROOT
ATOM      1  N   LIG    1       -0.014   1.718   5.742  0.00  0.00    -0.560 N 
ATOM      2  C   LIG    1        1.177   2.179   5.337  0.00  0.00    +0.700 C 
ATOM      3  N   LIG    1        1.208   2.426   4.012  0.00  0.00    -0.720 N 
ATOM      4  H   LIG    1        1.960   2.763   3.499  0.00  0.00    +0.450 HD
ATOM      5  C   LIG    1       -0.119   2.084   3.503  0.00  0.00    +0.100 C 
ATOM      6  C   LIG    1       -0.798   3.296   2.847  0.00  0.00    +0.120 C 
ATOM      7  C   LIG    1       -0.571   3.035   1.334  0.00  0.00    +0.280 C 
ATOM      8  N   LIG    1       -0.700   1.560   1.217  0.00  0.00    -0.390 N 
ATOM      9  H   LIG    1       -1.674   1.297   1.189  0.00  0.00    +0.440 HD
ATOM     10  C   LIG    1       -0.054   0.998   2.426  0.00  0.00    +0.310 C 
ATOM     11  O   LIG    1        2.122   2.354   6.080  0.00  0.00    -0.500 OA
ATOM     12  C   LIG    1       -0.884   1.618   4.713  0.00  0.00    +0.530 C 
ATOM     13  O   LIG    1       -2.034   1.236   4.756  0.00  0.00    -0.440 OA
ENDROOT
BRANCH   1  15
ATOM     14  C   LIG    1        0.606   0.255   7.601  0.00  0.00    +0.060 C 
ATOM     15  C   LIG    1       -0.334   1.366   7.128  0.00  0.00    +0.250 C 
ATOM     16  C   LIG    1       -0.158   2.596   8.020  0.00  0.00    +0.060 C 
ENDBRANCH   1  15
BRANCH   8  17
ATOM     17  C   LIG    1       -0.013   1.086   0.008  0.00  0.00    +0.290 C 
BRANCH  17  18
ATOM     18  C   LIG    1       -0.753   1.593  -1.232  0.00  0.00    +0.080 C 
BRANCH  18  19
ATOM     19  C   LIG    1       -0.037   1.099  -2.490  0.00  0.00    +0.470 C 
ATOM     20  F   LIG    1        1.276   1.583  -2.500  0.00  0.00    -0.170 F 
ATOM     21  F   LIG    1       -0.713   1.563  -3.624  0.00  0.00    -0.160 F 
ATOM     22  F   LIG    1       -0.018  -0.300  -2.498  0.00  0.00    -0.170 F 
ENDBRANCH  18  19
ENDBRANCH  17  18
ENDBRANCH   8  17
TORSDOF 4
