REMARK  Name = ZINCkj00000GeP24.0
REMARK                            x       y       z     vdW  Elec       q    Type
REMARK                         _______ _______ _______ _____ _____    ______ ____
ROOT
ATOM      1  N   LIG    1        0.042   1.845  -5.711  0.00  0.00    -0.560 N 
ATOM      2  C   LIG    1       -1.231   1.455  -5.564  0.00  0.00    +0.700 C 
ATOM      3  N   LIG    1       -1.647   1.532  -4.283  0.00  0.00    -0.720 N 
ATOM      4  H   LIG    1       -2.525   1.303  -3.941  0.00  0.00    +0.450 HD
ATOM      5  C   LIG    1       -0.506   2.030  -3.515  0.00  0.00    +0.100 C 
ATOM      6  C   LIG    1       -0.838   3.344  -2.798  0.00  0.00    +0.110 C 
ATOM      7  C   LIG    1       -0.586   3.048  -1.302  0.00  0.00    +0.290 C 
ATOM      8  N   LIG    1       -0.723   1.572  -1.182  0.00  0.00    -0.390 N 
ATOM      9  H   LIG    1       -1.697   1.311  -1.143  0.00  0.00    +0.430 HD
ATOM     10  C   LIG    1       -0.091   1.038  -2.419  0.00  0.00    +0.320 C 
ATOM     11  O   LIG    1       -1.932   1.075  -6.481  0.00  0.00    -0.500 OA
ATOM     12  C   LIG    1        0.587   2.217  -4.532  0.00  0.00    +0.540 C 
ATOM     13  O   LIG    1        1.715   2.616  -4.336  0.00  0.00    -0.440 OA
ENDROOT
BRANCH   1  15
ATOM     14  C   LIG    1        0.795   0.451  -7.575  0.00  0.00    +0.060 C 
ATOM     15  C   LIG    1        0.755   1.865  -6.991  0.00  0.00    +0.250 C 
ATOM     16  C   LIG    1        0.031   2.798  -7.963  0.00  0.00    +0.060 C 
ENDBRANCH   1  15
BRANCH   8  17
ATOM     17  C   LIG    1       -0.013   1.086   0.008  0.00  0.00    +0.290 C 
BRANCH  17  18
ATOM     18  C   LIG    1       -0.729   1.579   1.267  0.00  0.00    +0.080 C 
BRANCH  18  19
ATOM     19  C   LIG    1        0.011   1.072   2.506  0.00  0.00    +0.470 C 
ATOM     20  F   LIG    1        0.030  -0.327   2.499  0.00  0.00    -0.170 F 
ATOM     21  F   LIG    1       -0.644   1.524   3.657  0.00  0.00    -0.160 F 
ATOM     22  F   LIG    1        1.324   1.557   2.496  0.00  0.00    -0.170 F 
ENDBRANCH  18  19
ENDBRANCH  17  18
ENDBRANCH   8  17
TORSDOF 4
