REMARK  Name = ZINCrH00000tj1mD.0
REMARK                            x       y       z     vdW  Elec       q    Type
REMARK                         _______ _______ _______ _____ _____    ______ ____
ROOT
ATOM      1  C   LIG    1        1.405   8.331  -1.240  0.00  0.00    +0.300 C 
ENDROOT
BRANCH   1   2
ATOM      2  C   LIG    1        1.465   9.823  -1.036  0.00  0.00    +0.000 A 
ATOM      3  C   LIG    1        1.497  10.341   0.247  0.00  0.00    +0.070 A 
ATOM      4  C   LIG    1        1.553  11.706   0.441  0.00  0.00    +0.120 A 
ATOM      5  C   LIG    1        1.576  12.564  -0.659  0.00  0.00    -0.140 A 
ATOM      6  C   LIG    1        1.542  12.035  -1.950  0.00  0.00    +0.180 A 
ATOM      7  C   LIG    1        1.493  10.668  -2.131  0.00  0.00    -0.050 A 
BRANCH   5   8
ATOM      8  C   LIG    1        1.635  14.028  -0.458  0.00  0.00    +0.570 C 
ATOM      9  O   LIG    1        1.655  14.773  -1.418  0.00  0.00    -0.520 OA
ATOM     10  N   LIG    1        1.668  14.536   0.790  0.00  0.00    -0.840 N 
ATOM     11  H   LIG    1        1.707  15.496   0.922  0.00  0.00    +0.410 HD
ATOM     12  H   LIG    1        1.652  13.941   1.556  0.00  0.00    +0.400 HD
ENDBRANCH   5   8
BRANCH   7  13
ATOM     13  N   LIG    1        1.464  10.104  -3.499  0.00  0.00    +0.030 N 
ATOM     14  O   LIG    1        1.415   8.898  -3.660  0.00  0.00    -0.160 OA
ATOM     15  O   LIG    1        1.488  10.847  -4.464  0.00  0.00    -0.140 OA
ENDBRANCH   7  13
ENDBRANCH   1   2
BRANCH   1  16
ATOM     16  O   LIG    1        1.392   7.676   0.029  0.00  0.00    -0.320 OA
BRANCH  16  20
ATOM     17  C   LIG    1        1.232   3.549   0.009  0.00  0.00    -0.100 A 
ATOM     18  C   LIG    1        0.050   4.296   0.019  0.00  0.00    +0.120 A 
ATOM     19  C   LIG    1        0.108   5.673   0.030  0.00  0.00    -0.060 A 
ATOM     20  C   LIG    1        1.339   6.319   0.023  0.00  0.00    +0.150 A 
ATOM     21  C   LIG    1        2.517   5.580   0.007  0.00  0.00    -0.060 A 
ATOM     22 CL   LIG    1        4.051   6.392  -0.003  0.00  0.00    -0.030 Cl
ATOM     23 CL   LIG    1       -1.359   6.602   0.049  0.00  0.00    -0.030 Cl
ATOM     24  C   LIG    1        2.467   4.203   0.001  0.00  0.00    +0.130 A 
BRANCH  17  25
ATOM     25  C   LIG    1        1.175   2.076   0.002  0.00  0.00    +0.510 C 
ATOM     26  O   LIG    1        2.202   1.428  -0.011  0.00  0.00    -0.490 OA
BRANCH  25  27
ATOM     27  O   LIG    1       -0.018   1.448   0.010  0.00  0.00    -0.350 OA
BRANCH  27  29
ATOM     28  C   LIG    1       -1.433  -0.534   0.013  0.00  0.00    +0.070 C 
ATOM     29  C   LIG    1        0.002  -0.004   0.002  0.00  0.00    +0.200 C 
ENDBRANCH  27  29
ENDBRANCH  25  27
ENDBRANCH  17  25
ENDBRANCH  16  20
ENDBRANCH   1  16
TORSDOF 8
