REMARK  Name = ZINCrg000000r9aL.0
REMARK                            x       y       z     vdW  Elec       q    Type
REMARK                         _______ _______ _______ _____ _____    ______ ____
ROOT
ATOM      1  C   LIG    1       -1.583   6.680   2.064  0.00  0.00    +0.260 C 
ENDROOT
BRANCH   1   2
ATOM      2  C   LIG    1       -0.369   5.787   2.076  0.00  0.00    +0.510 C 
ATOM      3  N   LIG    1       -0.512   4.454   1.937  0.00  0.00    -0.610 N 
ATOM      4  C   LIG    1        0.655   3.564   2.016  0.00  0.00    +0.290 C 
ATOM      5  C   LIG    1        0.714   2.718   0.739  0.00  0.00    +0.270 C 
ATOM      6  N   LIG    1       -0.612   2.128   0.505  0.00  0.00    -0.620 N 
ATOM      7  C   LIG    1       -1.778   3.018   0.420  0.00  0.00    +0.280 C 
ATOM      8  C   LIG    1       -0.755   0.795   0.366  0.00  0.00    +0.520 C 
ATOM      9  O   LIG    1       -1.862   0.311   0.263  0.00  0.00    -0.540 OA
ATOM     10  C   LIG    1        0.462  -0.095   0.338  0.00  0.00    +0.100 C 
ATOM     11  C   LIG    1       -1.837   3.864   1.703  0.00  0.00    +0.260 C 
ATOM     12  O   LIG    1        0.736   6.268   2.211  0.00  0.00    -0.510 OA
ENDBRANCH   1   2
BRANCH   1  13
ATOM     13  N   LIG    1       -1.159   8.079   1.959  0.00  0.00    -1.090 NA
ATOM     14  H   LIG    1       -0.912   8.572   2.757  0.00  0.00    +0.430 HD
BRANCH  13  15
ATOM     15  S   LIG    1       -1.101   8.817   0.478  0.00  0.00    +2.690 S 
ATOM     16  O   LIG    1       -0.436   7.914  -0.395  0.00  0.00    -0.950 OA
ATOM     17  O   LIG    1       -0.655  10.146   0.709  0.00  0.00    -0.950 OA
BRANCH  15  18
ATOM     18  C   LIG    1       -2.759   8.943  -0.107  0.00  0.00    -0.690 A 
ATOM     19  C   LIG    1       -3.330   7.891  -0.798  0.00  0.00    +0.120 A 
ATOM     20  C   LIG    1       -4.632   7.988  -1.253  0.00  0.00    -0.010 A 
ATOM     21  C   LIG    1       -5.359   9.142  -1.025  0.00  0.00    -0.030 A 
ATOM     22  C   LIG    1       -4.786  10.196  -0.338  0.00  0.00    -0.010 A 
ATOM     23  C   LIG    1       -6.777   9.250  -1.525  0.00  0.00    +0.090 C 
ATOM     24  C   LIG    1       -3.486  10.097   0.120  0.00  0.00    +0.130 A 
ENDBRANCH  15  18
ENDBRANCH  13  15
ENDBRANCH   1  13
BRANCH   1  25
ATOM     25  C   LIG    1       -2.373   6.483   3.360  0.00  0.00    +0.080 C 
BRANCH  25  26
ATOM     26  C   LIG    1       -3.681   7.273   3.284  0.00  0.00    +0.090 C 
BRANCH  26  28
ATOM     27  C   LIG    1       -6.120   8.005   4.540  0.00  0.00    +0.140 C 
ATOM     28  S   LIG    1       -4.554   7.152   4.870  0.00  0.00    -0.250 S 
ENDBRANCH  26  28
ENDBRANCH  25  26
ENDBRANCH   1  25
TORSDOF 7
