REMARK  Name = ZINCpe000000YyB5.0
REMARK                            x       y       z     vdW  Elec       q    Type
REMARK                         _______ _______ _______ _____ _____    ______ ____
ROOT
ATOM      1  N   LIG    1       -0.064  -0.029   0.002  0.00  0.00    -0.740 N 
ATOM      2  H   LIG    1       -0.882  -0.550  -0.017  0.00  0.00    +0.400 HD
ATOM      3  C   LIG    1       -0.122   1.317   0.026  0.00  0.00    +0.510 C 
ATOM      4  O   LIG    1        0.901   1.968   0.049  0.00  0.00    -0.530 OA
ENDROOT
BRANCH   1   5
ATOM      5  C   LIG    1        1.236  -0.706   0.002  0.00  0.00    +0.290 C 
BRANCH   5   6
ATOM      6  C   LIG    1        1.023  -2.218   0.105  0.00  0.00    -0.090 C 
ATOM      7  C   LIG    1        0.214  -2.537   1.366  0.00  0.00    +0.030 C 
ATOM      8  C   LIG    1        0.073  -4.055   1.502  0.00  0.00    +0.220 C 
ATOM      9  O   LIG    1        1.372  -4.650   1.547  0.00  0.00    -0.380 OA
ATOM     10  C   LIG    1        2.157  -4.425   0.374  0.00  0.00    +0.210 C 
ATOM     11  C   LIG    1        2.381  -2.921   0.192  0.00  0.00    +0.030 C 
BRANCH   6  15
ATOM     12  N   LIG    1        0.866  -2.659  -2.324  0.00  0.00    -0.850 N 
ATOM     13  H   LIG    1        0.415  -3.037  -3.095  0.00  0.00    +0.410 HD
ATOM     14  H   LIG    1        1.738  -2.248  -2.425  0.00  0.00    +0.400 HD
ATOM     15  C   LIG    1        0.279  -2.707  -1.111  0.00  0.00    +0.530 C 
ATOM     16  O   LIG    1       -0.847  -3.142  -0.998  0.00  0.00    -0.530 OA
ENDBRANCH   6  15
ENDBRANCH   5   6
ENDBRANCH   1   5
BRANCH   3  17
ATOM     17  C   LIG    1       -1.458   2.013   0.019  0.00  0.00    +0.150 C 
BRANCH  17  18
ATOM     18  C   LIG    1       -1.248   3.505   0.051  0.00  0.00    -0.210 A 
ATOM     19  C   LIG    1       -1.120   4.314  -1.026  0.00  0.00    +0.240 A 
ATOM     20  N   LIG    1       -0.947   5.577  -0.575  0.00  0.00    -0.320 N 
ATOM     21  N   LIG    1       -0.969   5.540   0.826  0.00  0.00    -0.290 NA
ATOM     22  C   LIG    1       -1.156   4.299   1.199  0.00  0.00    +0.260 A 
BRANCH  20  23
ATOM     23  C   LIG    1       -0.775   6.720  -1.367  0.00  0.00    +0.160 A 
ATOM     24  C   LIG    1       -0.768   6.613  -2.751  0.00  0.00    -0.010 A 
ATOM     25  C   LIG    1       -0.606   7.742  -3.529  0.00  0.00    +0.040 A 
ATOM     26  C   LIG    1       -0.438   8.977  -2.931  0.00  0.00    +0.000 A 
ATOM     27  C   LIG    1       -0.439   9.087  -1.553  0.00  0.00    +0.040 A 
ATOM     28  C   LIG    1       -0.607   7.962  -0.769  0.00  0.00    +0.020 A 
ENDBRANCH  20  23
ENDBRANCH  17  18
ENDBRANCH   3  17
TORSDOF 6
