REMARK  Name = ZINCqH0000004ULv.0
REMARK                            x       y       z     vdW  Elec       q    Type
REMARK                         _______ _______ _______ _____ _____    ______ ____
ROOT
ATOM      1  C   LIG    1        2.542   2.421   2.261  0.00  0.00    +0.520 C 
ATOM      2  N   LIG    1        2.063   1.647   1.268  0.00  0.00    -0.610 N 
ATOM      3  C   LIG    1        2.275   0.194   1.282  0.00  0.00    +0.270 C 
ATOM      4  C   LIG    1        0.919  -0.504   1.134  0.00  0.00    +0.030 C 
ATOM      5  C   LIG    1        0.217   0.016  -0.123  0.00  0.00    +0.040 C 
ATOM      6  C   LIG    1       -0.026   1.521   0.013  0.00  0.00    +0.150 C 
ATOM      7  C   LIG    1        1.319   2.242   0.148  0.00  0.00    +0.270 C 
ATOM      8  O   LIG    1        2.360   3.620   2.238  0.00  0.00    -0.520 OA
ENDROOT
BRANCH   1   9
ATOM      9  C   LIG    1        3.304   1.797   3.402  0.00  0.00    +0.150 C 
BRANCH   9  13
ATOM     10  N   LIG    1        4.882   4.431   5.369  0.00  0.00    -0.370 N 
ATOM     11  N   LIG    1        3.682   4.257   6.071  0.00  0.00    -0.300 NA
ATOM     12  C   LIG    1        2.990   3.322   5.472  0.00  0.00    +0.090 A 
ATOM     13  C   LIG    1        3.726   2.871   4.371  0.00  0.00    -0.230 A 
ATOM     14  C   LIG    1        1.635   2.817   5.896  0.00  0.00    +0.150 C 
ATOM     15  C   LIG    1        4.887   3.565   4.334  0.00  0.00    +0.100 A 
ATOM     16  C   LIG    1        5.987   3.403   3.316  0.00  0.00    +0.130 C 
BRANCH  10  18
ATOM     17  C   LIG    1        6.946   4.715   6.650  0.00  0.00    +0.040 C 
ATOM     18  C   LIG    1        5.946   5.381   5.703  0.00  0.00    +0.320 C 
ENDBRANCH  10  18
ENDBRANCH   9  13
ENDBRANCH   1   9
BRANCH   6  19
ATOM     19  O   LIG    1       -0.709   2.000  -1.148  0.00  0.00    -0.290 OA
BRANCH  19  20
ATOM     20  C   LIG    1       -1.450   3.131  -1.005  0.00  0.00    +0.140 A 
ATOM     21  C   LIG    1       -1.429   3.828   0.194  0.00  0.00    -0.060 A 
ATOM     22  C   LIG    1       -2.184   4.977   0.337  0.00  0.00    +0.060 A 
ATOM     23  C   LIG    1       -2.959   5.432  -0.714  0.00  0.00    -0.010 A 
ATOM     24  C   LIG    1       -2.982   4.739  -1.910  0.00  0.00    +0.070 A 
ATOM     25  C   LIG    1       -2.224   3.593  -2.061  0.00  0.00    -0.070 A 
ATOM     26 CL   LIG    1       -2.247   2.728  -3.566  0.00  0.00    -0.060 Cl
ENDBRANCH  19  20
ENDBRANCH   6  19
TORSDOF 5
