REMARK  Name = ZINCrH000004rv6B.0
REMARK                            x       y       z     vdW  Elec       q    Type
REMARK                         _______ _______ _______ _____ _____    ______ ____
ROOT
ATOM      1  C   LIG    1       -3.137   3.067   4.909  0.00  0.00    +0.090 C 
ATOM      2  C   LIG    1       -2.359   2.653   3.687  0.00  0.00    -0.110 A 
ATOM      3  C   LIG    1       -1.446   3.521   3.123  0.00  0.00    +0.040 A 
ATOM      4  C   LIG    1       -0.727   3.140   2.004  0.00  0.00    +0.050 A 
ATOM      5  C   LIG    1       -0.930   1.894   1.440  0.00  0.00    -0.630 A 
ATOM      6  C   LIG    1       -1.842   1.021   1.999  0.00  0.00    +0.040 A 
ATOM      7  C   LIG    1       -2.561   1.398   3.126  0.00  0.00    +0.200 A 
ENDROOT
BRANCH   5   8
ATOM      8  S   LIG    1       -0.017   1.417   0.010  0.00  0.00    +2.690 S 
ATOM      9  O   LIG    1        1.162   2.210   0.003  0.00  0.00    -0.950 OA
ATOM     10  O   LIG    1        0.002  -0.004   0.002  0.00  0.00    -0.960 OA
BRANCH   8  11
ATOM     11  N   LIG    1       -0.900   1.880  -1.312  0.00  0.00    -1.000 NA
ATOM     12  C   LIG    1       -1.882   0.967  -1.914  0.00  0.00    +0.290 C 
ATOM     13  C   LIG    1       -3.234   1.691  -2.000  0.00  0.00    +0.000 C 
ATOM     14  C   LIG    1       -3.054   3.008  -2.759  0.00  0.00    +0.000 C 
ATOM     15  C   LIG    1       -2.074   3.906  -1.999  0.00  0.00    +0.010 C 
ATOM     16  C   LIG    1       -0.713   3.209  -1.910  0.00  0.00    +0.290 C 
ENDBRANCH   8  11
ENDBRANCH   5   8
BRANCH   7  17
ATOM     17  N   LIG    1       -3.484   0.517   3.694  0.00  0.00    -0.740 N 
ATOM     18  H   LIG    1       -3.986   0.782   4.481  0.00  0.00    +0.400 HD
BRANCH  17  19
ATOM     19  C   LIG    1       -3.695  -0.806   3.102  0.00  0.00    +0.340 C 
BRANCH  19  20
ATOM     20  C   LIG    1       -4.734  -1.553   3.898  0.00  0.00    -0.260 A 
ATOM     21  C   LIG    1       -4.495  -2.364   4.955  0.00  0.00    +0.250 A 
ATOM     22  N   LIG    1       -5.683  -2.836   5.388  0.00  0.00    -0.360 N 
ATOM     23  N   LIG    1       -6.684  -2.304   4.564  0.00  0.00    -0.290 NA
ATOM     24  C   LIG    1       -6.114  -1.536   3.672  0.00  0.00    +0.240 A 
BRANCH  22  25
ATOM     25  C   LIG    1       -5.889  -3.748   6.516  0.00  0.00    +0.180 C 
ATOM     26  C   LIG    1       -4.862  -4.879   6.451  0.00  0.00    +0.060 C 
ATOM     27  C   LIG    1       -7.300  -4.335   6.446  0.00  0.00    +0.070 C 
ATOM     28  C   LIG    1       -5.721  -2.981   7.829  0.00  0.00    +0.050 C 
ENDBRANCH  22  25
ENDBRANCH  19  20
ENDBRANCH  17  19
ENDBRANCH   7  17
TORSDOF 6
