REMARK  Name = ZINCvU00000004aq.2
REMARK                            x       y       z     vdW  Elec       q    Type
REMARK                         _______ _______ _______ _____ _____    ______ ____
ROOT
ATOM      1  C   LIG    1       -2.618   5.769  -2.368  0.00  0.00    +0.570 C 
ATOM      2  N   LIG    1       -3.684   5.367  -1.649  0.00  0.00    -0.720 N 
ATOM      3  H   LIG    1       -3.721   4.464  -1.299  0.00  0.00    +0.400 HD
ATOM      4  O   LIG    1       -2.613   6.870  -2.885  0.00  0.00    -0.530 OA
ENDROOT
BRANCH   1   6
ATOM      5  C   LIG    1       -0.364   5.313  -3.142  0.00  0.00    +0.150 C 
ATOM      6  C   LIG    1       -1.459   4.877  -2.527  0.00  0.00    -0.180 C 
BRANCH   6   7
ATOM      7  C   LIG    1       -1.514   3.469  -1.994  0.00  0.00    +0.210 C 
BRANCH   7   8
ATOM      8  N   LIG    1       -2.203   2.605  -2.962  0.00  0.00    -0.520 NA
ATOM      9  C   LIG    1       -1.565   2.685  -4.289  0.00  0.00    +0.180 C 
ATOM     10  C   LIG    1       -1.161   1.251  -4.690  0.00  0.00    +0.010 C 
ATOM     11  C   LIG    1       -2.100   0.369  -3.825  0.00  0.00    +0.040 C 
ATOM     12  C   LIG    1       -2.189   1.195  -2.518  0.00  0.00    +0.190 C 
BRANCH  12  13
ATOM     13  C   LIG    1       -3.458   0.866  -1.774  0.00  0.00    -0.060 A 
ATOM     14  C   LIG    1       -4.607   1.595  -2.013  0.00  0.00    +0.050 A 
ATOM     15  C   LIG    1       -5.770   1.298  -1.327  0.00  0.00    +0.010 A 
ATOM     16  C   LIG    1       -5.784   0.270  -0.402  0.00  0.00    +0.030 A 
ATOM     17  C   LIG    1       -4.635  -0.460  -0.163  0.00  0.00    +0.020 A 
ATOM     18  C   LIG    1       -3.471  -0.163  -0.849  0.00  0.00    -0.030 A 
ATOM     19 CL   LIG    1       -2.028  -1.079  -0.548  0.00  0.00    -0.070 Cl
ENDBRANCH  12  13
ENDBRANCH   7   8
ENDBRANCH   6   7
ENDBRANCH   1   6
BRANCH   2  20
ATOM     20  C   LIG    1       -4.789   6.296  -1.395  0.00  0.00    +0.350 C 
BRANCH  20  21
ATOM     21  C   LIG    1       -5.514   5.884  -0.140  0.00  0.00    -0.140 A 
ATOM     22  C   LIG    1       -5.959   6.840   0.759  0.00  0.00    +0.080 A 
ATOM     23  C   LIG    1       -6.622   6.415   1.901  0.00  0.00    -0.030 A 
ATOM     24  C   LIG    1       -6.814   5.061   2.103  0.00  0.00    +0.260 A 
ATOM     25  N   LIG    1       -6.376   4.179   1.225  0.00  0.00    -0.470 NA
ATOM     26  C   LIG    1       -5.748   4.548   0.126  0.00  0.00    +0.260 A 
ENDBRANCH  20  21
BRANCH  20  27
ATOM     27  C   LIG    1       -5.746   6.268  -2.560  0.00  0.00    -0.090 A 
ATOM     28  C   LIG    1       -6.049   5.069  -3.176  0.00  0.00    +0.020 A 
ATOM     29  C   LIG    1       -6.931   5.043  -4.241  0.00  0.00    +0.000 A 
ATOM     30  C   LIG    1       -7.500   6.217  -4.696  0.00  0.00    +0.000 A 
ATOM     31  C   LIG    1       -7.192   7.417  -4.083  0.00  0.00    +0.000 A 
ATOM     32  C   LIG    1       -6.315   7.443  -3.015  0.00  0.00    +0.020 A 
ENDBRANCH  20  27
ENDBRANCH   2  20
TORSDOF 7
