REMARK  Name = ZINCrD00000hQ6cx.0
REMARK                            x       y       z     vdW  Elec       q    Type
REMARK                         _______ _______ _______ _____ _____    ______ ____
ROOT
ATOM      1  C   LIG    1       -5.744   0.558  -4.512  0.00  0.00    +0.310 C 
ENDROOT
BRANCH   1   6
ATOM      2  N   LIG    1       -8.072   1.229  -7.431  0.00  0.00    -0.530 NA
ATOM      3  C   LIG    1       -8.491   2.578  -7.023  0.00  0.00    +0.150 C 
ATOM      4  C   LIG    1       -7.282   3.336  -6.467  0.00  0.00    +0.220 C 
ATOM      5  O   LIG    1       -6.718   2.593  -5.383  0.00  0.00    -0.380 OA
ATOM      6  C   LIG    1       -6.298   1.275  -5.745  0.00  0.00    +0.170 C 
ATOM      7  C   LIG    1       -7.497   0.496  -6.294  0.00  0.00    +0.170 C 
BRANCH   7   8
ATOM      8  C   LIG    1       -7.045  -0.867  -6.750  0.00  0.00    -0.090 A 
ATOM      9  C   LIG    1       -6.435  -1.017  -7.982  0.00  0.00    +0.040 A 
ATOM     10  C   LIG    1       -6.018  -2.267  -8.399  0.00  0.00    +0.000 A 
ATOM     11  C   LIG    1       -6.217  -3.368  -7.588  0.00  0.00    +0.000 A 
ATOM     12  C   LIG    1       -6.831  -3.220  -6.359  0.00  0.00    +0.000 A 
ATOM     13  C   LIG    1       -7.245  -1.969  -5.940  0.00  0.00    +0.010 A 
ENDBRANCH   7   8
BRANCH   2  15
ATOM     14  C   LIG    1      -10.256   0.230  -6.955  0.00  0.00    -0.010 C 
ATOM     15  C   LIG    1       -9.192   0.487  -8.024  0.00  0.00    +0.210 C 
ENDBRANCH   2  15
ENDBRANCH   1   6
BRANCH   1  16
ATOM     16  N   LIG    1       -4.601   1.306  -3.985  0.00  0.00    -0.740 N 
ATOM     17  H   LIG    1       -4.312   2.123  -4.421  0.00  0.00    +0.400 HD
ATOM     18  C   LIG    1       -3.949   0.860  -2.893  0.00  0.00    +0.700 C 
ATOM     19  N   LIG    1       -2.897   1.548  -2.408  0.00  0.00    -0.740 N 
ATOM     20  H   LIG    1       -2.608   2.365  -2.844  0.00  0.00    +0.400 HD
ATOM     21  O   LIG    1       -4.310  -0.164  -2.345  0.00  0.00    -0.580 OA
BRANCH  19  22
ATOM     22  C   LIG    1       -2.188   1.063  -1.221  0.00  0.00    +0.270 C 
ATOM     23  C   LIG    1       -0.753   1.593  -1.232  0.00  0.00    +0.020 C 
ATOM     24  C   LIG    1       -0.013   1.086   0.008  0.00  0.00    +0.050 C 
ATOM     25  C   LIG    1       -0.729   1.579   1.267  0.00  0.00    +0.030 C 
ATOM     26  C   LIG    1       -2.164   1.050   1.278  0.00  0.00    +0.290 C 
ATOM     27  F   LIG    1       -2.145  -0.349   1.270  0.00  0.00    -0.200 F 
ATOM     28  F   LIG    1       -2.819   1.501   2.429  0.00  0.00    -0.200 F 
ATOM     29  C   LIG    1       -2.904   1.556   0.038  0.00  0.00    +0.010 C 
ENDBRANCH  19  22
ENDBRANCH   1  16
TORSDOF 5
