REMARK  Name = ZINCpe000000Uz5y.0
REMARK                            x       y       z     vdW  Elec       q    Type
REMARK                         _______ _______ _______ _____ _____    ______ ____
ROOT
ATOM      1  C   LIG    1        7.852   0.742   0.834  0.00  0.00    +0.300 C 
ATOM      2  N   LIG    1        7.180   0.265  -0.378  0.00  0.00    -0.600 N 
ATOM      3  C   LIG    1        7.572   0.714  -1.587  0.00  0.00    +0.540 C 
ATOM      4  O   LIG    1        7.016   0.319  -2.590  0.00  0.00    -0.520 OA
ENDROOT
BRANCH   3   5
ATOM      5  C   LIG    1        8.701   1.707  -1.692  0.00  0.00    +0.010 C 
ATOM      6  C   LIG    1       10.013   1.114  -1.129  0.00  0.00    +0.090 C 
ATOM      7  C   LIG    1       11.088   1.655  -2.046  0.00  0.00    +0.520 C 
ATOM      8  N   LIG    1       10.536   2.127  -3.177  0.00  0.00    -0.530 N 
ATOM      9  O   LIG    1       12.275   1.661  -1.798  0.00  0.00    -0.520 OA
ATOM     10  C   LIG    1        9.078   1.961  -3.168  0.00  0.00    +0.310 C 
BRANCH   8  11
ATOM     11  C   LIG    1       11.263   2.707  -4.234  0.00  0.00    +0.000 A 
ATOM     12  C   LIG    1       12.609   2.878  -4.279  0.00  0.00    +0.240 A 
ATOM     13  N   LIG    1       12.907   3.471  -5.465  0.00  0.00    -0.470 N 
ATOM     14  H   LIG    1       13.793   3.715  -5.774  0.00  0.00    +0.450 HD
ATOM     15  N   LIG    1       11.708   3.667  -6.162  0.00  0.00    -0.270 NA
ATOM     16  C   LIG    1       10.726   3.205  -5.430  0.00  0.00    +0.230 A 
ENDBRANCH   8  11
ENDBRANCH   3   5
BRANCH   2  17
ATOM     17  C   LIG    1        6.083  -0.701  -0.276  0.00  0.00    +0.340 C 
BRANCH  17  18
ATOM     18  C   LIG    1        4.776   0.037  -0.145  0.00  0.00    +0.500 C 
ATOM     19  N   LIG    1        3.622  -0.651  -0.036  0.00  0.00    -0.670 N 
ATOM     20  H   LIG    1        3.638  -1.618   0.035  0.00  0.00    +0.410 HD
ATOM     21  O   LIG    1        4.761   1.250  -0.139  0.00  0.00    -0.510 OA
BRANCH  19  22
ATOM     22  C   LIG    1        2.399   0.030  -0.026  0.00  0.00    +0.140 A 
ATOM     23  C   LIG    1        2.245   1.194  -0.768  0.00  0.00    +0.010 A 
ATOM     24  C   LIG    1        1.038   1.865  -0.756  0.00  0.00    +0.030 A 
ATOM     25  C   LIG    1       -0.017   1.378  -0.006  0.00  0.00    -0.010 A 
ATOM     26  C   LIG    1        0.133   0.219   0.734  0.00  0.00    +0.030 A 
ATOM     27  C   LIG    1        1.338  -0.456   0.726  0.00  0.00    -0.020 A 
ENDBRANCH  19  22
ENDBRANCH  17  18
ENDBRANCH   2  17
TORSDOF 5
