REMARK  Name = ZINCqH0000007Azl.0
REMARK                            x       y       z     vdW  Elec       q    Type
REMARK                         _______ _______ _______ _____ _____    ______ ____
ROOT
ATOM      1  C   LIG    1       -0.655   2.014  -2.033  0.00  0.00    +0.130 A 
ATOM      2  C   LIG    1        0.509   2.727  -2.082  0.00  0.00    +0.000 A 
ATOM      3  C   LIG    1        1.442   2.603  -1.040  0.00  0.00    -0.070 A 
ATOM      4  C   LIG    1        2.651   3.320  -1.056  0.00  0.00    +0.120 A 
ATOM      5  C   LIG    1        3.526   3.147   0.010  0.00  0.00    -0.170 A 
ATOM      6  C   LIG    1        3.180   2.273   1.054  0.00  0.00    +0.190 A 
ATOM      7  N   LIG    1        2.050   1.614   1.049  0.00  0.00    -0.460 NA
ATOM      8  C   LIG    1        4.133   2.088   2.206  0.00  0.00    +0.140 C 
ATOM      9  C   LIG    1        1.167   1.740   0.051  0.00  0.00    +0.120 A 
ATOM     10  C   LIG    1       -0.042   1.022   0.067  0.00  0.00    +0.080 A 
ATOM     11  C   LIG    1       -0.925   1.159  -0.959  0.00  0.00    -0.020 A 
ENDROOT
BRANCH   5  12
ATOM     12  C   LIG    1        4.811   3.877   0.044  0.00  0.00    +0.570 C 
ATOM     13  N   LIG    1        4.826   5.220  -0.072  0.00  0.00    -0.610 N 
ATOM     14  C   LIG    1        3.574   5.991  -0.113  0.00  0.00    +0.240 C 
ATOM     15  C   LIG    1        3.670   7.124   0.916  0.00  0.00    +0.210 C 
ATOM     16  O   LIG    1        4.876   7.859   0.695  0.00  0.00    -0.360 OA
ATOM     17  C   LIG    1        6.070   7.093   0.867  0.00  0.00    +0.110 C 
ATOM     18  C   LIG    1        6.099   6.501   2.277  0.00  0.00    -0.010 C 
ATOM     19  C   LIG    1        6.080   7.633   3.307  0.00  0.00    +0.010 C 
ATOM     20  C   LIG    1        7.303   8.529   3.103  0.00  0.00    +0.000 C 
ATOM     21  C   LIG    1        7.270   9.123   1.693  0.00  0.00    +0.010 C 
ATOM     22  C   LIG    1        7.290   7.992   0.663  0.00  0.00    +0.050 C 
ATOM     23  C   LIG    1        6.096   5.958  -0.156  0.00  0.00    +0.270 C 
ATOM     24  O   LIG    1        5.853   3.266   0.178  0.00  0.00    -0.520 OA
ENDBRANCH   5  12
BRANCH   1  26
ATOM     25  C   LIG    1       -2.757   1.361  -2.932  0.00  0.00    +0.240 C 
ATOM     26  O   LIG    1       -1.559   2.132  -3.041  0.00  0.00    -0.310 OA
ENDBRANCH   1  26
TORSDOF 2
