REMARK  Name = ZINCrD00000F5LnR.0
REMARK                            x       y       z     vdW  Elec       q    Type
REMARK                         _______ _______ _______ _____ _____    ______ ____
ROOT
ATOM      1  C   LIG    1       -0.016   1.346   0.009  0.00  0.00    -0.070 C 
ATOM      2  C   LIG    1        0.002  -0.004   0.002  0.00  0.00    +0.120 C 
ENDROOT
BRANCH   2   3
ATOM      3  C   LIG    1       -1.261  -0.756   0.010  0.00  0.00    -0.060 A 
ATOM      4  C   LIG    1       -2.483  -0.075   0.031  0.00  0.00    +0.040 A 
ATOM      5  C   LIG    1       -3.665  -0.783   0.032  0.00  0.00    -0.020 A 
ATOM      6  C   LIG    1       -3.648  -2.171   0.025  0.00  0.00    +0.090 A 
ATOM      7  C   LIG    1       -2.433  -2.857   0.010  0.00  0.00    +0.120 A 
ATOM      8  C   LIG    1       -1.244  -2.156   0.002  0.00  0.00    +0.000 A 
BRANCH   7   9
ATOM      9  O   LIG    1       -2.421  -4.217   0.003  0.00  0.00    -0.310 OA
ATOM     10  C   LIG    1       -1.142  -4.854  -0.013  0.00  0.00    +0.250 C 
ENDBRANCH   7   9
BRANCH   6  11
ATOM     11  O   LIG    1       -4.816  -2.863   0.031  0.00  0.00    -0.310 OA
BRANCH  11  12
ATOM     12  C   LIG    1       -6.023  -2.098   0.046  0.00  0.00    +0.600 C 
ATOM     13  F   LIG    1       -6.074  -1.285  -1.091  0.00  0.00    -0.200 F 
ATOM     14  F   LIG    1       -6.054  -1.298   1.194  0.00  0.00    -0.200 F 
ENDBRANCH  11  12
ENDBRANCH   6  11
ENDBRANCH   2   3
BRANCH   1  16
ATOM     15  N   LIG    1        1.222   3.442   0.009  0.00  0.00    -0.610 N 
ATOM     16  C   LIG    1        1.240   2.094   0.002  0.00  0.00    +0.550 C 
ATOM     17  O   LIG    1        2.303   1.500  -0.012  0.00  0.00    -0.540 OA
BRANCH  15  18
ATOM     18  C   LIG    1        2.481   4.191   0.001  0.00  0.00    +0.320 C 
BRANCH  18  19
ATOM     19  C   LIG    1        2.905   4.460  -1.444  0.00  0.00    +0.090 C 
BRANCH  19  20
ATOM     20  C   LIG    1        4.200   5.231  -1.452  0.00  0.00    +0.470 C 
ATOM     21  O   LIG    1        4.729   5.535  -0.409  0.00  0.00    -0.510 OA
BRANCH  20  23
ATOM     22  C   LIG    1        6.012   6.323  -2.550  0.00  0.00    +0.250 C 
ATOM     23  O   LIG    1        4.765   5.581  -2.619  0.00  0.00    -0.360 OA
ENDBRANCH  20  23
ENDBRANCH  19  20
ENDBRANCH  18  19
ENDBRANCH  15  18
BRANCH  15  24
ATOM     24  C   LIG    1       -0.057   4.157   0.025  0.00  0.00    +0.270 C 
BRANCH  24  25
ATOM     25  C   LIG    1       -0.488   4.398   1.473  0.00  0.00    -0.040 C 
ATOM     26  C   LIG    1       -0.766   3.056   2.152  0.00  0.00    +0.030 C 
ATOM     27  C   LIG    1       -1.757   5.252   1.492  0.00  0.00    +0.030 C 
ENDBRANCH  24  25
ENDBRANCH  15  24
ENDBRANCH   1  16
TORSDOF 11
