REMARK  Name = ZINCkj000005ld9P.1
REMARK                            x       y       z     vdW  Elec       q    Type
REMARK                         _______ _______ _______ _____ _____    ______ ____
ROOT
ATOM      1  S   LIG    1        1.559  -5.120  -0.041  0.00  0.00    +0.180 S 
ENDROOT
BRANCH   1   2
ATOM      2  C   LIG    1        2.747  -6.421  -0.060  0.00  0.00    +0.390 C 
ATOM      3  N   LIG    1        4.036  -6.118  -0.076  0.00  0.00    -0.560 NA
ATOM      4  C   LIG    1        4.962  -7.075  -0.085  0.00  0.00    +0.520 C 
ATOM      5  C   LIG    1        4.558  -8.407  -0.088  0.00  0.00    -0.150 C 
ATOM      6  C   LIG    1        3.195  -8.687  -0.076  0.00  0.00    +0.510 C 
ATOM      7  N   LIG    1        2.327  -7.678  -0.063  0.00  0.00    -0.560 NA
ATOM      8  H   LIG    1        1.375  -7.865  -0.054  0.00  0.00    +0.440 HD
BRANCH   6   9
ATOM      9  N   LIG    1        2.747  -9.999  -0.078  0.00  0.00    -0.810 NA
ATOM     10  H   LIG    1        3.385 -10.729  -0.088  0.00  0.00    +0.440 HD
ATOM     11  H   LIG    1        1.795 -10.187  -0.070  0.00  0.00    +0.420 HD
ENDBRANCH   6   9
BRANCH   4  12
ATOM     12  N   LIG    1        6.309  -6.749  -0.097  0.00  0.00    -0.790 NA
ATOM     13  H   LIG    1        6.583  -5.819  -0.095  0.00  0.00    +0.430 HD
ATOM     14  H   LIG    1        6.978  -7.452  -0.107  0.00  0.00    +0.430 HD
ENDBRANCH   4  12
ENDBRANCH   1   2
BRANCH   1  15
ATOM     15  C   LIG    1        2.664  -3.686  -0.044  0.00  0.00    +0.140 C 
BRANCH  15  18
ATOM     16  N   LIG    1        2.460  -1.221  -0.028  0.00  0.00    -0.620 N 
ATOM     17  H   LIG    1        3.428  -1.172  -0.038  0.00  0.00    +0.420 HD
ATOM     18  C   LIG    1        1.846  -2.421  -0.029  0.00  0.00    +0.530 C 
ATOM     19  O   LIG    1        0.634  -2.482  -0.017  0.00  0.00    -0.480 OA
BRANCH  16  21
ATOM     20  C   LIG    1        2.229   1.210  -0.013  0.00  0.00    -0.100 A 
ATOM     21  C   LIG    1        1.706  -0.056  -0.015  0.00  0.00    +0.040 A 
ATOM     22  S   LIG    1        0.002  -0.004   0.002  0.00  0.00    +0.320 S 
ATOM     23  C   LIG    1       -0.022   1.750   0.012  0.00  0.00    -0.080 A 
ATOM     24  C   LIG    1        1.212   2.238   0.003  0.00  0.00    +0.090 A 
BRANCH  20  26
ATOM     25  N   LIG    1        4.748   1.706  -0.034  0.00  0.00    -0.410 NA
ATOM     26  C   LIG    1        3.634   1.487  -0.025  0.00  0.00    +0.270 C 
ENDBRANCH  20  26
ENDBRANCH  16  21
ENDBRANCH  15  18
ENDBRANCH   1  15
TORSDOF 7
