REMARK  Name = ZINCrD000000fHE6.0
REMARK                            x       y       z     vdW  Elec       q    Type
REMARK                         _______ _______ _______ _____ _____    ______ ____
ROOT
ATOM      1  C   LIG    1       -5.914  -2.131  -3.443  0.00  0.00    +0.080 C 
ATOM      2  C   LIG    1       -5.325  -1.877  -4.832  0.00  0.00    +0.040 C 
ATOM      3  C   LIG    1       -4.067  -1.016  -4.705  0.00  0.00    +0.010 C 
ATOM      4  C   LIG    1       -3.024  -1.763  -3.868  0.00  0.00    +0.260 C 
ATOM      5  N   LIG    1       -3.630  -2.138  -2.583  0.00  0.00    -0.610 N 
ATOM      6  C   LIG    1       -3.040  -1.800  -1.420  0.00  0.00    +0.520 C 
ATOM      7  O   LIG    1       -3.550  -2.116  -0.366  0.00  0.00    -0.540 OA
ATOM      8  C   LIG    1       -4.890  -2.895  -2.591  0.00  0.00    +0.290 C 
ENDROOT
BRANCH   1  14
ATOM      9  C   LIG    1       -8.451  -2.566  -3.146  0.00  0.00    -0.010 A 
ATOM     10  C   LIG    1       -9.309  -3.575  -3.441  0.00  0.00    +0.250 A 
ATOM     11  N   LIG    1       -8.590  -4.567  -4.026  0.00  0.00    -0.470 N 
ATOM     12  H   LIG    1       -8.938  -5.416  -4.342  0.00  0.00    +0.450 HD
ATOM     13  N   LIG    1       -7.255  -4.148  -4.094  0.00  0.00    -0.270 NA
ATOM     14  C   LIG    1       -7.171  -2.951  -3.571  0.00  0.00    +0.070 A 
BRANCH   9  17
ATOM     15  C   LIG    1      -10.421   0.201  -1.502  0.00  0.00    +0.110 C 
ATOM     16  C   LIG    1      -10.062  -1.103  -2.166  0.00  0.00    +0.510 C 
ATOM     17  N   LIG    1       -8.786  -1.347  -2.526  0.00  0.00    -0.640 N 
ATOM     18  H   LIG    1       -8.099  -0.683  -2.358  0.00  0.00    +0.410 HD
ATOM     19  O   LIG    1      -10.921  -1.933  -2.375  0.00  0.00    -0.540 OA
ENDBRANCH   9  17
ENDBRANCH   1  14
BRANCH   6  20
ATOM     20  C   LIG    1       -1.745  -1.028  -1.429  0.00  0.00    +0.070 C 
BRANCH  20  21
ATOM     21  C   LIG    1       -1.293  -0.775   0.011  0.00  0.00    +0.100 C 
BRANCH  21  22
ATOM     22  C   LIG    1        0.002  -0.004   0.002  0.00  0.00    -0.080 A 
ATOM     23  C   LIG    1       -0.017   1.378   0.010  0.00  0.00    +0.000 A 
ATOM     24  C   LIG    1        1.171   2.086   0.002  0.00  0.00    -0.080 A 
ATOM     25  C   LIG    1        2.377   1.411  -0.015  0.00  0.00    -0.010 A 
ATOM     26  C   LIG    1        2.396   0.029  -0.022  0.00  0.00    -0.080 A 
ATOM     27  C   LIG    1        3.711  -0.707  -0.039  0.00  0.00    +0.090 C 
ATOM     28  C   LIG    1        1.151   3.592   0.010  0.00  0.00    +0.090 C 
ATOM     29  C   LIG    1        1.208  -0.679  -0.013  0.00  0.00    +0.000 A 
ENDBRANCH  21  22
ENDBRANCH  20  21
ENDBRANCH   6  20
TORSDOF 5
