REMARK  Name = ZINCtV00001bB38i.0
REMARK                            x       y       z     vdW  Elec       q    Type
REMARK                         _______ _______ _______ _____ _____    ______ ____
ROOT
ATOM      1  C   LIG    1        3.285   3.366  -1.743  0.00  0.00    -0.060 C 
ATOM      2  C   LIG    1        4.425   4.231  -2.278  0.00  0.00    +0.050 C 
ATOM      3  C   LIG    1        5.801   3.643  -1.895  0.00  0.00    +0.110 C 
ATOM      4  C   LIG    1        5.792   2.218  -2.427  0.00  0.00    -0.090 A 
ATOM      5  C   LIG    1        6.702   1.708  -3.307  0.00  0.00    +0.010 A 
ATOM      6  C   LIG    1        6.574   0.384  -3.709  0.00  0.00    +0.000 A 
ATOM      7  C   LIG    1        5.542  -0.398  -3.226  0.00  0.00    +0.000 A 
ATOM      8  C   LIG    1        4.620   0.128  -2.330  0.00  0.00    +0.040 A 
ATOM      9  C   LIG    1        4.752   1.429  -1.938  0.00  0.00    -0.070 A 
ATOM     10  C   LIG    1        5.775   3.506  -0.382  0.00  0.00    -0.080 A 
ATOM     11  C   LIG    1        6.670   4.086   0.471  0.00  0.00    +0.010 A 
ATOM     12  C   LIG    1        6.527   3.876   1.836  0.00  0.00    +0.000 A 
ATOM     13  C   LIG    1        5.495   3.093   2.320  0.00  0.00    +0.000 A 
ATOM     14  C   LIG    1        4.588   2.506   1.448  0.00  0.00    +0.020 A 
ATOM     15  C   LIG    1        4.734   2.717   0.106  0.00  0.00    -0.080 A 
ATOM     16  C   LIG    1        2.414   4.208  -0.809  0.00  0.00    +0.060 C 
ATOM     17  C   LIG    1        3.824   2.143  -0.968  0.00  0.00    +0.130 C 
ENDROOT
BRANCH   1  20
ATOM     18  N   LIG    1        1.835   3.776  -3.705  0.00  0.00    -0.690 N 
ATOM     19  H   LIG    1        1.875   4.723  -3.500  0.00  0.00    +0.410 HD
ATOM     20  C   LIG    1        2.446   2.885  -2.899  0.00  0.00    +0.540 C 
ATOM     21  O   LIG    1        2.321   1.696  -3.104  0.00  0.00    -0.500 OA
BRANCH  18  27
ATOM     22  C   LIG    1       -2.360   2.276  -5.790  0.00  0.00    +0.120 C 
ATOM     23  C   LIG    1       -0.891   2.600  -5.879  0.00  0.00    -0.070 A 
ATOM     24  C   LIG    1       -0.226   2.461  -7.082  0.00  0.00    +0.060 A 
ATOM     25  C   LIG    1        1.123   2.757  -7.169  0.00  0.00    +0.040 A 
ATOM     26  C   LIG    1        1.808   3.198  -6.052  0.00  0.00    -0.030 A 
ATOM     27  C   LIG    1        1.143   3.334  -4.840  0.00  0.00    +0.160 A 
ATOM     28 CL   LIG    1        3.498   3.577  -6.164  0.00  0.00    -0.050 Cl
ATOM     29  C   LIG    1       -0.211   3.035  -4.757  0.00  0.00    -0.020 A 
ATOM     30 CL   LIG    1       -1.048   3.209  -3.246  0.00  0.00    -0.040 Cl
ENDBRANCH  18  27
ENDBRANCH   1  20
TORSDOF 2
