REMARK  Name = ZINCAx0000000fSi.0
REMARK                            x       y       z     vdW  Elec       q    Type
REMARK                         _______ _______ _______ _____ _____    ______ ____
ROOT
ATOM      1  C   LIG    1       -1.438  -6.694  -1.712  0.00  0.00    +0.090 A 
ATOM      2  C   LIG    1       -0.291  -6.887  -2.485  0.00  0.00    +0.070 A 
ATOM      3  C   LIG    1        0.634  -7.842  -2.096  0.00  0.00    +0.070 A 
ATOM      4  C   LIG    1        0.381  -8.583  -0.953  0.00  0.00    +0.030 A 
ATOM      5  C   LIG    1       -0.788  -8.342  -0.229  0.00  0.00    +0.090 A 
ATOM      6  N   LIG    1       -1.649  -7.418  -0.625  0.00  0.00    -0.400 NA
ENDROOT
BRANCH   1   9
ATOM      7  C   LIG    1       -3.641  -6.112  -0.048  0.00  0.00    +0.310 C 
ATOM      8  N   LIG    1       -3.467  -5.380  -1.305  0.00  0.00    -0.580 N 
ATOM      9  C   LIG    1       -2.431  -5.671  -2.116  0.00  0.00    +0.580 C 
ATOM     10  O   LIG    1       -2.311  -5.095  -3.179  0.00  0.00    -0.530 OA
BRANCH   8  11
ATOM     11  C   LIG    1       -4.419  -4.331  -1.680  0.00  0.00    +0.340 C 
BRANCH  11  12
ATOM     12  C   LIG    1       -3.948  -3.007  -1.136  0.00  0.00    +0.500 C 
ATOM     13  N   LIG    1       -4.671  -1.892  -1.359  0.00  0.00    -0.670 N 
ATOM     14  H   LIG    1       -5.529  -1.951  -1.808  0.00  0.00    +0.420 HD
ATOM     15  O   LIG    1       -2.919  -2.945  -0.498  0.00  0.00    -0.500 OA
BRANCH  13  16
ATOM     16  C   LIG    1       -4.185  -0.648  -0.942  0.00  0.00    +0.180 A 
ATOM     17  C   LIG    1       -5.070   0.363  -0.591  0.00  0.00    -0.030 A 
ATOM     18  C   LIG    1       -4.588   1.591  -0.180  0.00  0.00    +0.070 A 
ATOM     19  C   LIG    1       -3.225   1.815  -0.118  0.00  0.00    -0.030 A 
ATOM     20  C   LIG    1       -2.339   0.809  -0.468  0.00  0.00    +0.120 A 
ATOM     21  F   LIG    1       -1.007   1.031  -0.406  0.00  0.00    -0.140 F 
ATOM     22  C   LIG    1       -2.816  -0.422  -0.880  0.00  0.00    -0.010 A 
ENDBRANCH  13  16
ENDBRANCH  11  12
ENDBRANCH   8  11
ENDBRANCH   1   9
BRANCH   5  23
ATOM     23  C   LIG    1       -1.068  -9.130   0.995  0.00  0.00    +0.580 C 
ATOM     24  N   LIG    1       -0.871 -10.463   0.999  0.00  0.00    -0.590 N 
ATOM     25  C   LIG    1       -0.263 -11.117  -0.163  0.00  0.00    +0.300 C 
ATOM     26  O   LIG    1       -1.476  -8.573   1.996  0.00  0.00    -0.500 OA
BRANCH  24  27
ATOM     27  C   LIG    1       -1.264 -11.259   2.164  0.00  0.00    +0.340 C 
BRANCH  27  28
ATOM     28  C   LIG    1       -2.688 -11.724   1.998  0.00  0.00    +0.490 C 
ATOM     29  N   LIG    1       -3.267 -12.477   2.954  0.00  0.00    -0.670 N 
ATOM     30  H   LIG    1       -2.795 -12.656   3.782  0.00  0.00    +0.420 HD
ATOM     31  O   LIG    1       -3.313 -11.420   1.004  0.00  0.00    -0.500 OA
BRANCH  29  32
ATOM     32  C   LIG    1       -4.549 -13.000   2.752  0.00  0.00    +0.180 A 
ATOM     33  C   LIG    1       -5.419 -13.142   3.825  0.00  0.00    -0.030 A 
ATOM     34  C   LIG    1       -6.687 -13.652   3.622  0.00  0.00    +0.070 A 
ATOM     35  C   LIG    1       -7.086 -14.034   2.355  0.00  0.00    -0.030 A 
ATOM     36  C   LIG    1       -6.219 -13.900   1.283  0.00  0.00    +0.120 A 
ATOM     37  F   LIG    1       -6.612 -14.273   0.046  0.00  0.00    -0.140 F 
ATOM     38  C   LIG    1       -4.951 -13.383   1.479  0.00  0.00    -0.020 A 
ENDBRANCH  29  32
ENDBRANCH  27  28
ENDBRANCH  24  27
ENDBRANCH   5  23
TORSDOF 8
