REMARK  Name = ZINCrH000004rEJL.0
REMARK                            x       y       z     vdW  Elec       q    Type
REMARK                         _______ _______ _______ _____ _____    ______ ____
ROOT
ATOM      1  C   LIG    1       -2.920   2.968   1.659  0.00  0.00    +0.510 C 
ATOM      2  N   LIG    1       -1.762   2.326   1.404  0.00  0.00    -0.730 N 
ATOM      3  H   LIG    1       -1.213   2.007   2.137  0.00  0.00    +0.400 HD
ATOM      4  O   LIG    1       -3.606   3.368   0.743  0.00  0.00    -0.530 OA
ENDROOT
BRANCH   1   5
ATOM      5  C   LIG    1       -3.361   3.188   3.083  0.00  0.00    +0.140 C 
BRANCH   5  11
ATOM      6  C   LIG    1      -10.223   2.635   2.705  0.00  0.00    +0.100 C 
ATOM      7  C   LIG    1       -8.740   2.887   2.800  0.00  0.00    -0.060 A 
ATOM      8  C   LIG    1       -7.857   1.819   2.736  0.00  0.00    +0.000 A 
ATOM      9  C   LIG    1       -6.499   2.034   2.821  0.00  0.00    +0.050 A 
ATOM     10  C   LIG    1       -6.016   3.333   2.972  0.00  0.00    -0.120 A 
ATOM     11  C   LIG    1       -4.677   3.922   3.094  0.00  0.00    -0.160 A 
ATOM     12  C   LIG    1       -4.860   5.244   3.209  0.00  0.00    +0.230 A 
ATOM     13  O   LIG    1       -6.172   5.535   3.178  0.00  0.00    -0.190 OA
ATOM     14  C   LIG    1       -6.910   4.415   3.040  0.00  0.00    +0.060 A 
ATOM     15  C   LIG    1       -8.275   4.175   2.957  0.00  0.00    +0.020 A 
ENDBRANCH   5  11
ENDBRANCH   1   5
BRANCH   2  16
ATOM     16  C   LIG    1       -1.333   2.113   0.020  0.00  0.00    +0.330 C 
BRANCH  16  17
ATOM     17  C   LIG    1       -0.017   1.379   0.010  0.00  0.00    -0.140 A 
ATOM     18  C   LIG    1        1.170   2.089   0.019  0.00  0.00    +0.060 A 
ATOM     19  C   LIG    1        2.377   1.419   0.004  0.00  0.00    +0.000 A 
ATOM     20  C   LIG    1        2.400   0.031  -0.021  0.00  0.00    +0.170 A 
ATOM     21  C   LIG    1        1.206  -0.680  -0.030  0.00  0.00    -0.030 A 
ATOM     22  C   LIG    1        0.002  -0.004  -0.015  0.00  0.00    +0.060 A 
BRANCH  20  23
ATOM     23  N   LIG    1        3.622  -0.651  -0.036  0.00  0.00    -0.560 N 
ATOM     24  C   LIG    1        3.758  -2.109   0.060  0.00  0.00    +0.260 C 
ATOM     25  C   LIG    1        5.234  -2.361   0.438  0.00  0.00    +0.060 C 
ATOM     26  C   LIG    1        5.922  -1.091  -0.116  0.00  0.00    +0.070 C 
ATOM     27  C   LIG    1        4.821  -0.054  -0.147  0.00  0.00    +0.520 C 
ATOM     28  O   LIG    1        4.995   1.141  -0.254  0.00  0.00    -0.510 OA
ENDBRANCH  20  23
ENDBRANCH  16  17
ENDBRANCH   2  16
TORSDOF 5
