REMARK  Name = ZINCpk000000mSDk.0
REMARK                            x       y       z     vdW  Elec       q    Type
REMARK                         _______ _______ _______ _____ _____    ______ ____
ROOT
ATOM      1  C   LIG    1       -2.508   1.013   0.025  0.00  0.00    +0.570 C 
ATOM      2  N   LIG    1       -2.498  -0.330  -0.088  0.00  0.00    -0.610 N 
ATOM      3  C   LIG    1       -1.232  -1.077  -0.108  0.00  0.00    +0.290 C 
ATOM      4  C   LIG    1       -1.314  -2.201   0.931  0.00  0.00    +0.190 C 
ATOM      5  N   LIG    1       -2.515  -3.009   0.680  0.00  0.00    -0.500 NA
ATOM      6  C   LIG    1       -3.737  -2.211   0.845  0.00  0.00    +0.260 C 
ATOM      7  C   LIG    1       -3.755  -1.088  -0.191  0.00  0.00    +0.330 C 
ATOM      8  O   LIG    1       -3.563   1.606   0.140  0.00  0.00    -0.530 OA
ENDROOT
BRANCH   1  16
ATOM      9  C   LIG    1        4.220   5.415   0.129  0.00  0.00    +0.120 C 
ATOM     10  C   LIG    1        2.856   4.857   0.446  0.00  0.00    +0.520 C 
ATOM     11  N   LIG    1        2.436   3.725  -0.154  0.00  0.00    -0.560 N 
ATOM     12  C   LIG    1        3.249   2.898  -1.049  0.00  0.00    +0.280 C 
ATOM     13  C   LIG    1        2.334   1.737  -1.468  0.00  0.00    +0.110 C 
ATOM     14  C   LIG    1        1.028   2.006  -0.753  0.00  0.00    -0.150 A 
ATOM     15  C   LIG    1       -0.158   1.306  -0.749  0.00  0.00    +0.090 A 
ATOM     16  C   LIG    1       -1.237   1.763   0.011  0.00  0.00    -0.160 A 
ATOM     17  C   LIG    1       -1.107   2.940   0.753  0.00  0.00    +0.110 A 
ATOM     18  C   LIG    1        0.080   3.633   0.743  0.00  0.00    +0.010 A 
ATOM     19  C   LIG    1        1.164   3.173  -0.013  0.00  0.00    +0.170 A 
ATOM     20  O   LIG    1        2.138   5.425   1.240  0.00  0.00    -0.510 OA
ENDBRANCH   1  16
BRANCH   5  21
ATOM     21  C   LIG    1       -2.541  -4.196   1.544  0.00  0.00    +0.130 C 
ATOM     22  C   LIG    1       -1.472  -4.300   2.634  0.00  0.00    -0.010 C 
ATOM     23  C   LIG    1       -1.395  -5.200   1.399  0.00  0.00    +0.040 C 
ENDBRANCH   5  21
BRANCH   6  24
ATOM     24  C   LIG    1       -4.916  -3.073   0.658  0.00  0.00    +0.210 C 
ATOM     25  N   LIG    1       -5.825  -3.738   0.514  0.00  0.00    -0.400 NA
ENDBRANCH   6  24
TORSDOF 3
