REMARK  Name = ZINC660000002ten.0
REMARK                            x       y       z     vdW  Elec       q    Type
REMARK                         _______ _______ _______ _____ _____    ______ ____
ROOT
ATOM      1  C   LIG    1       -2.830   1.490   2.417  0.00  0.00    +0.180 C 
ENDROOT
BRANCH   1   2
ATOM      2  O   LIG    1       -2.070   1.085   1.277  0.00  0.00    -0.380 OA
BRANCH   2   4
ATOM      3  C   LIG    1       -0.013   1.086   0.008  0.00  0.00    +0.040 C 
ATOM      4  C   LIG    1       -0.729   1.579   1.267  0.00  0.00    +0.160 C 
ENDBRANCH   2   4
ENDBRANCH   1   2
BRANCH   1   5
ATOM      5  C   LIG    1       -4.241   0.906   2.323  0.00  0.00    +0.190 C 
BRANCH   5   6
ATOM      6  O   LIG    1       -4.173  -0.519   2.401  0.00  0.00    -0.570 OA
ATOM      7  H   LIG    1       -5.033  -0.958   2.348  0.00  0.00    +0.380 HD
ENDBRANCH   5   6
ENDBRANCH   1   5
TORSDOF 4
