REMARK  Name = ZINCpk00000eaQfK.0
REMARK                            x       y       z     vdW  Elec       q    Type
REMARK                         _______ _______ _______ _____ _____    ______ ____
ROOT
ATOM      1  C   LIG    1        7.229  -1.680   1.548  0.00  0.00    +0.520 C 
ATOM      2  N   LIG    1        6.131  -1.539   0.778  0.00  0.00    -0.620 N 
ATOM      3  C   LIG    1        6.054  -0.483  -0.242  0.00  0.00    +0.310 C 
ATOM      4  C   LIG    1        4.747   0.292  -0.042  0.00  0.00    +0.190 C 
ATOM      5  N   LIG    1        3.620  -0.649  -0.036  0.00  0.00    -0.490 N 
ATOM      6  C   LIG    1        3.714  -1.587   1.090  0.00  0.00    +0.200 C 
ATOM      7  C   LIG    1        4.979  -2.439   0.937  0.00  0.00    +0.300 C 
ATOM      8  O   LIG    1        8.171  -0.929   1.403  0.00  0.00    -0.510 OA
ENDROOT
BRANCH   5   9
ATOM      9  C   LIG    1        2.400   0.031  -0.021  0.00  0.00    +0.170 A 
ATOM     10  C   LIG    1        1.206  -0.680  -0.013  0.00  0.00    +0.010 A 
ATOM     11  C   LIG    1        0.002  -0.004   0.002  0.00  0.00    +0.130 A 
ATOM     12  C   LIG    1       -0.017   1.379   0.010  0.00  0.00    -0.070 A 
ATOM     13  C   LIG    1        1.169   2.089   0.002  0.00  0.00    +0.140 A 
ATOM     14  C   LIG    1        2.377   1.420  -0.013  0.00  0.00    -0.020 A 
BRANCH  12  15
ATOM     15  N   LIG    1       -1.309   2.099   0.020  0.00  0.00    +0.030 N 
ATOM     16  O   LIG    1       -1.327   3.317   0.026  0.00  0.00    -0.160 OA
ATOM     17  O   LIG    1       -2.355   1.475   0.021  0.00  0.00    -0.160 OA
ENDBRANCH  12  15
ENDBRANCH   5   9
BRANCH   1  18
ATOM     18  C   LIG    1        7.287  -2.769   2.587  0.00  0.00    +0.250 C 
BRANCH  18  19
ATOM     19  O   LIG    1        8.563  -2.712   3.278  0.00  0.00    -0.330 OA
BRANCH  19  20
ATOM     20  C   LIG    1        8.775  -3.622   4.241  0.00  0.00    +0.500 C 
ATOM     21  O   LIG    1        7.923  -4.440   4.499  0.00  0.00    -0.510 OA
BRANCH  20  25
ATOM     22  C   LIG    1       11.662  -5.263   6.285  0.00  0.00    +0.070 C 
ATOM     23  C   LIG    1       10.258  -4.687   6.088  0.00  0.00    +0.000 C 
ATOM     24  C   LIG    1       10.032  -3.225   6.478  0.00  0.00    +0.070 C 
ATOM     25  C   LIG    1       10.076  -3.625   5.002  0.00  0.00    -0.030 C 
ENDBRANCH  20  25
ENDBRANCH  19  20
ENDBRANCH  18  19
ENDBRANCH   1  18
TORSDOF 6
