REMARK  Name = ZINCnE000001KzX3.0
REMARK                            x       y       z     vdW  Elec       q    Type
REMARK                         _______ _______ _______ _____ _____    ______ ____
ROOT
ATOM      1  C   LIG    1        4.181   0.086  -1.462  0.00  0.00    +0.240 C 
ENDROOT
BRANCH   1   5
ATOM      2  C   LIG    1        5.290  -0.541  -5.545  0.00  0.00    +0.170 A 
ATOM      3  C   LIG    1        4.519  -1.484  -4.880  0.00  0.00    -0.080 A 
ATOM      4  C   LIG    1        4.166  -1.281  -3.558  0.00  0.00    -0.010 A 
ATOM      5  C   LIG    1        4.571  -0.135  -2.900  0.00  0.00    -0.120 A 
ATOM      6  C   LIG    1        5.342   0.810  -3.562  0.00  0.00    +0.200 A 
ATOM      7 BR   LIG    1        3.122  -2.571  -2.651  0.00  0.00    -0.030 Br
ATOM      8  C   LIG    1        5.701   0.607  -4.886  0.00  0.00    -0.090 A 
BRANCH   2  10
ATOM      9  C   LIG    1        5.181  -1.948  -7.459  0.00  0.00    +0.240 C 
ATOM     10  O   LIG    1        5.641  -0.744  -6.842  0.00  0.00    -0.310 OA
ENDBRANCH   2  10
BRANCH   6  11
ATOM     11  O   LIG    1        5.744   1.935  -2.914  0.00  0.00    -0.290 OA
ATOM     12  C   LIG    1        6.535   2.864  -3.657  0.00  0.00    +0.240 C 
ENDBRANCH   6  11
ENDBRANCH   1   5
BRANCH   1  13
ATOM     13  N   LIG    1        2.902   0.808  -1.406  0.00  0.00    -0.670 NA
ATOM     14  H   LIG    1        2.186   0.315  -1.919  0.00  0.00    +0.340 HD
BRANCH  13  15
ATOM     15  C   LIG    1        2.489   1.041  -0.016  0.00  0.00    +0.220 C 
BRANCH  15  16
ATOM     16  C   LIG    1        1.177   1.782   0.000  0.00  0.00    -0.100 A 
ATOM     17  C   LIG    1       -0.013   1.076   0.008  0.00  0.00    -0.020 A 
ATOM     18  C   LIG    1       -1.217   1.747   0.017  0.00  0.00    +0.030 A 
ATOM     19  C   LIG    1       -1.234   3.144   0.030  0.00  0.00    -0.130 A 
ATOM     20  C   LIG    1       -0.029   3.851   0.022  0.00  0.00    +0.030 A 
ATOM     21  C   LIG    1        1.168   3.166   0.007  0.00  0.00    +0.000 A 
BRANCH  19  22
ATOM     22  C   LIG    1       -2.519   3.870   0.045  0.00  0.00    +0.520 C 
ATOM     23  O   LIG    1       -3.572   3.249   0.052  0.00  0.00    -0.690 OA
ATOM     24  O   LIG    1       -2.530   5.093   0.051  0.00  0.00    -0.690 OA
ENDBRANCH  19  22
ENDBRANCH  15  16
ENDBRANCH  13  15
ENDBRANCH   1  13
TORSDOF 7
