REMARK  Name = ZINCvU0000000Bgs.0
REMARK                            x       y       z     vdW  Elec       q    Type
REMARK                         _______ _______ _______ _____ _____    ______ ____
ROOT
ATOM      1  C   LIG    1        4.837   4.219  -0.222  0.00  0.00    -0.150 A 
ATOM      2  C   LIG    1        6.058   3.539  -0.229  0.00  0.00    +0.070 A 
ATOM      3  C   LIG    1        7.235   4.242  -0.350  0.00  0.00    +0.020 A 
ATOM      4  C   LIG    1        7.211   5.630  -0.454  0.00  0.00    +0.170 A 
ATOM      5  C   LIG    1        5.997   6.310  -0.442  0.00  0.00    -0.010 A 
ATOM      6  C   LIG    1        4.816   5.613  -0.326  0.00  0.00    +0.110 A 
ENDROOT
BRANCH   1   9
ATOM      7  N   LIG    1        3.594   2.124   0.003  0.00  0.00    -0.660 N 
ATOM      8  H   LIG    1        4.441   1.657   0.075  0.00  0.00    +0.410 HD
ATOM      9  C   LIG    1        3.572   3.468  -0.098  0.00  0.00    +0.560 C 
ATOM     10  O   LIG    1        2.511   4.062  -0.086  0.00  0.00    -0.520 OA
BRANCH   7  16
ATOM     11  C   LIG    1        2.334   0.146   0.602  0.00  0.00    +0.100 A 
ATOM     12  C   LIG    1        1.144  -0.563   0.599  0.00  0.00    -0.060 A 
ATOM     13  C   LIG    1        0.019  -0.024   0.003  0.00  0.00    +0.030 A 
ATOM     14  C   LIG    1        0.077   1.223  -0.591  0.00  0.00    +0.000 A 
ATOM     15  C   LIG    1        1.261   1.937  -0.593  0.00  0.00    +0.050 A 
ATOM     16  C   LIG    1        2.394   1.403   0.003  0.00  0.00    +0.120 A 
BRANCH  11  18
ATOM     17  C   LIG    1        3.307  -1.677   1.780  0.00  0.00    +0.250 C 
ATOM     18  O   LIG    1        3.442  -0.384   1.187  0.00  0.00    -0.320 OA
ENDBRANCH  11  18
ENDBRANCH   7  16
ENDBRANCH   1   9
BRANCH   4  19
ATOM     19  N   LIG    1        8.405   6.339  -0.571  0.00  0.00    -0.670 N 
ATOM     20  H   LIG    1        8.493   7.212  -0.157  0.00  0.00    +0.420 HD
ATOM     21  C   LIG    1        9.437   5.812  -1.260  0.00  0.00    +0.510 C 
ATOM     22  O   LIG    1        9.358   4.687  -1.704  0.00  0.00    -0.500 OA
BRANCH  21  23
ATOM     23  C   LIG    1       10.689   6.622  -1.478  0.00  0.00    +0.120 C 
BRANCH  23  24
ATOM     24  C   LIG    1       11.681   5.810  -2.270  0.00  0.00    -0.070 A 
ATOM     25  C   LIG    1       12.598   5.009  -1.615  0.00  0.00    +0.060 A 
ATOM     26  C   LIG    1       13.505   4.260  -2.342  0.00  0.00    +0.020 A 
ATOM     27  C   LIG    1       13.502   4.321  -3.723  0.00  0.00    +0.070 A 
ATOM     28  C   LIG    1       12.589   5.126  -4.377  0.00  0.00    -0.180 A 
ATOM     29  C   LIG    1       11.679   5.871  -3.651  0.00  0.00    +0.080 A 
BRANCH  28  30
ATOM     30  C   LIG    1       12.586   5.192  -5.883  0.00  0.00    +0.510 C 
ATOM     31  F   LIG    1       11.287   5.451  -6.335  0.00  0.00    -0.180 F 
ATOM     32  F   LIG    1       13.027   3.971  -6.404  0.00  0.00    -0.180 F 
ATOM     33  F   LIG    1       13.440   6.216  -6.306  0.00  0.00    -0.180 F 
ENDBRANCH  28  30
ENDBRANCH  23  24
ENDBRANCH  21  23
ENDBRANCH   4  19
TORSDOF 7
