REMARK  Name = ZINCvU0000000Dx0.1
REMARK                            x       y       z     vdW  Elec       q    Type
REMARK                         _______ _______ _______ _____ _____    ______ ____
ROOT
ATOM      1  N   LIG    1       -0.988  -0.597   0.378  0.00  0.00    -0.470 N 
ATOM      2  C   LIG    1       -2.116   0.020  -0.026  0.00  0.00    +0.530 C 
ATOM      3  O   LIG    1       -2.164   1.231  -0.065  0.00  0.00    -0.460 OA
ENDROOT
BRANCH   2   4
ATOM      4  C   LIG    1       -3.317  -0.796  -0.429  0.00  0.00    +0.170 C 
ATOM      5  C   LIG    1       -3.066  -1.447  -1.796  0.00  0.00    +0.250 C 
ATOM      6  O   LIG    1       -4.229  -2.200  -2.155  0.00  0.00    -0.290 OA
ATOM      7  C   LIG    1       -5.432  -1.587  -1.986  0.00  0.00    +0.040 A 
ATOM      8  C   LIG    1       -6.551  -2.094  -2.628  0.00  0.00    +0.030 A 
ATOM      9  C   LIG    1       -7.780  -1.484  -2.464  0.00  0.00    +0.030 A 
ATOM     10  C   LIG    1       -7.897  -0.367  -1.659  0.00  0.00    +0.030 A 
ATOM     11  C   LIG    1       -6.786   0.145  -1.016  0.00  0.00    +0.030 A 
ATOM     12  C   LIG    1       -5.549  -0.462  -1.177  0.00  0.00    +0.050 A 
ATOM     13  O   LIG    1       -4.463   0.055  -0.541  0.00  0.00    -0.280 OA
ENDBRANCH   2   4
BRANCH   1  14
ATOM     14  C   LIG    1        0.153   0.147   0.642  0.00  0.00    +0.310 A 
ATOM     15  N   LIG    1        1.278  -0.345   1.032  0.00  0.00    -0.480 NA
ATOM     16  C   LIG    1        2.298   0.508   1.248  0.00  0.00    +0.100 A 
ATOM     17  C   LIG    1        3.613   0.223   1.672  0.00  0.00    +0.060 A 
ATOM     18  C   LIG    1        4.525   1.234   1.838  0.00  0.00    +0.040 A 
ATOM     19  C   LIG    1        4.170   2.552   1.592  0.00  0.00    +0.030 A 
ATOM     20  C   LIG    1        2.892   2.855   1.176  0.00  0.00    +0.060 A 
ATOM     21  C   LIG    1        1.953   1.841   1.003  0.00  0.00    -0.210 A 
ATOM     22  S   LIG    1        0.268   1.895   0.491  0.00  0.00    +0.170 S 
ENDBRANCH   1  14
BRANCH   1  28
ATOM     23  C   LIG    1       -1.425  -2.566   1.710  0.00  0.00    -0.050 A 
ATOM     24  C   LIG    1       -1.408  -3.939   1.857  0.00  0.00    +0.030 A 
ATOM     25  C   LIG    1       -0.925  -4.739   0.837  0.00  0.00    +0.040 A 
ATOM     26  C   LIG    1       -0.464  -4.167  -0.334  0.00  0.00    +0.030 A 
ATOM     27  C   LIG    1       -0.483  -2.795  -0.489  0.00  0.00    +0.030 A 
ATOM     28  C   LIG    1       -0.967  -1.989   0.532  0.00  0.00    +0.100 A 
BRANCH  23  30
ATOM     29  C   LIG    1       -3.376  -2.113   3.172  0.00  0.00    +0.030 C 
ATOM     30  C   LIG    1       -1.946  -1.695   2.824  0.00  0.00    +0.010 C 
ATOM     31  C   LIG    1       -1.053  -1.854   4.056  0.00  0.00    +0.040 C 
ENDBRANCH  23  30
ENDBRANCH   1  28
TORSDOF 4
