REMARK  Name = ZINCvU0000000Dx0.0
REMARK                            x       y       z     vdW  Elec       q    Type
REMARK                         _______ _______ _______ _____ _____    ______ ____
ROOT
ATOM      1  N   LIG    1       -0.319  -3.901  -0.435  0.00  0.00    -0.470 N 
ATOM      2  C   LIG    1        0.558  -4.903  -0.230  0.00  0.00    +0.520 C 
ATOM      3  O   LIG    1        1.701  -4.652   0.088  0.00  0.00    -0.430 OA
ENDROOT
BRANCH   2   4
ATOM      4  C   LIG    1        0.119  -6.335  -0.396  0.00  0.00    +0.160 C 
ATOM      5  C   LIG    1       -0.723  -6.761   0.814  0.00  0.00    +0.250 C 
ATOM      6  O   LIG    1       -1.112  -8.127   0.630  0.00  0.00    -0.290 OA
ATOM      7  C   LIG    1       -0.139  -8.992   0.233  0.00  0.00    +0.040 A 
ATOM      8  C   LIG    1       -0.338 -10.356   0.381  0.00  0.00    +0.030 A 
ATOM      9  C   LIG    1        0.640 -11.246  -0.021  0.00  0.00    +0.030 A 
ATOM     10  C   LIG    1        1.819 -10.779  -0.572  0.00  0.00    +0.030 A 
ATOM     11  C   LIG    1        2.025  -9.421  -0.721  0.00  0.00    +0.030 A 
ATOM     12  C   LIG    1        1.048  -8.522  -0.318  0.00  0.00    +0.050 A 
ATOM     13  O   LIG    1        1.268  -7.187  -0.466  0.00  0.00    -0.280 OA
ENDBRANCH   2   4
BRANCH   1  14
ATOM     14  C   LIG    1        0.104  -2.582  -0.362  0.00  0.00    +0.340 A 
ATOM     15  N   LIG    1        1.310  -2.210  -0.105  0.00  0.00    -0.470 NA
ATOM     16  C   LIG    1        1.569  -0.888  -0.068  0.00  0.00    +0.110 A 
ATOM     17  C   LIG    1        2.793  -0.235   0.188  0.00  0.00    +0.070 A 
ATOM     18  C   LIG    1        2.863   1.135   0.182  0.00  0.00    +0.040 A 
ATOM     19  C   LIG    1        1.735   1.900  -0.075  0.00  0.00    +0.040 A 
ATOM     20  C   LIG    1        0.529   1.284  -0.327  0.00  0.00    +0.060 A 
ATOM     21  C   LIG    1        0.439  -0.106  -0.326  0.00  0.00    -0.180 A 
ATOM     22  S   LIG    1       -0.929  -1.181  -0.607  0.00  0.00    +0.090 S 
ENDBRANCH   1  14
BRANCH   1  28
ATOM     23  C   LIG    1       -2.066  -4.373  -2.037  0.00  0.00    -0.050 A 
ATOM     24  C   LIG    1       -3.387  -4.663  -2.316  0.00  0.00    +0.040 A 
ATOM     25  C   LIG    1       -4.307  -4.763  -1.288  0.00  0.00    +0.050 A 
ATOM     26  C   LIG    1       -3.906  -4.578   0.022  0.00  0.00    +0.030 A 
ATOM     27  C   LIG    1       -2.585  -4.292   0.308  0.00  0.00    +0.030 A 
ATOM     28  C   LIG    1       -1.660  -4.191  -0.722  0.00  0.00    +0.080 A 
BRANCH  23  30
ATOM     29  C   LIG    1       -1.065  -5.552  -3.975  0.00  0.00    +0.040 C 
ATOM     30  C   LIG    1       -1.065  -4.258  -3.158  0.00  0.00    +0.000 C 
ATOM     31  C   LIG    1       -1.445  -3.084  -4.063  0.00  0.00    +0.040 C 
ENDBRANCH  23  30
ENDBRANCH   1  28
TORSDOF 4
