REMARK  Name = ZINCtV000002x56j.0
REMARK                            x       y       z     vdW  Elec       q    Type
REMARK                         _______ _______ _______ _____ _____    ______ ____
ROOT
ATOM      1  C   LIG    1        5.869  -3.562  -0.067  0.00  0.00    +0.390 C 
ENDROOT
BRANCH   1   5
ATOM      2  C   LIG    1        3.696  -0.698  -0.035  0.00  0.00    +0.220 A 
ATOM      3  N   LIG    1        4.888  -0.159  -0.043  0.00  0.00    -0.340 NA
ATOM      4  O   LIG    1        5.737  -1.026  -0.055  0.00  0.00    +0.100 OA
ATOM      5  C   LIG    1        5.161  -2.232  -0.055  0.00  0.00    +0.170 A 
ATOM      6  N   LIG    1        3.865  -2.040  -0.038  0.00  0.00    -0.450 NA
BRANCH   2  12
ATOM      7  C   LIG    1        2.380   1.424  -0.013  0.00  0.00    +0.170 A 
ATOM      8  C   LIG    1        1.167   2.093   0.002  0.00  0.00    -0.070 A 
ATOM      9  C   LIG    1       -0.017   1.379   0.010  0.00  0.00    +0.070 A 
ATOM     10  C   LIG    1        0.002  -0.004   0.002  0.00  0.00    -0.030 A 
ATOM     11  C   LIG    1        1.204  -0.683  -0.013  0.00  0.00    +0.100 A 
ATOM     12  C   LIG    1        2.402   0.026  -0.020  0.00  0.00    -0.060 A 
BRANCH   7  13
ATOM     13  O   LIG    1        3.544   2.124  -0.020  0.00  0.00    -0.300 OA
BRANCH  13  15
ATOM     14  C   LIG    1        4.847   4.160  -0.022  0.00  0.00    +0.070 C 
ATOM     15  C   LIG    1        3.444   3.550  -0.012  0.00  0.00    +0.170 C 
ENDBRANCH  13  15
ENDBRANCH   7  13
ENDBRANCH   2  12
ENDBRANCH   1   5
BRANCH   1  16
ATOM     16  O   LIG    1        6.082  -3.976  -1.418  0.00  0.00    -0.300 OA
BRANCH  16  17
ATOM     17  C   LIG    1        6.713  -5.165  -1.607  0.00  0.00    +0.140 A 
ATOM     18  C   LIG    1        7.124  -5.912  -0.513  0.00  0.00    -0.050 A 
ATOM     19  C   LIG    1        7.761  -7.121  -0.701  0.00  0.00    +0.080 A 
ATOM     20  C   LIG    1        8.001  -7.587  -1.992  0.00  0.00    -0.060 A 
ATOM     21  C   LIG    1        7.593  -6.832  -3.090  0.00  0.00    +0.090 A 
ATOM     22  C   LIG    1        6.951  -5.626  -2.896  0.00  0.00    -0.060 A 
ATOM     23 CL   LIG    1        6.442  -4.684  -4.263  0.00  0.00    -0.050 Cl
BRANCH  20  24
ATOM     24  C   LIG    1        8.692  -8.884  -2.197  0.00  0.00    -0.040 A 
ATOM     25  C   LIG    1        8.928  -9.354  -3.488  0.00  0.00    +0.020 A 
ATOM     26  C   LIG    1        9.576 -10.559  -3.673  0.00  0.00    +0.010 A 
ATOM     27  C   LIG    1        9.980 -11.305  -2.580  0.00  0.00    +0.000 A 
ATOM     28  C   LIG    1        9.743 -10.846  -1.297  0.00  0.00    +0.010 A 
ATOM     29  C   LIG    1        9.101  -9.640  -1.100  0.00  0.00    +0.020 A 
ENDBRANCH  20  24
ENDBRANCH  16  17
ENDBRANCH   1  16
TORSDOF 7
