REMARK  Name = ZINCvU0000000GmZ.0
REMARK                            x       y       z     vdW  Elec       q    Type
REMARK                         _______ _______ _______ _____ _____    ______ ____
ROOT
ATOM      1  C   LIG    1        6.415   0.016  -0.061  0.00  0.00    +0.080 A 
ATOM      2  C   LIG    1        7.103  -0.233   1.057  0.00  0.00    -0.050 A 
ATOM      3  S   LIG    1        8.692  -0.835   0.593  0.00  0.00    +0.160 S 
ATOM      4  C   LIG    1        8.276  -0.684  -1.059  0.00  0.00    +0.060 A 
ATOM      5  N   LIG    1        7.073  -0.234  -1.175  0.00  0.00    -0.450 NA
ENDROOT
BRANCH   1   6
ATOM      6  C   LIG    1        5.004   0.545  -0.049  0.00  0.00    +0.190 C 
BRANCH   6   7
ATOM      7  S   LIG    1        3.839  -0.840  -0.040  0.00  0.00    +0.030 S 
BRANCH   7  10
ATOM      8  C   LIG    1       -0.000  -0.044  -0.007  0.00  0.00    +0.490 A 
ATOM      9  N   LIG    1        1.177  -0.651  -0.017  0.00  0.00    -0.580 NA
ATOM     10  C   LIG    1        2.314   0.042  -0.027  0.00  0.00    +0.350 A 
ATOM     11  N   LIG    1        2.346   1.361  -0.027  0.00  0.00    -0.560 NA
ATOM     12  C   LIG    1        1.207   2.068  -0.017  0.00  0.00    +0.200 A 
ATOM     13  C   LIG    1        1.205   3.470  -0.016  0.00  0.00    +0.030 A 
ATOM     14  C   LIG    1        0.018   4.141  -0.005  0.00  0.00    +0.060 A 
ATOM     15  C   LIG    1       -1.193   3.456   0.006  0.00  0.00    -0.010 A 
ATOM     16  C   LIG    1       -1.227   2.092   0.010  0.00  0.00    +0.050 A 
ATOM     17  C   LIG    1       -0.027   1.373  -0.006  0.00  0.00    -0.200 A 
BRANCH   8  18
ATOM     18  N   LIG    1       -1.170  -0.773   0.003  0.00  0.00    -0.690 N 
ATOM     19  H   LIG    1       -2.026  -0.317   0.010  0.00  0.00    +0.410 HD
BRANCH  18  21
ATOM     20  C   LIG    1       -2.545  -2.796   0.013  0.00  0.00    +0.030 C 
ATOM     21  C   LIG    1       -1.121  -2.238   0.002  0.00  0.00    +0.260 C 
ENDBRANCH  18  21
ENDBRANCH   8  18
ENDBRANCH   7  10
ENDBRANCH   6   7
ENDBRANCH   1   6
BRANCH   4  22
ATOM     22  C   LIG    1        9.184  -1.028  -2.212  0.00  0.00    +0.190 C 
BRANCH  22  23
ATOM     23  C   LIG    1        9.985   0.188  -2.600  0.00  0.00    +0.520 C 
ATOM     24  N   LIG    1       10.869   0.117  -3.615  0.00  0.00    -0.670 N 
ATOM     25  H   LIG    1       11.040  -0.733  -4.051  0.00  0.00    +0.410 HD
ATOM     26  O   LIG    1        9.834   1.231  -2.000  0.00  0.00    -0.500 OA
BRANCH  24  27
ATOM     27  C   LIG    1       11.542   1.268  -4.039  0.00  0.00    +0.140 A 
ATOM     28  C   LIG    1       11.847   1.440  -5.383  0.00  0.00    -0.010 A 
ATOM     29  C   LIG    1       12.505   2.581  -5.799  0.00  0.00    +0.030 A 
ATOM     30  C   LIG    1       12.872   3.545  -4.878  0.00  0.00    -0.100 A 
ATOM     31  C   LIG    1       12.575   3.373  -3.538  0.00  0.00    +0.030 A 
ATOM     32  C   LIG    1       13.596   4.785  -5.334  0.00  0.00    +0.100 C 
ATOM     33  C   LIG    1       11.911   2.238  -3.116  0.00  0.00    +0.030 A 
ENDBRANCH  24  27
ENDBRANCH  22  23
ENDBRANCH   4  22
TORSDOF 8
