REMARK  Name = ZINCqH0000031G0b.0
REMARK                            x       y       z     vdW  Elec       q    Type
REMARK                         _______ _______ _______ _____ _____    ______ ____
ROOT
ATOM      1  C   LIG    1       -1.240   3.415   0.043  0.00  0.00    +0.280 A 
ATOM      2  C   LIG    1       -0.048   4.127   0.042  0.00  0.00    -0.010 A 
ATOM      3  C   LIG    1        1.160   3.451   0.037  0.00  0.00    +0.260 A 
ATOM      4  C   LIG    1        1.181   2.067   0.032  0.00  0.00    -0.780 A 
ATOM      5  C   LIG    1       -0.007   1.355   0.032  0.00  0.00    +0.270 A 
ATOM      6  F   LIG    1        0.016   0.004   0.028  0.00  0.00    -0.090 F 
ATOM      7  F   LIG    1        2.320   4.144   0.036  0.00  0.00    -0.090 F 
ATOM      8  C   LIG    1       -1.217   2.026   0.032  0.00  0.00    -0.150 A 
ATOM      9 CL   LIG    1       -2.706   1.133   0.025  0.00  0.00    -0.020 Cl
ENDROOT
BRANCH   1  12
ATOM     10  C   LIG    1       -3.821   6.131  -0.317  0.00  0.00    +0.130 C 
ATOM     11  C   LIG    1       -2.537   5.352  -0.436  0.00  0.00    +0.520 C 
ATOM     12  N   LIG    1       -2.462   4.097   0.049  0.00  0.00    -0.670 N 
ATOM     13  H   LIG    1       -3.256   3.665   0.402  0.00  0.00    +0.420 HD
ATOM     14  O   LIG    1       -1.570   5.855  -0.969  0.00  0.00    -0.500 OA
ENDBRANCH   1  12
BRANCH   4  15
ATOM     15  S   LIG    1        2.720   1.210   0.025  0.00  0.00    +2.700 S 
ATOM     16  O   LIG    1        2.465  -0.079   0.565  0.00  0.00    -0.920 OA
ATOM     17  O   LIG    1        3.680   2.105   0.570  0.00  0.00    -0.920 OA
BRANCH  15  18
ATOM     18  N   LIG    1        3.144   0.978  -1.559  0.00  0.00    -0.930 N 
ATOM     19  C   LIG    1        3.906   1.865  -2.321  0.00  0.00    +0.150 A 
ATOM     20  C   LIG    1        4.463   3.092  -1.957  0.00  0.00    +0.000 A 
ATOM     21  C   LIG    1        5.190   3.825  -2.871  0.00  0.00    +0.040 A 
ATOM     22  C   LIG    1        5.374   3.349  -4.156  0.00  0.00    -0.010 A 
ATOM     23  C   LIG    1        4.826   2.134  -4.525  0.00  0.00    +0.050 A 
ATOM     24  C   LIG    1        4.096   1.397  -3.612  0.00  0.00    -0.130 A 
ATOM     25  C   LIG    1        3.399   0.062  -3.747  0.00  0.00    +0.110 C 
ATOM     26  C   LIG    1        2.780  -0.192  -2.363  0.00  0.00    +0.230 C 
ATOM     27  C   LIG    1        3.363  -1.464  -1.743  0.00  0.00    +0.050 C 
ENDBRANCH  15  18
ENDBRANCH   4  15
TORSDOF 3
