REMARK  Name = ZINCqH00000072bX.0
REMARK                            x       y       z     vdW  Elec       q    Type
REMARK                         _______ _______ _______ _____ _____    ______ ____
ROOT
ATOM      1  C   LIG    1        2.501   3.945  -0.036  0.00  0.00    +0.290 C 
ATOM      2  C   LIG    1        3.142   4.029   1.365  0.00  0.00    +0.050 C 
ATOM      3  C   LIG    1        3.740   5.461   1.388  0.00  0.00    +0.040 C 
ATOM      4  C   LIG    1        2.687   6.252   0.573  0.00  0.00    +0.250 C 
ATOM      5  N   LIG    1        2.256   5.322  -0.491  0.00  0.00    -0.610 N 
ATOM      6  C   LIG    1        1.727   5.674  -1.680  0.00  0.00    +0.600 C 
ATOM      7  O   LIG    1        1.497   4.824  -2.518  0.00  0.00    -0.500 OA
ENDROOT
BRANCH   6   8
ATOM      8  C   LIG    1        1.426   7.091  -1.963  0.00  0.00    -0.240 A 
ATOM      9  C   LIG    1        2.422   7.947  -2.389  0.00  0.00    +0.240 A 
ATOM     10  N   LIG    1        2.107   9.245  -2.647  0.00  0.00    -0.310 N 
ATOM     11  N   LIG    1        2.872  10.332  -3.085  0.00  0.00    -0.310 NA
ATOM     12  C   LIG    1        2.096  11.388  -3.174  0.00  0.00    +0.300 A 
ATOM     13  C   LIG    1        0.807  11.034  -2.800  0.00  0.00    -0.090 A 
ATOM     14  C   LIG    1        0.819   9.687  -2.470  0.00  0.00    +0.260 A 
ATOM     15  N   LIG    1       -0.144   8.852  -2.050  0.00  0.00    -0.460 NA
ATOM     16  C   LIG    1        3.833   7.450  -2.573  0.00  0.00    +0.160 C 
ATOM     17  C   LIG    1        0.114   7.594  -1.796  0.00  0.00    +0.400 A 
ENDBRANCH   6   8
BRANCH   1  24
ATOM     18  C   LIG    1        1.199   1.803   0.042  0.00  0.00    +0.160 A 
ATOM     19  C   LIG    1       -0.001   1.111   0.112  0.00  0.00    -0.060 A 
ATOM     20  C   LIG    1       -1.194   1.805   0.175  0.00  0.00    +0.090 A 
ATOM     21  C   LIG    1       -1.192   3.188   0.178  0.00  0.00    -0.130 A 
ATOM     22  C   LIG    1        0.004   3.880   0.107  0.00  0.00    +0.090 A 
ATOM     23 BR   LIG    1       -2.827   4.134   0.271  0.00  0.00    -0.050 Br
ATOM     24  C   LIG    1        1.199   3.191   0.040  0.00  0.00    -0.120 A 
BRANCH  18  26
ATOM     25  C   LIG    1        2.299  -0.304  -0.019  0.00  0.00    +0.240 C 
ATOM     26  O   LIG    1        2.374   1.123  -0.025  0.00  0.00    -0.310 OA
ENDBRANCH  18  26
ENDBRANCH   1  24
TORSDOF 3
