REMARK  Name = ZINCpk00000xIac1.0
REMARK                            x       y       z     vdW  Elec       q    Type
REMARK                         _______ _______ _______ _____ _____    ______ ____
ROOT
ATOM      1  C   LIG    1       -0.802   1.633   3.646  0.00  0.00    -0.070 A 
ATOM      2  C   LIG    1       -1.950   2.428   3.609  0.00  0.00    +0.070 A 
ATOM      3  C   LIG    1       -2.543   2.831   4.788  0.00  0.00    +0.120 A 
ATOM      4  C   LIG    1       -1.998   2.458   6.003  0.00  0.00    -0.650 A 
ATOM      5  C   LIG    1       -0.858   1.674   6.047  0.00  0.00    +0.120 A 
ATOM      6  C   LIG    1       -0.258   1.260   4.876  0.00  0.00    +0.080 A 
ENDROOT
BRANCH   4   7
ATOM      7  S   LIG    1       -2.758   2.983   7.504  0.00  0.00    +2.690 S 
ATOM      8  O   LIG    1       -2.363   2.052   8.501  0.00  0.00    -0.950 OA
ATOM      9  O   LIG    1       -4.117   3.257   7.190  0.00  0.00    -0.950 OA
BRANCH   7  10
ATOM     10  N   LIG    1       -2.073   4.432   7.919  0.00  0.00    -0.990 NA
ATOM     11  C   LIG    1       -0.880   4.478   8.776  0.00  0.00    +0.290 C 
ATOM     12  C   LIG    1        0.201   5.306   8.063  0.00  0.00    +0.010 C 
ATOM     13  C   LIG    1       -0.370   6.680   7.706  0.00  0.00    +0.030 C 
ATOM     14  C   LIG    1       -1.554   6.511   6.751  0.00  0.00    -0.040 C 
ATOM     15  C   LIG    1       -2.102   7.887   6.369  0.00  0.00    +0.030 C 
ATOM     16  C   LIG    1       -2.651   5.697   7.444  0.00  0.00    +0.290 C 
ENDBRANCH   7  10
ENDBRANCH   4   7
BRANCH   1  17
ATOM     17  C   LIG    1       -0.164   1.193   2.388  0.00  0.00    +0.510 C 
ATOM     18  O   LIG    1        0.837   0.505   2.423  0.00  0.00    -0.490 OA
BRANCH  17  19
ATOM     19  O   LIG    1       -0.692   1.554   1.203  0.00  0.00    -0.350 OA
BRANCH  19  20
ATOM     20  C   LIG    1       -0.013   1.086   0.008  0.00  0.00    +0.220 C 
BRANCH  20  21
ATOM     21  C   LIG    1       -0.753   1.593  -1.232  0.00  0.00    +0.300 C 
BRANCH  21  24
ATOM     22  C   LIG    1       -1.168   5.229  -2.355  0.00  0.00    +0.110 C 
ATOM     23  C   LIG    1       -1.254   3.725  -2.299  0.00  0.00    +0.510 C 
ATOM     24  N   LIG    1       -0.670   3.054  -1.286  0.00  0.00    -0.730 N 
ATOM     25  H   LIG    1       -0.195   3.539  -0.594  0.00  0.00    +0.400 HD
ATOM     26  O   LIG    1       -1.848   3.119  -3.165  0.00  0.00    -0.540 OA
ENDBRANCH  21  24
ENDBRANCH  20  21
ENDBRANCH  19  20
ENDBRANCH  17  19
ENDBRANCH   1  17
TORSDOF 7
