REMARK  Name = ZINCrH000004nMD4.0
REMARK                            x       y       z     vdW  Elec       q    Type
REMARK                         _______ _______ _______ _____ _____    ______ ____
ROOT
ATOM      1  N   LIG    1        1.237  -2.079  -0.021  0.00  0.00    -0.680 N 
ATOM      2  H   LIG    1        2.082  -2.551  -0.098  0.00  0.00    +0.410 HD
ATOM      3  C   LIG    1        0.086  -2.773   0.087  0.00  0.00    +0.720 C 
ATOM      4  N   LIG    1        0.115  -4.117   0.181  0.00  0.00    -0.640 N 
ATOM      5  H   LIG    1        0.965  -4.585   0.170  0.00  0.00    +0.410 HD
ATOM      6  O   LIG    1       -0.978  -2.185   0.101  0.00  0.00    -0.540 OA
ENDROOT
BRANCH   1  12
ATOM      7  C   LIG    1        2.249   0.034   0.565  0.00  0.00    -0.120 A 
ATOM      8  C   LIG    1        2.223   1.415   0.560  0.00  0.00    +0.060 A 
ATOM      9  C   LIG    1        1.168   2.086  -0.030  0.00  0.00    +0.000 A 
ATOM     10  C   LIG    1        0.136   1.378  -0.617  0.00  0.00    +0.040 A 
ATOM     11  C   LIG    1        0.155  -0.003  -0.616  0.00  0.00    +0.030 A 
ATOM     12  C   LIG    1        1.214  -0.680  -0.024  0.00  0.00    +0.180 A 
BRANCH   7  13
ATOM     13  C   LIG    1        3.400  -0.697   1.207  0.00  0.00    -0.280 C 
BRANCH  13  15
ATOM     14  C   LIG    1        5.957  -1.852   0.950  0.00  0.00    -0.270 C 
ATOM     15  S   LIG    1        4.701  -0.979  -0.025  0.00  0.00    +2.410 S 
ATOM     16  O   LIG    1        5.229   0.280  -0.421  0.00  0.00    -0.930 OA
ATOM     17  O   LIG    1        4.200  -1.865  -1.017  0.00  0.00    -0.940 OA
ENDBRANCH  13  15
ENDBRANCH   7  13
ENDBRANCH   1  12
BRANCH   4  18
ATOM     18  C   LIG    1       -1.082  -4.838   0.294  0.00  0.00    +0.320 A 
ATOM     19  N   LIG    1       -1.190  -6.142   0.386  0.00  0.00    -0.320 NA
ATOM     20  N   LIG    1       -2.550  -6.461   0.484  0.00  0.00    -0.470 N 
ATOM     21  H   LIG    1       -2.922  -7.354   0.567  0.00  0.00    +0.440 HD
ATOM     22  C   LIG    1       -3.254  -5.311   0.440  0.00  0.00    +0.110 A 
ATOM     23  C   LIG    1       -2.374  -4.290   0.322  0.00  0.00    -0.090 A 
BRANCH  22  24
ATOM     24  C   LIG    1       -4.755  -5.185   0.508  0.00  0.00    +0.110 C 
BRANCH  24  25
ATOM     25  C   LIG    1       -5.326  -5.119  -0.909  0.00  0.00    -0.010 C 
ATOM     26  C   LIG    1       -4.844  -3.839  -1.595  0.00  0.00    +0.010 C 
ATOM     27  C   LIG    1       -5.415  -3.773  -3.012  0.00  0.00    +0.000 C 
ATOM     28  C   LIG    1       -6.944  -3.771  -2.946  0.00  0.00    +0.000 C 
ATOM     29  C   LIG    1       -7.426  -5.051  -2.261  0.00  0.00    +0.000 C 
ATOM     30  C   LIG    1       -6.855  -5.117  -0.843  0.00  0.00    +0.020 C 
ENDBRANCH  24  25
ENDBRANCH  22  24
ENDBRANCH   4  18
TORSDOF 6
