REMARK  Name = ZINCtV000002HWMc.0
REMARK                            x       y       z     vdW  Elec       q    Type
REMARK                         _______ _______ _______ _____ _____    ______ ____
ROOT
ATOM      1  N   LIG    1        0.422  -5.024   1.854  0.00  0.00    -0.670 N 
ATOM      2  H   LIG    1       -0.125  -4.632   2.552  0.00  0.00    +0.410 HD
ATOM      3  C   LIG    1        0.544  -6.364   1.766  0.00  0.00    +0.560 C 
ATOM      4  O   LIG    1        1.295  -6.853   0.944  0.00  0.00    -0.520 OA
ENDROOT
BRANCH   1   9
ATOM      5  C   LIG    1        3.099  -1.654  -1.854  0.00  0.00    +0.090 C 
ATOM      6  C   LIG    1        2.390  -2.551  -0.873  0.00  0.00    -0.080 A 
ATOM      7  C   LIG    1        1.144  -2.201  -0.393  0.00  0.00    +0.030 A 
ATOM      8  C   LIG    1        0.492  -3.018   0.511  0.00  0.00    -0.010 A 
ATOM      9  C   LIG    1        1.085  -4.200   0.938  0.00  0.00    +0.140 A 
ATOM     10  C   LIG    1        2.334  -4.562   0.457  0.00  0.00    +0.040 A 
ATOM     11  C   LIG    1        2.990  -3.738  -0.454  0.00  0.00    -0.010 A 
BRANCH  11  12
ATOM     12  C   LIG    1        4.327  -4.119  -0.973  0.00  0.00    -0.060 A 
ATOM     13  C   LIG    1        4.624  -4.126  -2.285  0.00  0.00    -0.030 A 
ATOM     14  S   LIG    1        6.294  -4.630  -2.507  0.00  0.00    +0.110 S 
ATOM     15  C   LIG    1        6.508  -4.809  -0.772  0.00  0.00    -0.040 A 
ATOM     16  C   LIG    1        5.378  -4.499  -0.141  0.00  0.00    +0.020 A 
ENDBRANCH  11  12
ENDBRANCH   1   9
BRANCH   3  17
ATOM     17  C   LIG    1       -0.235  -7.236   2.666  0.00  0.00    -0.150 A 
ATOM     18  C   LIG    1       -1.095  -6.675   3.614  0.00  0.00    +0.070 A 
ATOM     19  C   LIG    1       -1.823  -7.491   4.449  0.00  0.00    +0.020 A 
ATOM     20  C   LIG    1       -1.696  -8.874   4.356  0.00  0.00    +0.180 A 
ATOM     21  C   LIG    1       -0.837  -9.436   3.417  0.00  0.00    -0.010 A 
ATOM     22  C   LIG    1       -0.110  -8.625   2.575  0.00  0.00    +0.110 A 
BRANCH  20  23
ATOM     23  N   LIG    1       -2.431  -9.698   5.207  0.00  0.00    -0.670 N 
ATOM     24  H   LIG    1       -2.046 -10.527   5.531  0.00  0.00    +0.410 HD
ATOM     25  C   LIG    1       -3.677  -9.343   5.578  0.00  0.00    +0.600 C 
ATOM     26  O   LIG    1       -4.129  -8.265   5.239  0.00  0.00    -0.500 OA
BRANCH  25  27
ATOM     27  C   LIG    1       -4.487 -10.255   6.390  0.00  0.00    -0.280 A 
ATOM     28  C   LIG    1       -5.759 -10.010   6.827  0.00  0.00    +0.120 A 
ATOM     29  C   LIG    1       -6.285 -11.039   7.572  0.00  0.00    +0.000 A 
ATOM     30  C   LIG    1       -5.475 -12.090   7.740  0.00  0.00    -0.050 A 
ATOM     31  S   LIG    1       -3.983 -11.843   6.951  0.00  0.00    +0.200 S 
ENDBRANCH  25  27
ENDBRANCH  20  23
ENDBRANCH   3  17
TORSDOF 5
