REMARK  Name = ZINCpe00000gM8X7.2
REMARK                            x       y       z     vdW  Elec       q    Type
REMARK                         _______ _______ _______ _____ _____    ______ ____
ROOT
ATOM      1  C   LIG    1       -4.336   0.225   3.084  0.00  0.00    +0.300 C 
ENDROOT
BRANCH   1   3
ATOM      2  C   LIG    1       -3.590   2.609   3.171  0.00  0.00    +0.230 C 
ATOM      3  C   LIG    1       -4.149   1.443   3.990  0.00  0.00    +0.000 C 
ATOM      4  C   LIG    1       -5.499   1.847   4.589  0.00  0.00    +0.000 C 
ATOM      5  C   LIG    1       -5.312   3.102   5.447  0.00  0.00    +0.020 C 
ATOM      6  C   LIG    1       -4.720   4.220   4.586  0.00  0.00    +0.170 C 
ATOM      7  N   LIG    1       -3.429   3.784   4.037  0.00  0.00    -0.530 NA
ATOM      8  C   LIG    1       -2.766   4.880   3.318  0.00  0.00    +0.190 C 
BRANCH   2  12
ATOM      9  C   LIG    1       -0.013   1.086   0.008  0.00  0.00    +0.360 C 
ATOM     10  N   LIG    1       -0.698   1.558   1.213  0.00  0.00    -0.380 N 
ATOM     11  C   LIG    1       -2.019   1.810   1.328  0.00  0.00    +0.230 A 
ATOM     12  C   LIG    1       -2.252   2.222   2.596  0.00  0.00    -0.230 A 
ATOM     13  C   LIG    1       -1.030   2.233   3.276  0.00  0.00    +0.250 A 
ATOM     14  N   LIG    1       -0.098   1.835   2.448  0.00  0.00    -0.300 NA
ENDBRANCH   2  12
ENDBRANCH   1   3
BRANCH   1  15
ATOM     15  N   LIG    1       -4.757  -0.923   3.890  0.00  0.00    -0.590 N 
ATOM     16  C   LIG    1       -3.753  -1.818   4.471  0.00  0.00    +0.300 C 
BRANCH  15  17
ATOM     17  C   LIG    1       -6.109  -1.165   4.103  0.00  0.00    +0.360 A 
ATOM     18  C   LIG    1       -7.069  -0.373   3.469  0.00  0.00    +0.190 A 
ATOM     19  N   LIG    1       -8.353  -0.604   3.667  0.00  0.00    -0.400 NA
ATOM     20  C   LIG    1       -8.736  -1.579   4.473  0.00  0.00    +0.220 A 
ATOM     21  C   LIG    1       -7.784  -2.369   5.113  0.00  0.00    +0.080 A 
ATOM     22  N   LIG    1       -6.488  -2.142   4.911  0.00  0.00    -0.480 NA
BRANCH  21  23
ATOM     23  C   LIG    1       -8.214  -3.462   6.016  0.00  0.00    +0.580 C 
ATOM     24  O   LIG    1       -9.397  -3.669   6.199  0.00  0.00    -0.530 OA
ATOM     25  N   LIG    1       -7.292  -4.227   6.634  0.00  0.00    -0.830 N 
ATOM     26  H   LIG    1       -7.574  -4.943   7.225  0.00  0.00    +0.410 HD
ATOM     27  H   LIG    1       -6.348  -4.062   6.487  0.00  0.00    +0.410 HD
ENDBRANCH  21  23
ENDBRANCH  15  17
ENDBRANCH   1  15
TORSDOF 5
