REMARK  Name = ZINCrD0000075CFb.0
REMARK                            x       y       z     vdW  Elec       q    Type
REMARK                         _______ _______ _______ _____ _____    ______ ____
ROOT
ATOM      1  O   LIG    1        2.956   3.422  -0.009  0.00  0.00    -0.550 OA
ATOM      2  C   LIG    1        1.768   3.161   0.001  0.00  0.00    +0.600 C 
ATOM      3  N   LIG    1        0.860   4.156   0.015  0.00  0.00    -0.720 N 
ATOM      4  H   LIG    1       -0.088   3.948   0.023  0.00  0.00    +0.410 HD
ENDROOT
BRANCH   2   5
ATOM      5  C   LIG    1        1.322   1.756  -0.001  0.00  0.00    -0.300 A 
ATOM      6  C   LIG    1        2.133   0.638  -0.015  0.00  0.00    +0.320 A 
ATOM      7  N   LIG    1        1.332  -0.439  -0.013  0.00  0.00    -0.350 N 
ATOM      8  N   LIG    1        0.002  -0.004   0.002  0.00  0.00    -0.270 NA
ATOM      9  C   LIG    1       -0.016   1.300   0.009  0.00  0.00    +0.270 A 
BRANCH   7  10
ATOM     10  C   LIG    1        1.776  -1.835  -0.025  0.00  0.00    +0.380 C 
BRANCH  10  11
ATOM     11  C   LIG    1        1.162  -2.567   1.141  0.00  0.00    -0.110 A 
ATOM     12  C   LIG    1        1.868  -2.703   2.321  0.00  0.00    +0.040 A 
ATOM     13  C   LIG    1        1.303  -3.370   3.392  0.00  0.00    +0.010 A 
ATOM     14  C   LIG    1        0.036  -3.912   3.279  0.00  0.00    +0.050 A 
ATOM     15  C   LIG    1       -0.669  -3.781   2.098  0.00  0.00    +0.020 A 
ATOM     16  C   LIG    1       -0.107  -3.108   1.028  0.00  0.00    -0.000 A 
ATOM     17 CL   LIG    1       -0.992  -2.943  -0.457  0.00  0.00    -0.050 Cl
ENDBRANCH  10  11
ENDBRANCH   7  10
ENDBRANCH   2   5
BRANCH   3  18
ATOM     18  C   LIG    1        1.303   5.553   0.018  0.00  0.00    +0.250 C 
BRANCH  18  19
ATOM     19  C   LIG    1        0.082   6.475   0.034  0.00  0.00    +0.260 C 
BRANCH  19  20
ATOM     20  C   LIG    1        0.538   7.912   0.037  0.00  0.00    -0.100 A 
ATOM     21  C   LIG    1        0.840   8.542  -1.155  0.00  0.00    +0.050 A 
ATOM     22  C   LIG    1        1.254   9.861  -1.156  0.00  0.00    +0.030 A 
ATOM     23  C   LIG    1        1.376  10.549   0.039  0.00  0.00    +0.070 A 
ATOM     24  C   LIG    1        1.078   9.914   1.236  0.00  0.00    +0.070 A 
ATOM     25  F   LIG    1        1.196  10.583   2.403  0.00  0.00    -0.120 F 
ATOM     26  F   LIG    1        1.784  11.836   0.039  0.00  0.00    -0.130 F 
ATOM     27  C   LIG    1        0.659   8.595   1.232  0.00  0.00    +0.040 A 
ENDBRANCH  19  20
BRANCH  19  28
ATOM     28  O   LIG    1       -0.715   6.231  -1.126  0.00  0.00    -0.550 OA
ATOM     29  H   LIG    1       -0.253   6.385  -1.961  0.00  0.00    +0.380 HD
ENDBRANCH  19  28
ENDBRANCH  18  19
ENDBRANCH   3  18
TORSDOF 7
