REMARK  Name = ZINCrH000004nChH.0
REMARK                            x       y       z     vdW  Elec       q    Type
REMARK                         _______ _______ _______ _____ _____    ______ ____
ROOT
ATOM      1  C   LIG    1       -6.404   0.429   0.585  0.00  0.00    +0.190 A 
ATOM      2  N   LIG    1       -6.357   0.488  -0.712  0.00  0.00    -0.360 NA
ATOM      3  O   LIG    1       -5.450   1.212  -1.067  0.00  0.00    +0.100 OA
ATOM      4  C   LIG    1       -4.807   1.689   0.003  0.00  0.00    +0.180 A 
ATOM      5  N   LIG    1       -5.409   1.200   1.060  0.00  0.00    -0.440 NA
ENDROOT
BRANCH   1   6
ATOM      6  C   LIG    1       -7.392  -0.359   1.406  0.00  0.00    +0.210 C 
BRANCH   6   9
ATOM      7  N   LIG    1       -9.617  -0.001   2.426  0.00  0.00    -0.660 N 
ATOM      8  H   LIG    1       -9.605  -0.930   2.704  0.00  0.00    +0.420 HD
ATOM      9  C   LIG    1       -8.597   0.497   1.700  0.00  0.00    +0.520 C 
ATOM     10  O   LIG    1       -8.648   1.635   1.283  0.00  0.00    -0.510 OA
BRANCH   7  16
ATOM     11  C   LIG    1      -11.338   0.646   4.001  0.00  0.00    +0.110 A 
ATOM     12  C   LIG    1      -12.399   1.467   4.347  0.00  0.00    -0.060 A 
ATOM     13  C   LIG    1      -12.824   2.451   3.474  0.00  0.00    +0.040 A 
ATOM     14  C   LIG    1      -12.190   2.623   2.257  0.00  0.00    -0.010 A 
ATOM     15  C   LIG    1      -11.127   1.812   1.908  0.00  0.00    +0.070 A 
ATOM     16  C   LIG    1      -10.694   0.822   2.778  0.00  0.00    +0.110 A 
BRANCH  11  18
ATOM     17  C   LIG    1      -11.629  -0.450   6.092  0.00  0.00    +0.250 C 
ATOM     18  O   LIG    1      -10.922  -0.327   4.856  0.00  0.00    -0.320 OA
ENDBRANCH  11  18
ENDBRANCH   7  16
ENDBRANCH   6   9
ENDBRANCH   1   6
BRANCH   4  19
ATOM     19  C   LIG    1       -3.620   2.618  -0.004  0.00  0.00    +0.390 C 
BRANCH  19  20
ATOM     20  O   LIG    1       -2.414   1.851  -0.024  0.00  0.00    -0.290 OA
BRANCH  20  21
ATOM     21  C   LIG    1       -1.243   2.541  -0.033  0.00  0.00    +0.150 A 
ATOM     22  C   LIG    1       -1.255   3.928  -0.016  0.00  0.00    -0.020 A 
ATOM     23  C   LIG    1       -0.064   4.628  -0.030  0.00  0.00    +0.060 A 
ATOM     24  C   LIG    1        1.141   3.947  -0.056  0.00  0.00    +0.070 A 
ATOM     25  C   LIG    1        1.155   2.562  -0.067  0.00  0.00    +0.060 A 
ATOM     26  F   LIG    1        2.304   4.634  -0.069  0.00  0.00    -0.130 F 
ATOM     27  C   LIG    1       -0.035   1.859  -0.053  0.00  0.00    -0.100 A 
ATOM     28 BR   LIG    1       -0.016  -0.032  -0.068  0.00  0.00    -0.020 Br
ENDBRANCH  20  21
ENDBRANCH  19  20
ENDBRANCH   4  19
TORSDOF 7
