REMARK  Name = ZINCpk000000noLU.0
REMARK                            x       y       z     vdW  Elec       q    Type
REMARK                         _______ _______ _______ _____ _____    ______ ____
ROOT
ATOM      1  C   LIG    1       -2.129   5.678  -0.998  0.00  0.00    +0.070 C 
ATOM      2  C   LIG    1       -1.242   5.995   0.208  0.00  0.00    +0.160 C 
ATOM      3  C   LIG    1       -2.025   5.738   1.498  0.00  0.00    +0.070 C 
ENDROOT
BRANCH   2   4
ATOM      4  C   LIG    1       -0.820   7.440   0.156  0.00  0.00    +0.530 C 
ATOM      5  N   LIG    1        0.313   7.834   0.770  0.00  0.00    -0.710 N 
ATOM      6  H   LIG    1        0.857   7.187   1.245  0.00  0.00    +0.410 HD
ATOM      7  O   LIG    1       -1.501   8.250  -0.438  0.00  0.00    -0.500 OA
BRANCH   5   8
ATOM      8  C   LIG    1        0.724   9.239   0.719  0.00  0.00    +0.270 C 
ATOM      9  C   LIG    1        2.241   9.337   0.905  0.00  0.00    +0.070 C 
ATOM     10  C   LIG    1        2.632  10.818   0.961  0.00  0.00    +0.110 C 
ATOM     11  C   LIG    1        1.845  11.495   2.051  0.00  0.00    +0.520 C 
ATOM     12  N   LIG    1        0.626  11.061   2.403  0.00  0.00    -0.670 N 
ATOM     13  H   LIG    1        0.149  11.531   3.105  0.00  0.00    +0.410 HD
ATOM     14  O   LIG    1        2.324  12.452   2.622  0.00  0.00    -0.500 OA
ATOM     15  C   LIG    1        0.041  10.003   1.823  0.00  0.00    +0.510 C 
ATOM     16  O   LIG    1       -1.060   9.655   2.194  0.00  0.00    -0.480 OA
ENDBRANCH   5   8
ENDBRANCH   2   4
BRANCH   2  17
ATOM     17  N   LIG    1       -0.054   5.138   0.179  0.00  0.00    -0.710 N 
ATOM     18  H   LIG    1        0.829   5.535   0.132  0.00  0.00    +0.420 HD
BRANCH  17  19
ATOM     19  C   LIG    1       -0.194   3.749   0.220  0.00  0.00    +0.300 A 
ATOM     20  C   LIG    1       -1.459   3.178   0.278  0.00  0.00    -0.020 A 
ATOM     21  C   LIG    1       -1.594   1.803   0.311  0.00  0.00    +0.000 A 
ATOM     22  C   LIG    1       -0.470   0.996   0.298  0.00  0.00    +0.010 A 
ATOM     23  C   LIG    1        0.791   1.562   0.240  0.00  0.00    +0.160 A 
ATOM     24 BR   LIG    1       -3.315   1.024   0.382  0.00  0.00    -0.010 Br
ATOM     25  C   LIG    1        0.932   2.935   0.201  0.00  0.00    -0.120 A 
BRANCH  25  26
ATOM     26  N   LIG    1        2.281   3.539   0.139  0.00  0.00    +0.050 N 
ATOM     27  O   LIG    1        2.404   4.742  -0.010  0.00  0.00    -0.200 OA
ATOM     28  O   LIG    1        3.269   2.834   0.238  0.00  0.00    -0.140 OA
ENDBRANCH  25  26
ENDBRANCH  17  19
ENDBRANCH   2  17
TORSDOF 5
