REMARK  Name = ZINCrD00000kZDSg.0
REMARK                            x       y       z     vdW  Elec       q    Type
REMARK                         _______ _______ _______ _____ _____    ______ ____
ROOT
ATOM      1  O   LIG    1       -2.298  -0.487  -0.457  0.00  0.00    -0.440 OA
ATOM      2  C   LIG    1       -1.179  -0.920  -0.278  0.00  0.00    +0.420 C 
ENDROOT
BRANCH   2   3
ATOM      3  C   LIG    1       -0.026  -0.015  -0.330  0.00  0.00    -0.260 A 
ATOM      4  C   LIG    1        1.304  -0.362  -0.147  0.00  0.00    +0.270 A 
ATOM      5  N   LIG    1        2.050   0.745  -0.272  0.00  0.00    -0.530 N 
ATOM      6  H   LIG    1        3.016   0.783  -0.191  0.00  0.00    +0.420 HD
ATOM      7  C   LIG    1        1.229   1.821  -0.536  0.00  0.00    -0.060 A 
ATOM      8  C   LIG    1       -0.059   1.378  -0.577  0.00  0.00    +0.120 A 
BRANCH   7   9
ATOM      9  C   LIG    1        1.668   3.207  -0.739  0.00  0.00    +0.600 C 
ATOM     10  N   LIG    1        2.978   3.516  -0.673  0.00  0.00    -0.620 N 
ATOM     11  C   LIG    1        4.069   2.568  -0.399  0.00  0.00    +0.220 C 
ATOM     12  C   LIG    1        5.385   3.373  -0.397  0.00  0.00    +0.040 C 
ATOM     13  C   LIG    1        4.905   4.819  -0.099  0.00  0.00    +0.040 C 
ATOM     14  C   LIG    1        3.554   4.860  -0.856  0.00  0.00    +0.260 C 
ATOM     15  O   LIG    1        0.849   4.077  -0.968  0.00  0.00    -0.520 OA
ENDBRANCH   7   9
ENDBRANCH   2   3
BRANCH   2  16
ATOM     16  C   LIG    1       -0.973  -2.387  -0.002  0.00  0.00    +0.190 C 
BRANCH  16  17
ATOM     17  N   LIG    1       -2.278  -3.049   0.127  0.00  0.00    -0.530 NA
ATOM     18  C   LIG    1       -2.129  -4.510   0.140  0.00  0.00    +0.170 C 
ATOM     19  C   LIG    1       -3.512  -5.165   0.128  0.00  0.00    +0.040 C 
ATOM     20  C   LIG    1       -4.301  -4.703   1.356  0.00  0.00    +0.020 C 
ATOM     21  C   LIG    1       -4.400  -3.175   1.344  0.00  0.00    +0.040 C 
ATOM     22  C   LIG    1       -2.992  -2.577   1.321  0.00  0.00    +0.170 C 
BRANCH  20  23
ATOM     23  C   LIG    1       -5.684  -5.298   1.319  0.00  0.00    -0.070 A 
ATOM     24  C   LIG    1       -6.527  -5.023   0.258  0.00  0.00    +0.010 A 
ATOM     25  C   LIG    1       -7.795  -5.573   0.221  0.00  0.00    +0.000 A 
ATOM     26  C   LIG    1       -8.224  -6.390   1.251  0.00  0.00    -0.010 A 
ATOM     27  C   LIG    1       -7.383  -6.661   2.314  0.00  0.00    +0.000 A 
ATOM     28  C   LIG    1       -6.114  -6.115   2.349  0.00  0.00    +0.000 A 
ENDBRANCH  20  23
ENDBRANCH  16  17
ENDBRANCH   2  16
TORSDOF 5
