REMARK  Name = ZINCrH000004rHRV.0
REMARK                            x       y       z     vdW  Elec       q    Type
REMARK                         _______ _______ _______ _____ _____    ______ ____
ROOT
ATOM      1  C   LIG    1       -0.651   1.724  -1.226  0.00  0.00    +0.510 C 
ATOM      2  N   LIG    1       -0.288   1.272  -2.443  0.00  0.00    -0.670 N 
ATOM      3  H   LIG    1        0.480   0.688  -2.535  0.00  0.00    +0.410 HD
ATOM      4  O   LIG    1       -1.552   2.529  -1.121  0.00  0.00    -0.480 OA
ENDROOT
BRANCH   2   5
ATOM      5  C   LIG    1       -1.022   1.647  -3.576  0.00  0.00    +0.160 A 
ATOM      6  C   LIG    1       -0.380   1.812  -4.795  0.00  0.00    +0.000 A 
ATOM      7  C   LIG    1       -1.101   2.182  -5.916  0.00  0.00    +0.050 A 
ATOM      8  C   LIG    1       -2.466   2.387  -5.819  0.00  0.00    +0.050 A 
ATOM      9  O   LIG    1       -3.187   2.754  -6.920  0.00  0.00    -0.320 OA
ATOM     10  C   LIG    1       -4.105   1.779  -7.418  0.00  0.00    +0.230 C 
ATOM     11  C   LIG    1       -5.426   1.850  -6.669  0.00  0.00    -0.010 C 
ATOM     12  C   LIG    1       -5.279   1.480  -5.201  0.00  0.00    +0.230 C 
ATOM     13  O   LIG    1       -4.458   2.429  -4.519  0.00  0.00    -0.320 OA
ATOM     14  C   LIG    1       -3.112   2.223  -4.601  0.00  0.00    +0.090 A 
ATOM     15  C   LIG    1       -2.394   1.847  -3.480  0.00  0.00    +0.030 A 
ENDBRANCH   2   5
BRANCH   1  16
ATOM     16  C   LIG    1        0.064   1.228   0.005  0.00  0.00    +0.240 C 
BRANCH  16  17
ATOM     17  O   LIG    1       -0.497   1.848   1.164  0.00  0.00    -0.270 OA
BRANCH  17  22
ATOM     18  C   LIG    1       -3.072   4.486   4.531  0.00  0.00    +0.130 C 
ATOM     19  C   LIG    1       -1.939   3.497   4.622  0.00  0.00    +0.150 A 
ATOM     20  N   LIG    1       -1.469   2.962   3.522  0.00  0.00    -0.450 NA
ATOM     21  C   LIG    1       -0.462   2.084   3.552  0.00  0.00    +0.120 A 
ATOM     22  C   LIG    1        0.037   1.508   2.365  0.00  0.00    +0.160 A 
ATOM     23  C   LIG    1        1.064   0.610   2.430  0.00  0.00    -0.080 A 
ATOM     24  C   LIG    1        1.625   0.249   3.652  0.00  0.00    +0.050 A 
ATOM     25  C   LIG    1        1.165   0.782   4.818  0.00  0.00    +0.000 A 
ATOM     26  C   LIG    1        0.110   1.708   4.792  0.00  0.00    -0.070 A 
ATOM     27  C   LIG    1       -0.392   2.281   5.976  0.00  0.00    +0.070 A 
ATOM     28  C   LIG    1       -1.419   3.175   5.875  0.00  0.00    -0.020 A 
ENDBRANCH  17  22
ENDBRANCH  16  17
ENDBRANCH   1  16
TORSDOF 4
