REMARK  Name = ZINCpk00000xI3z0.0
REMARK                            x       y       z     vdW  Elec       q    Type
REMARK                         _______ _______ _______ _____ _____    ______ ____
ROOT
ATOM      1  C   LIG    1       -0.588  -3.767   5.325  0.00  0.00    +0.220 C 
ATOM      2  C   LIG    1        0.502  -2.844   5.929  0.00  0.00    +0.050 C 
ATOM      3  C   LIG    1        1.617  -2.939   4.856  0.00  0.00    +0.280 C 
ATOM      4  N   LIG    1        0.897  -2.990   3.570  0.00  0.00    -0.620 N 
ATOM      5  C   LIG    1        1.398  -2.623   2.374  0.00  0.00    +0.550 C 
ATOM      6  O   LIG    1        2.560  -2.291   2.279  0.00  0.00    -0.500 OA
ATOM      7  C   LIG    1       -0.457  -3.512   3.809  0.00  0.00    +0.300 C 
ENDROOT
BRANCH   1  12
ATOM      8  C   LIG    1       -4.606  -2.883   8.180  0.00  0.00    +0.200 C 
ATOM      9  C   LIG    1       -3.662  -2.991   7.011  0.00  0.00    +0.170 A 
ATOM     10  N   LIG    1       -3.916  -2.653   5.783  0.00  0.00    -0.380 NA
ATOM     11  O   LIG    1       -2.950  -2.862   5.080  0.00  0.00    +0.090 OA
ATOM     12  C   LIG    1       -1.956  -3.369   5.816  0.00  0.00    +0.160 A 
ATOM     13  N   LIG    1       -2.401  -3.460   7.046  0.00  0.00    -0.470 NA
ENDBRANCH   1  12
BRANCH   5  14
ATOM     14  C   LIG    1        0.513  -2.627   1.154  0.00  0.00    +0.130 C 
ATOM     15  C   LIG    1        0.609  -3.984   0.413  0.00  0.00    +0.060 C 
ATOM     16  C   LIG    1        0.203  -3.618  -1.033  0.00  0.00    +0.020 C 
ATOM     17  C   LIG    1        0.458  -2.104  -1.152  0.00  0.00    +0.190 C 
ATOM     18  N   LIG    1        1.007  -1.654   0.146  0.00  0.00    -0.460 N 
BRANCH  18  19
ATOM     19  C   LIG    1        0.578  -0.359   0.448  0.00  0.00    +0.070 A 
ATOM     20  C   LIG    1       -0.778  -0.086   0.569  0.00  0.00    -0.030 A 
ATOM     21  C   LIG    1       -1.199   1.195   0.868  0.00  0.00    +0.010 A 
ATOM     22  C   LIG    1       -0.271   2.205   1.048  0.00  0.00    +0.000 A 
ATOM     23  C   LIG    1        1.080   1.936   0.928  0.00  0.00    +0.020 A 
ATOM     24  C   LIG    1        1.507   0.657   0.629  0.00  0.00    +0.050 A 
ENDBRANCH  18  19
ENDBRANCH   5  14
BRANCH   1  25
ATOM     25  O   LIG    1       -0.318  -5.137   5.632  0.00  0.00    -0.520 OA
ATOM     26  H   LIG    1       -0.387  -5.350   6.573  0.00  0.00    +0.400 HD
ENDBRANCH   1  25
TORSDOF 4
