REMARK  Name = ZINCrH000004reBT.0
REMARK                            x       y       z     vdW  Elec       q    Type
REMARK                         _______ _______ _______ _____ _____    ______ ____
ROOT
ATOM      1  C   LIG    1        5.949   0.393   2.961  0.00  0.00    -0.160 A 
ATOM      2  C   LIG    1        5.064   0.415   4.025  0.00  0.00    +0.090 A 
ATOM      3  C   LIG    1        5.552   0.291   5.334  0.00  0.00    -0.080 A 
ATOM      4  C   LIG    1        4.681   0.304   6.438  0.00  0.00    +0.040 A 
ATOM      5  C   LIG    1        5.185   0.188   7.697  0.00  0.00    +0.010 A 
ATOM      6  C   LIG    1        6.555   0.055   7.911  0.00  0.00    +0.030 A 
ATOM      7  C   LIG    1        7.430   0.038   6.867  0.00  0.00    +0.020 A 
ATOM      8  C   LIG    1        6.948   0.156   5.552  0.00  0.00    -0.010 A 
ATOM      9  C   LIG    1        7.827   0.142   4.457  0.00  0.00    +0.030 A 
ATOM     10  C   LIG    1        7.337   0.259   3.188  0.00  0.00    +0.200 A 
ENDROOT
BRANCH   1  13
ATOM     11  N   LIG    1        4.113   0.545   1.353  0.00  0.00    -0.720 N 
ATOM     12  H   LIG    1        3.491   0.484   2.095  0.00  0.00    +0.400 HD
ATOM     13  C   LIG    1        5.441   0.517   1.581  0.00  0.00    +0.570 C 
ATOM     14  O   LIG    1        6.220   0.594   0.651  0.00  0.00    -0.540 OA
BRANCH  11  15
ATOM     15  C   LIG    1        3.608   0.669  -0.017  0.00  0.00    +0.350 C 
BRANCH  15  20
ATOM     16  C   LIG    1       -1.213  -0.915   0.043  0.00  0.00    +0.120 C 
ATOM     17  C   LIG    1       -0.004  -0.015   0.028  0.00  0.00    +0.030 A 
ATOM     18  C   LIG    1       -0.022   1.333   0.029  0.00  0.00    -0.060 A 
ATOM     19  C   LIG    1        1.316   1.773   0.012  0.00  0.00    -0.020 A 
ATOM     20  C   LIG    1        2.101   0.676   0.002  0.00  0.00    -0.020 A 
ATOM     21  N   LIG    1        1.296  -0.424   0.012  0.00  0.00    -0.440 N 
ATOM     22  C   LIG    1        1.753  -1.816   0.006  0.00  0.00    +0.320 C 
ENDBRANCH  15  20
ENDBRANCH  11  15
ENDBRANCH   1  13
BRANCH  10  23
ATOM     23  N   LIG    1        8.215   0.244   2.104  0.00  0.00    -0.660 N 
ATOM     24  H   LIG    1        8.032   0.790   1.324  0.00  0.00    +0.430 HD
ATOM     25  C   LIG    1        9.319  -0.529   2.142  0.00  0.00    +0.540 C 
ATOM     26  O   LIG    1        9.499  -1.284   3.074  0.00  0.00    -0.520 OA
BRANCH  25  27
ATOM     27  C   LIG    1       10.328  -0.456   1.026  0.00  0.00    -0.070 C 
ATOM     28  C   LIG    1       10.460  -1.675   0.111  0.00  0.00    +0.060 C 
ATOM     29  C   LIG    1       11.559  -1.359   1.126  0.00  0.00    +0.070 C 
ENDBRANCH  25  27
ENDBRANCH  10  23
TORSDOF 5
