REMARK  Name = ZINCkj000005eUex.0
REMARK                            x       y       z     vdW  Elec       q    Type
REMARK                         _______ _______ _______ _____ _____    ______ ____
ROOT
ATOM      1  C   LIG    1       -2.463  -2.524   1.262  0.00  0.00    +0.200 C 
ATOM      2  C   LIG    1       -2.302  -3.855   0.525  0.00  0.00    +0.080 C 
ATOM      3  C   LIG    1       -1.097  -4.607   1.098  0.00  0.00    +0.060 C 
ATOM      4  C   LIG    1        0.148  -3.724   0.978  0.00  0.00    +0.060 C 
ATOM      5  C   LIG    1       -0.104  -2.397   1.698  0.00  0.00    +0.260 C 
ATOM      6  N   LIG    1       -1.251  -1.714   1.087  0.00  0.00    -0.370 N 
ATOM      7  H   LIG    1       -1.076  -1.582   0.102  0.00  0.00    +0.430 HD
ENDROOT
BRANCH   1   8
ATOM      8  C   LIG    1       -3.648  -1.780   0.702  0.00  0.00    +0.460 C 
ATOM      9  O   LIG    1       -3.493  -0.984  -0.194  0.00  0.00    -0.480 OA
BRANCH   8  10
ATOM     10  O   LIG    1       -4.875  -2.002   1.198  0.00  0.00    -0.330 OA
BRANCH  10  12
ATOM     11  C   LIG    1       -6.065  -1.572  -0.883  0.00  0.00    +0.040 C 
ATOM     12  C   LIG    1       -5.969  -1.251   0.610  0.00  0.00    +0.120 C 
ATOM     13  C   LIG    1       -5.716   0.247   0.794  0.00  0.00    +0.050 C 
ATOM     14  C   LIG    1       -7.280  -1.635   1.299  0.00  0.00    +0.080 C 
ENDBRANCH  10  12
ENDBRANCH   8  10
ENDBRANCH   1   8
BRANCH   6  15
ATOM     15  C   LIG    1       -1.440  -0.407   1.730  0.00  0.00    +0.270 C 
BRANCH  15  16
ATOM     16  C   LIG    1       -0.284   0.521   1.349  0.00  0.00    -0.010 C 
ATOM     17  C   LIG    1       -0.562   1.968   1.811  0.00  0.00    +0.290 C 
ATOM     18  N   LIG    1        0.739   2.502   2.229  0.00  0.00    -0.730 N 
ATOM     19  H   LIG    1        0.932   3.446   2.345  0.00  0.00    +0.420 HD
ATOM     20  C   LIG    1        1.630   1.516   2.432  0.00  0.00    +0.520 C 
ATOM     21  O   LIG    1        2.777   1.678   2.789  0.00  0.00    -0.510 OA
ATOM     22  C   LIG    1        0.992   0.173   2.150  0.00  0.00    +0.070 C 
ENDBRANCH  15  16
ENDBRANCH   6  15
TORSDOF 5
