REMARK  Name = ZINCkj000005eUex.1
REMARK                            x       y       z     vdW  Elec       q    Type
REMARK                         _______ _______ _______ _____ _____    ______ ____
ROOT
ATOM      1  C   LIG    1       -0.731   1.580   1.266  0.00  0.00    +0.210 C 
ATOM      2  C   LIG    1       -0.013   1.086   0.008  0.00  0.00    +0.090 C 
ATOM      3  C   LIG    1       -0.755   1.594  -1.231  0.00  0.00    +0.060 C 
ATOM      4  C   LIG    1       -2.211   1.122  -1.172  0.00  0.00    +0.060 C 
ATOM      5  C   LIG    1       -2.848   1.615   0.129  0.00  0.00    +0.270 C 
ATOM      6  N   LIG    1       -2.109   1.074   1.276  0.00  0.00    -0.370 N 
ATOM      7  H   LIG    1       -2.564   1.357   2.131  0.00  0.00    +0.430 HD
ENDROOT
BRANCH   1   8
ATOM      8  C   LIG    1       -0.002   1.083   2.487  0.00  0.00    +0.460 C 
ATOM      9  O   LIG    1       -0.573   0.376   3.285  0.00  0.00    -0.490 OA
BRANCH   8  10
ATOM     10  O   LIG    1        1.280   1.424   2.690  0.00  0.00    -0.330 OA
BRANCH  10  12
ATOM     11  C   LIG    1        1.900  -0.621   3.857  0.00  0.00    +0.040 C 
ATOM     12  C   LIG    1        1.918   0.909   3.888  0.00  0.00    +0.120 C 
ATOM     13  C   LIG    1        1.161   1.403   5.122  0.00  0.00    +0.040 C 
ATOM     14  C   LIG    1        3.365   1.401   3.947  0.00  0.00    +0.080 C 
ENDBRANCH  10  12
ENDBRANCH   8  10
ENDBRANCH   1   8
BRANCH   6  15
ATOM     15  C   LIG    1       -2.089  -0.393   1.196  0.00  0.00    +0.260 C 
BRANCH  15  16
ATOM     16  C   LIG    1       -3.514  -0.931   1.341  0.00  0.00    -0.010 C 
ATOM     17  C   LIG    1       -3.539  -2.470   1.215  0.00  0.00    +0.290 C 
ATOM     18  N   LIG    1       -4.562  -2.925   2.164  0.00  0.00    -0.730 N 
ATOM     19  H   LIG    1       -4.971  -3.804   2.148  0.00  0.00    +0.420 HD
ATOM     20  C   LIG    1       -4.858  -1.966   3.059  0.00  0.00    +0.520 C 
ATOM     21  O   LIG    1       -5.665  -2.080   3.958  0.00  0.00    -0.510 OA
ATOM     22  C   LIG    1       -4.040  -0.724   2.781  0.00  0.00    +0.060 C 
ENDBRANCH  15  16
ENDBRANCH   6  15
TORSDOF 5
