REMARK  Name = ZINCkj00000dDjiC.0
REMARK                            x       y       z     vdW  Elec       q    Type
REMARK                         _______ _______ _______ _____ _____    ______ ____
ROOT
ATOM      1  N   LIG    1       -0.021  -2.724  -0.009  0.00  0.00    -0.670 N 
ATOM      2  H   LIG    1       -0.017  -3.691  -0.086  0.00  0.00    +0.410 HD
ATOM      3  C   LIG    1       -1.190  -2.063   0.104  0.00  0.00    +0.690 C 
ATOM      4  N   LIG    1       -2.345  -2.749   0.213  0.00  0.00    -0.640 N 
ATOM      5  C   LIG    1       -3.619  -2.002   0.227  0.00  0.00    +0.310 C 
ATOM      6  C   LIG    1       -4.589  -2.580   1.273  0.00  0.00    +0.060 C 
ATOM      7  C   LIG    1       -3.819  -2.954   2.520  0.00  0.00    +0.260 C 
ATOM      8  N   LIG    1       -3.438  -4.363   2.447  0.00  0.00    -0.370 N 
ATOM      9  C   LIG    1       -2.208  -4.614   1.798  0.00  0.00    +0.230 C 
ATOM     10  C   LIG    1       -3.352  -4.891   3.815  0.00  0.00    +0.330 C 
ATOM     11  H   LIG    1       -4.164  -4.864   1.958  0.00  0.00    +0.420 HD
ATOM     12  C   LIG    1       -2.292  -4.193   0.306  0.00  0.00    +0.310 C 
ATOM     13  O   LIG    1       -1.203  -0.847   0.108  0.00  0.00    -0.510 OA
ENDROOT
BRANCH   1  17
ATOM     14  C   LIG    1        3.516  -0.610  -0.029  0.00  0.00    +0.150 A 
ATOM     15  C   LIG    1        3.575  -2.003  -0.034  0.00  0.00    +0.010 A 
ATOM     16  C   LIG    1        2.387  -2.712  -0.027  0.00  0.00    -0.020 A 
ATOM     17  C   LIG    1        1.183  -2.017  -0.016  0.00  0.00    +0.290 A 
ATOM     18  N   LIG    1        1.165  -0.694  -0.012  0.00  0.00    -0.430 NA
ATOM     19  C   LIG    1        2.278   0.014  -0.018  0.00  0.00    +0.220 A 
BRANCH  14  21
ATOM     20  C   LIG    1        5.996  -0.521  -0.048  0.00  0.00    +0.280 C 
ATOM     21  N   LIG    1        4.693   0.148  -0.036  0.00  0.00    -0.630 N 
ATOM     22  C   LIG    1        4.620   1.612  -0.031  0.00  0.00    +0.280 C 
ENDBRANCH  14  21
ENDBRANCH   1  17
TORSDOF 2
