REMARK  Name = ZINCkj00000dDjiC.1
REMARK                            x       y       z     vdW  Elec       q    Type
REMARK                         _______ _______ _______ _____ _____    ______ ____
ROOT
ATOM      1  N   LIG    1        2.281   3.852  -0.485  0.00  0.00    -0.650 N 
ATOM      2  H   LIG    1        3.125   3.380  -0.402  0.00  0.00    +0.410 HD
ATOM      3  C   LIG    1        2.272   5.174  -0.746  0.00  0.00    +0.710 C 
ATOM      4  N   LIG    1        3.430   5.824  -0.976  0.00  0.00    -0.640 N 
ATOM      5  C   LIG    1        4.679   5.042  -1.069  0.00  0.00    +0.280 C 
ATOM      6  C   LIG    1        5.568   5.561  -2.218  0.00  0.00    +0.060 C 
ATOM      7  C   LIG    1        4.704   5.919  -3.407  0.00  0.00    +0.260 C 
ATOM      8  N   LIG    1        4.365   7.339  -3.347  0.00  0.00    -0.370 N 
ATOM      9  C   LIG    1        3.203   7.643  -2.603  0.00  0.00    +0.230 C 
ATOM     10  C   LIG    1        4.179   7.829  -4.719  0.00  0.00    +0.330 C 
ATOM     11  H   LIG    1        5.144   7.832  -2.937  0.00  0.00    +0.420 HD
ATOM     12  C   LIG    1        3.405   7.265  -1.117  0.00  0.00    +0.350 C 
ATOM     13  O   LIG    1        1.218   5.780  -0.774  0.00  0.00    -0.560 OA
ENDROOT
BRANCH   1  17
ATOM     14  C   LIG    1       -1.258   1.785  -0.050  0.00  0.00    +0.160 A 
ATOM     15  C   LIG    1       -1.271   3.168   0.121  0.00  0.00    +0.000 A 
ATOM     16  C   LIG    1       -0.083   3.862  -0.027  0.00  0.00    +0.040 A 
ATOM     17  C   LIG    1        1.077   3.161  -0.334  0.00  0.00    +0.280 A 
ATOM     18  N   LIG    1        1.054   1.847  -0.485  0.00  0.00    -0.470 NA
ATOM     19  C   LIG    1       -0.060   1.153  -0.351  0.00  0.00    +0.210 A 
BRANCH  14  21
ATOM     20  C   LIG    1       -2.437  -0.392  -0.211  0.00  0.00    +0.290 C 
ATOM     21  N   LIG    1       -2.437   1.044   0.084  0.00  0.00    -0.630 N 
ATOM     22  C   LIG    1       -3.671   1.702   0.520  0.00  0.00    +0.290 C 
ENDBRANCH  14  21
ENDBRANCH   1  17
TORSDOF 2
