REMARK  Name = ZINCtV000002OYEM.0
REMARK                            x       y       z     vdW  Elec       q    Type
REMARK                         _______ _______ _______ _____ _____    ______ ____
ROOT
ATOM      1  C   LIG    1        2.395   1.399  -0.013  0.00  0.00    -0.160 A 
ATOM      2  C   LIG    1        2.399   0.002  -0.021  0.00  0.00    +0.120 A 
ATOM      3  C   LIG    1        1.206  -0.689  -0.013  0.00  0.00    -0.040 A 
ATOM      4  C   LIG    1        0.002  -0.004   0.002  0.00  0.00    +0.090 A 
ATOM      5  C   LIG    1       -0.017   1.377   0.010  0.00  0.00    -0.090 A 
ATOM      6  C   LIG    1        1.174   2.088   0.002  0.00  0.00    +0.190 A 
ENDROOT
BRANCH   1   8
ATOM      7  O   LIG    1        3.659   3.359  -0.015  0.00  0.00    -0.480 OA
ATOM      8  C   LIG    1        3.667   2.144  -0.022  0.00  0.00    +0.510 C 
BRANCH   8   9
ATOM      9  O   LIG    1        4.838   1.478  -0.037  0.00  0.00    -0.350 OA
BRANCH   9  10
ATOM     10  C   LIG    1        6.050   2.276  -0.045  0.00  0.00    +0.280 C 
BRANCH  10  11
ATOM     11  C   LIG    1        7.251   1.366  -0.062  0.00  0.00    -0.100 A 
ATOM     12  C   LIG    1        7.817   0.947   1.128  0.00  0.00    +0.080 A 
ATOM     13  C   LIG    1        8.916   0.108   1.112  0.00  0.00    +0.020 A 
ATOM     14  C   LIG    1        9.455  -0.304  -0.092  0.00  0.00    +0.080 A 
ATOM     15  C   LIG    1        8.891   0.120  -1.282  0.00  0.00    -0.190 A 
ATOM     16  C   LIG    1        7.790   0.955  -1.266  0.00  0.00    +0.090 A 
BRANCH  15  17
ATOM     17  C   LIG    1        9.479  -0.329  -2.595  0.00  0.00    +0.510 C 
ATOM     18  F   LIG    1        8.468  -0.393  -3.561  0.00  0.00    -0.180 F 
ATOM     19  F   LIG    1       10.056  -1.594  -2.440  0.00  0.00    -0.180 F 
ATOM     20  F   LIG    1       10.457   0.583  -3.005  0.00  0.00    -0.180 F 
ENDBRANCH  15  17
ENDBRANCH  10  11
ENDBRANCH   9  10
ENDBRANCH   8   9
ENDBRANCH   1   8
BRANCH   6  21
ATOM     21  O   LIG    1        1.157   3.445   0.009  0.00  0.00    -0.280 OA
BRANCH  21  22
ATOM     22  C   LIG    1       -0.124   4.077   0.024  0.00  0.00    +0.250 C 
BRANCH  22  23
ATOM     23  C   LIG    1        0.054   5.574   0.030  0.00  0.00    -0.090 A 
ATOM     24  C   LIG    1        0.142   6.254   1.230  0.00  0.00    +0.050 A 
ATOM     25  C   LIG    1        0.311   7.626   1.236  0.00  0.00    +0.030 A 
ATOM     26  C   LIG    1        0.381   8.319   0.041  0.00  0.00    -0.020 A 
ATOM     27  C   LIG    1        0.288   7.638  -1.160  0.00  0.00    +0.030 A 
ATOM     28 CL   LIG    1        0.586  10.043   0.048  0.00  0.00    -0.060 Cl
ATOM     29  C   LIG    1        0.125   6.266  -1.165  0.00  0.00    +0.050 A 
ENDBRANCH  22  23
ENDBRANCH  21  22
ENDBRANCH   6  21
TORSDOF 8
