REMARK  Name = ZINCkj000005h7pl.0
REMARK                            x       y       z     vdW  Elec       q    Type
REMARK                         _______ _______ _______ _____ _____    ______ ____
ROOT
ATOM      1  C   LIG    1        0.720   3.066   0.011  0.00  0.00    -0.220 A 
ATOM      2  C   LIG    1        1.091   1.754   0.001  0.00  0.00    +0.320 A 
ATOM      3  N   LIG    1       -0.011   0.966   0.007  0.00  0.00    -0.570 N 
ATOM      4  H   LIG    1        0.002  -0.004   0.002  0.00  0.00    +0.430 HD
ATOM      5  C   LIG    1       -1.155   1.738   0.016  0.00  0.00    +0.130 A 
ATOM      6  C   LIG    1       -2.511   1.429   0.032  0.00  0.00    +0.040 A 
ATOM      7  C   LIG    1       -3.446   2.442   0.046  0.00  0.00    +0.120 A 
ATOM      8  C   LIG    1       -3.049   3.771   0.049  0.00  0.00    -0.060 A 
ATOM      9  C   LIG    1       -1.710   4.096   0.039  0.00  0.00    +0.170 A 
ATOM     10  C   LIG    1       -0.754   3.083   0.025  0.00  0.00    -0.070 A 
ENDROOT
BRANCH   1  13
ATOM     11  N   LIG    1        2.950   4.058  -0.005  0.00  0.00    -0.730 N 
ATOM     12  H   LIG    1        3.321   3.162  -0.013  0.00  0.00    +0.400 HD
ATOM     13  C   LIG    1        1.613   4.232   0.008  0.00  0.00    +0.600 C 
ATOM     14  O   LIG    1        1.147   5.356   0.018  0.00  0.00    -0.520 OA
BRANCH  11  15
ATOM     15  C   LIG    1        3.840   5.221  -0.008  0.00  0.00    +0.280 C 
BRANCH  15  16
ATOM     16  C   LIG    1        5.295   4.749  -0.024  0.00  0.00    +0.260 C 
BRANCH  16  18
ATOM     17  C   LIG    1        6.033   6.654   1.234  0.00  0.00    +0.320 C 
ATOM     18  N   LIG    1        6.189   5.915  -0.026  0.00  0.00    -0.380 N 
ATOM     19  C   LIG    1        7.580   5.466  -0.162  0.00  0.00    +0.320 C 
ATOM     20  H   LIG    1        5.953   6.518  -0.801  0.00  0.00    +0.430 HD
ENDBRANCH  16  18
ENDBRANCH  15  16
ENDBRANCH  11  15
ENDBRANCH   1  13
BRANCH   8  21
ATOM     21  N   LIG    1       -4.068   4.844   0.063  0.00  0.00    +0.030 N 
ATOM     22  O   LIG    1       -5.252   4.559   0.072  0.00  0.00    -0.150 OA
ATOM     23  O   LIG    1       -3.722   6.012   0.065  0.00  0.00    -0.160 OA
ENDBRANCH   8  21
TORSDOF 5
