REMARK  Name = ZINCrH000004tPPO.0
REMARK                            x       y       z     vdW  Elec       q    Type
REMARK                         _______ _______ _______ _____ _____    ______ ____
ROOT
ATOM      1  O   LIG    1       -1.736   2.268  -1.088  0.00  0.00    -0.500 OA
ATOM      2  C   LIG    1       -0.742   1.585  -1.213  0.00  0.00    +0.540 C 
ATOM      3  N   LIG    1       -0.288   1.272  -2.443  0.00  0.00    -0.600 N 
ATOM      4  C   LIG    1        0.906   0.460  -2.738  0.00  0.00    +0.250 C 
ATOM      5  C   LIG    1        0.651  -0.116  -4.156  0.00  0.00    +0.040 C 
ATOM      6  C   LIG    1       -0.056   1.078  -4.851  0.00  0.00    +0.060 C 
ATOM      7  C   LIG    1       -0.899   1.690  -3.713  0.00  0.00    +0.320 C 
ENDROOT
BRANCH   7   8
ATOM      8  C   LIG    1       -0.890   3.194  -3.816  0.00  0.00    +0.280 A 
ATOM      9  N   LIG    1       -0.055   3.978  -3.198  0.00  0.00    -0.470 NA
ATOM     10  C   LIG    1       -0.323   5.271  -3.515  0.00  0.00    +0.050 A 
ATOM     11  C   LIG    1        0.248   6.491  -3.147  0.00  0.00    +0.070 A 
ATOM     12  C   LIG    1       -0.262   7.659  -3.642  0.00  0.00    +0.000 A 
ATOM     13  C   LIG    1       -1.345   7.646  -4.508  0.00  0.00    +0.030 A 
ATOM     14  C   LIG    1       -1.925   6.453  -4.885  0.00  0.00    +0.010 A 
ATOM     15  C   LIG    1       -1.421   5.258  -4.393  0.00  0.00    +0.050 A 
ATOM     16  N   LIG    1       -1.756   3.929  -4.564  0.00  0.00    -0.590 N 
ATOM     17  H   LIG    1       -2.476   3.585  -5.115  0.00  0.00    +0.420 HD
ENDBRANCH   7   8
BRANCH   2  18
ATOM     18  C   LIG    1       -0.013   1.086   0.008  0.00  0.00    +0.240 C 
BRANCH  18  19
ATOM     19  O   LIG    1       -0.682   1.547   1.184  0.00  0.00    -0.290 OA
BRANCH  19  20
ATOM     20  C   LIG    1       -0.149   1.182   2.380  0.00  0.00    +0.130 A 
ATOM     21  C   LIG    1        0.991   0.392   2.421  0.00  0.00    -0.080 A 
ATOM     22  C   LIG    1        1.531   0.029   3.639  0.00  0.00    +0.050 A 
ATOM     23  C   LIG    1        0.934   0.440   4.819  0.00  0.00    -0.130 A 
ATOM     24  C   LIG    1        1.322   0.173   6.258  0.00  0.00    +0.070 C 
ATOM     25  C   LIG    1        0.061   0.505   7.084  0.00  0.00    +0.030 C 
ATOM     26  C   LIG    1       -0.660   1.535   6.189  0.00  0.00    +0.080 C 
ATOM     27  C   LIG    1       -0.205   1.223   4.780  0.00  0.00    -0.060 A 
ATOM     28  C   LIG    1       -0.746   1.594   3.561  0.00  0.00    -0.010 A 
ENDBRANCH  19  20
ENDBRANCH  18  19
ENDBRANCH   2  18
TORSDOF 4
