REMARK  Name = ZINCvU0000000F5f.0
REMARK                            x       y       z     vdW  Elec       q    Type
REMARK                         _______ _______ _______ _____ _____    ______ ____
ROOT
ATOM      1  C   LIG    1       -3.825   1.640   0.077  0.00  0.00    -0.140 C 
ATOM      2  C   LIG    1       -4.968   0.874   0.155  0.00  0.00    +0.190 C 
ENDROOT
BRANCH   1   3
ATOM      3  C   LIG    1       -3.921   3.110   0.097  0.00  0.00    +0.300 A 
ATOM      4  N   LIG    1       -3.425   3.909  -0.817  0.00  0.00    -0.460 NA
ATOM      5  C   LIG    1       -3.705   5.192  -0.473  0.00  0.00    +0.030 A 
ATOM      6  C   LIG    1       -3.430   6.429  -1.060  0.00  0.00    +0.080 A 
ATOM      7  C   LIG    1       -3.856   7.586  -0.446  0.00  0.00    +0.020 A 
ATOM      8  C   LIG    1       -4.555   7.530   0.750  0.00  0.00    +0.050 A 
ATOM      9  C   LIG    1       -4.833   6.314   1.342  0.00  0.00    +0.040 A 
ATOM     10  C   LIG    1       -4.413   5.140   0.739  0.00  0.00    +0.010 A 
ATOM     11  O   LIG    1       -4.527   3.831   1.060  0.00  0.00    -0.200 OA
ENDBRANCH   1   3
BRANCH   2  12
ATOM     12  C   LIG    1       -6.283   1.513   0.103  0.00  0.00    -0.080 A 
ATOM     13  C   LIG    1       -6.485   2.648  -0.694  0.00  0.00    +0.050 A 
ATOM     14  C   LIG    1       -7.731   3.242  -0.741  0.00  0.00    +0.100 A 
ATOM     15  C   LIG    1       -8.781   2.724   0.008  0.00  0.00    -0.010 A 
ATOM     16  C   LIG    1       -8.593   1.610   0.802  0.00  0.00    -0.030 A 
ATOM     17  C   LIG    1       -7.352   0.997   0.858  0.00  0.00    +0.130 A 
BRANCH  14  18
ATOM     18  O   LIG    1       -7.929   4.340  -1.519  0.00  0.00    -0.310 OA
ATOM     19  C   LIG    1       -9.241   4.908  -1.516  0.00  0.00    +0.250 C 
ENDBRANCH  14  18
BRANCH  17  20
ATOM     20  O   LIG    1       -7.168  -0.098   1.639  0.00  0.00    -0.310 OA
ATOM     21  C   LIG    1       -8.298  -0.566   2.377  0.00  0.00    +0.260 C 
ENDBRANCH  17  20
ENDBRANCH   2  12
BRANCH   1  22
ATOM     22  C   LIG    1       -2.510   0.991  -0.027  0.00  0.00    +0.460 C 
ATOM     23  O   LIG    1       -2.230   0.339  -1.016  0.00  0.00    -0.430 OA
BRANCH  22  27
ATOM     24  C   LIG    1        0.312   1.395   3.120  0.00  0.00    +0.160 A 
ATOM     25  C   LIG    1        0.594   0.570   2.038  0.00  0.00    -0.020 A 
ATOM     26  C   LIG    1       -0.319   0.433   1.017  0.00  0.00    +0.140 A 
ATOM     27  C   LIG    1       -1.530   1.130   1.068  0.00  0.00    -0.200 A 
ATOM     28  C   LIG    1       -1.812   1.954   2.161  0.00  0.00    +0.110 A 
ATOM     29  C   LIG    1       -0.893   2.085   3.177  0.00  0.00    -0.080 A 
BRANCH  24  31
ATOM     30  C   LIG    1        0.862   2.391   5.206  0.00  0.00    +0.240 C 
ATOM     31  O   LIG    1        1.216   1.527   4.124  0.00  0.00    -0.310 OA
ENDBRANCH  24  31
ENDBRANCH  22  27
ENDBRANCH   1  22
TORSDOF 7
