REMARK  Name = ZINCrD00000gYALR.0
REMARK                            x       y       z     vdW  Elec       q    Type
REMARK                         _______ _______ _______ _____ _____    ______ ____
ROOT
ATOM      1  N   LIG    1        2.424   5.589  -0.477  0.00  0.00    -0.700 N 
ATOM      2  H   LIG    1        1.548   5.959  -0.285  0.00  0.00    +0.410 HD
ATOM      3  C   LIG    1        2.538   4.324  -0.927  0.00  0.00    +0.570 C 
ATOM      4  O   LIG    1        3.635   3.861  -1.167  0.00  0.00    -0.510 OA
ENDROOT
BRANCH   3   5
ATOM      5  C   LIG    1        1.323   3.496  -1.128  0.00  0.00    +0.150 A 
ATOM      6  N   LIG    1        0.139   4.014  -0.861  0.00  0.00    -0.440 NA
ATOM      7  C   LIG    1       -0.974   3.305  -1.028  0.00  0.00    +0.170 A 
ATOM      8  C   LIG    1       -2.248   3.841  -0.749  0.00  0.00    -0.120 A 
ATOM      9  C   LIG    1       -3.345   3.057  -0.944  0.00  0.00    +0.300 A 
ATOM     10  N   LIG    1       -3.248   1.811  -1.385  0.00  0.00    -0.470 NA
ATOM     11  C   LIG    1       -2.098   1.246  -1.665  0.00  0.00    +0.360 A 
ATOM     12 BR   LIG    1       -2.430   5.614  -0.117  0.00  0.00    -0.010 Br
ATOM     13  C   LIG    1       -0.905   1.969  -1.506  0.00  0.00    -0.150 A 
ATOM     14  C   LIG    1        0.352   1.406  -1.786  0.00  0.00    +0.130 A 
ATOM     15  C   LIG    1        1.461   2.181  -1.596  0.00  0.00    +0.030 A 
ENDBRANCH   3   5
BRANCH   1  21
ATOM     16  C   LIG    1        6.543   6.573   1.699  0.00  0.00    +0.550 C 
ATOM     17  N   LIG    1        5.332   7.045   1.342  0.00  0.00    -0.610 N 
ATOM     18  C   LIG    1        5.108   8.488   1.181  0.00  0.00    +0.260 C 
ATOM     19  C   LIG    1        4.511   8.743  -0.207  0.00  0.00    +0.030 C 
ATOM     20  C   LIG    1        3.254   7.889  -0.381  0.00  0.00    -0.020 C 
ATOM     21  C   LIG    1        3.623   6.407  -0.279  0.00  0.00    +0.240 C 
ATOM     22  C   LIG    1        2.636   8.166  -1.753  0.00  0.00    +0.030 C 
ATOM     23  C   LIG    1        4.210   6.125   1.108  0.00  0.00    +0.270 C 
ATOM     24  O   LIG    1        6.698   5.383   1.895  0.00  0.00    -0.530 OA
BRANCH  16  27
ATOM     25  C   LIG    1        8.940   5.654   2.874  0.00  0.00    +0.100 C 
ATOM     26  C   LIG    1        8.835   7.057   2.333  0.00  0.00    -0.020 C 
ATOM     27  C   LIG    1        7.677   7.498   1.851  0.00  0.00    -0.120 C 
ATOM     28  C   LIG    1       10.042   7.959   2.338  0.00  0.00    +0.090 C 
ENDBRANCH  16  27
ENDBRANCH   1  21
TORSDOF 3
