REMARK  Name = ZINCrg00000c8FTB.0
REMARK                            x       y       z     vdW  Elec       q    Type
REMARK                         _______ _______ _______ _____ _____    ______ ____
ROOT
ATOM      1  N   LIG    1        2.494   4.164   0.001  0.00  0.00    -0.290 N 
ATOM      2  C   LIG    1        3.009   5.034  -0.899  0.00  0.00    +0.150 A 
ATOM      3  C   LIG    1        4.309   5.229  -0.533  0.00  0.00    +0.030 A 
ATOM      4  N   LIG    1        4.509   4.472   0.561  0.00  0.00    -0.230 NA
ATOM      5  N   LIG    1        3.413   3.862   0.849  0.00  0.00    -0.060 NA
ENDROOT
BRANCH   3   6
ATOM      6  C   LIG    1        5.304   6.101  -1.206  0.00  0.00    -0.010 A 
ATOM      7  C   LIG    1        4.943   6.822  -2.339  0.00  0.00    +0.040 A 
ATOM      8  C   LIG    1        5.865   7.638  -2.964  0.00  0.00    +0.000 A 
ATOM      9  C   LIG    1        7.154   7.729  -2.471  0.00  0.00    +0.040 A 
ATOM     10  C   LIG    1        7.526   7.012  -1.352  0.00  0.00    -0.150 A 
ATOM     11  C   LIG    1        8.847   6.913  -0.615  0.00  0.00    +0.060 C 
ATOM     12  C   LIG    1        8.661   5.648   0.254  0.00  0.00    +0.230 C 
ATOM     13  N   LIG    1        7.192   5.578   0.412  0.00  0.00    -0.620 N 
ATOM     14  H   LIG    1        6.898   6.026   1.267  0.00  0.00    +0.360 HD
ATOM     15  C   LIG    1        6.611   6.195  -0.702  0.00  0.00    +0.130 A 
ENDBRANCH   3   6
BRANCH   1  16
ATOM     16  C   LIG    1        1.120   3.657   0.011  0.00  0.00    +0.370 C 
BRANCH  16  18
ATOM     17  O   LIG    1        2.199   1.558  -0.011  0.00  0.00    -0.500 OA
ATOM     18  C   LIG    1        1.140   2.151   0.003  0.00  0.00    +0.500 C 
ATOM     19  N   LIG    1       -0.018   1.461   0.010  0.00  0.00    -0.730 N 
ATOM     20  H   LIG    1       -0.864   1.934   0.017  0.00  0.00    +0.400 HD
BRANCH  19  21
ATOM     21  C   LIG    1        0.002  -0.004   0.002  0.00  0.00    +0.260 C 
BRANCH  21  22
ATOM     22  C   LIG    1       -1.433  -0.534   0.013  0.00  0.00    +0.000 C 
BRANCH  22  23
ATOM     23  C   LIG    1       -1.413  -2.063   0.004  0.00  0.00    +0.310 C 
BRANCH  23  24
ATOM     24  N   LIG    1       -2.787  -2.571   0.015  0.00  0.00    -0.620 N 
ATOM     25  C   LIG    1       -3.550  -2.869   1.232  0.00  0.00    +0.250 C 
ATOM     26  C   LIG    1       -5.028  -2.939   0.783  0.00  0.00    +0.040 C 
ATOM     27  C   LIG    1       -4.885  -3.328  -0.707  0.00  0.00    +0.050 C 
ATOM     28  C   LIG    1       -3.509  -2.828  -1.089  0.00  0.00    +0.520 C 
ATOM     29  O   LIG    1       -3.115  -2.680  -2.227  0.00  0.00    -0.530 OA
ENDBRANCH  23  24
ENDBRANCH  22  23
ENDBRANCH  21  22
ENDBRANCH  19  21
ENDBRANCH  16  18
ENDBRANCH   1  16
TORSDOF 7
