REMARK  Name = ZINCpk00000eb5Ph.0
REMARK                            x       y       z     vdW  Elec       q    Type
REMARK                         _______ _______ _______ _____ _____    ______ ____
ROOT
ATOM      1  C   LIG    1        1.206   2.216  -4.769  0.00  0.00    +0.160 C 
ATOM      2  C   LIG    1        1.991   1.528  -3.649  0.00  0.00    +0.160 C 
ATOM      3  N   LIG    1        1.289   1.725  -2.373  0.00  0.00    -0.520 NA
ATOM      4  C   LIG    1       -0.075   1.181  -2.440  0.00  0.00    +0.150 C 
ATOM      5  C   LIG    1       -0.840   1.873  -3.572  0.00  0.00    +0.230 C 
ATOM      6  O   LIG    1       -0.126   1.697  -4.799  0.00  0.00    -0.360 OA
ENDROOT
BRANCH   1   7
ATOM      7  C   LIG    1        1.890   1.948  -6.111  0.00  0.00    +0.340 C 
BRANCH   7  11
ATOM      8  C   LIG    1        1.015   5.057  -9.943  0.00  0.00    +0.110 C 
ATOM      9  C   LIG    1        0.821   4.055  -8.835  0.00  0.00    -0.240 A 
ATOM     10  C   LIG    1        1.788   3.573  -8.020  0.00  0.00    +0.220 A 
ATOM     11  N   LIG    1        1.209   2.703  -7.166  0.00  0.00    -0.370 N 
ATOM     12  N   LIG    1       -0.157   2.644  -7.470  0.00  0.00    -0.260 NA
ATOM     13  C   LIG    1       -0.389   3.459  -8.467  0.00  0.00    +0.220 A 
ENDBRANCH   7  11
ENDBRANCH   1   7
BRANCH   3  14
ATOM     14  C   LIG    1        2.040   1.127  -1.261  0.00  0.00    +0.150 C 
BRANCH  14  15
ATOM     15  C   LIG    1        3.232   2.021  -0.912  0.00  0.00    +0.220 C 
BRANCH  15  16
ATOM     16  O   LIG    1        2.760   3.311  -0.516  0.00  0.00    -0.540 OA
ATOM     17  H   LIG    1        2.178   3.297   0.256  0.00  0.00    +0.370 HD
ENDBRANCH  15  16
BRANCH  15  18
ATOM     18  C   LIG    1        4.021   1.392   0.238  0.00  0.00    +0.140 C 
BRANCH  18  19
ATOM     19  O   LIG    1        5.198   2.164   0.486  0.00  0.00    -0.370 OA
BRANCH  19  20
ATOM     20  C   LIG    1        6.011   1.659   1.548  0.00  0.00    +0.220 C 
BRANCH  20  21
ATOM     21  C   LIG    1        7.217   2.546   1.721  0.00  0.00    -0.090 A 
ATOM     22  C   LIG    1        8.379   2.278   1.021  0.00  0.00    +0.020 A 
ATOM     23  C   LIG    1        9.484   3.094   1.178  0.00  0.00    +0.000 A 
ATOM     24  C   LIG    1        9.430   4.173   2.041  0.00  0.00    +0.010 A 
ATOM     25  C   LIG    1        8.270   4.437   2.745  0.00  0.00    +0.000 A 
ATOM     26  C   LIG    1        7.164   3.624   2.585  0.00  0.00    +0.020 A 
ENDBRANCH  20  21
ENDBRANCH  19  20
ENDBRANCH  18  19
ENDBRANCH  15  18
ENDBRANCH  14  15
ENDBRANCH   3  14
TORSDOF 9
