REMARK  Name = ZINCqH0000007KEM.0
REMARK                            x       y       z     vdW  Elec       q    Type
REMARK                         _______ _______ _______ _____ _____    ______ ____
ROOT
ATOM      1  C   LIG    1       -0.013   1.086   0.008  0.00  0.00    +0.540 C 
ATOM      2  N   LIG    1        1.366   1.591  -0.002  0.00  0.00    -0.730 N 
ATOM      3  H   LIG    1        2.106   1.008  -0.234  0.00  0.00    +0.420 HD
ATOM      4  C   LIG    1        1.587   2.923   0.327  0.00  0.00    +0.250 A 
ATOM      5  C   LIG    1        2.647   3.641  -0.198  0.00  0.00    -0.040 A 
ATOM      6  C   LIG    1        2.818   4.966   0.158  0.00  0.00    +0.080 A 
ATOM      7  C   LIG    1        1.938   5.579   1.035  0.00  0.00    -0.040 A 
ATOM      8  C   LIG    1        0.878   4.877   1.569  0.00  0.00    +0.110 A 
ATOM      9  C   LIG    1        0.695   3.541   1.221  0.00  0.00    -0.210 A 
ATOM     10  C   LIG    1       -0.415   2.741   1.770  0.00  0.00    +0.580 C 
ATOM     11  O   LIG    1       -1.053   3.146   2.722  0.00  0.00    -0.530 OA
ATOM     12  N   LIG    1       -0.715   1.554   1.203  0.00  0.00    -0.620 N 
ENDROOT
BRANCH   1  17
ATOM     13  C   LIG    1       -0.721   2.187  -3.544  0.00  0.00    +0.100 A 
ATOM     14  C   LIG    1       -2.069   2.494  -3.469  0.00  0.00    -0.060 A 
ATOM     15  C   LIG    1       -2.747   2.346  -2.273  0.00  0.00    +0.040 A 
ATOM     16  C   LIG    1       -2.081   1.891  -1.150  0.00  0.00    +0.010 A 
ATOM     17  C   LIG    1       -0.735   1.582  -1.218  0.00  0.00    -0.120 A 
ATOM     18  C   LIG    1       -0.049   1.734  -2.412  0.00  0.00    +0.110 A 
BRANCH  13  20
ATOM     19  C   LIG    1       -0.805   2.808  -5.838  0.00  0.00    +0.240 C 
ATOM     20  O   LIG    1       -0.053   2.333  -4.720  0.00  0.00    -0.310 OA
ENDBRANCH  13  20
BRANCH  18  21
ATOM     21  O   LIG    1        1.276   1.436  -2.479  0.00  0.00    -0.470 OA
ATOM     22  H   LIG    1        1.461   0.517  -2.719  0.00  0.00    +0.380 HD
ENDBRANCH  18  21
ENDBRANCH   1  17
BRANCH  12  23
ATOM     23  C   LIG    1       -1.764   0.719   1.794  0.00  0.00    +0.420 C 
BRANCH  23  24
ATOM     24  C   LIG    1       -1.154  -0.204   2.817  0.00  0.00    -0.050 A 
ATOM     25  C   LIG    1       -0.997   0.065   4.125  0.00  0.00    -0.030 A 
ATOM     26  C   LIG    1       -0.387  -1.071   4.707  0.00  0.00    -0.070 A 
ATOM     27  C   LIG    1       -0.208  -1.966   3.719  0.00  0.00    +0.170 A 
ATOM     28  O   LIG    1       -0.680  -1.438   2.577  0.00  0.00    -0.180 OA
ENDBRANCH  23  24
ENDBRANCH  12  23
TORSDOF 5
