REMARK  Name = ZINCrD000000AlES.2
REMARK                            x       y       z     vdW  Elec       q    Type
REMARK                         _______ _______ _______ _____ _____    ______ ____
ROOT
ATOM      1  N   LIG    1       -2.724   9.349  -0.316  0.00  0.00    -0.520 NA
ATOM      2  C   LIG    1       -2.031  10.134   0.715  0.00  0.00    +0.170 C 
ATOM      3  C   LIG    1       -0.579   9.665   0.825  0.00  0.00    +0.050 C 
ATOM      4  C   LIG    1       -0.553   8.177   1.187  0.00  0.00    +0.020 C 
ATOM      5  C   LIG    1       -1.323   7.388   0.124  0.00  0.00    +0.010 C 
ATOM      6  C   LIG    1       -2.754   7.923   0.034  0.00  0.00    +0.210 C 
ENDROOT
BRANCH   5   7
ATOM      7  C   LIG    1       -1.354   5.930   0.503  0.00  0.00    +0.520 C 
ATOM      8  N   LIG    1       -0.201   5.246   0.644  0.00  0.00    -0.670 N 
ATOM      9  H   LIG    1        0.649   5.707   0.569  0.00  0.00    +0.410 HD
ATOM     10  O   LIG    1       -2.416   5.373   0.683  0.00  0.00    -0.520 OA
BRANCH   8  11
ATOM     11  C   LIG    1       -0.231   3.870   0.897  0.00  0.00    +0.150 A 
ATOM     12  C   LIG    1       -1.246   3.086   0.365  0.00  0.00    +0.010 A 
ATOM     13  C   LIG    1       -1.273   1.729   0.618  0.00  0.00    +0.030 A 
ATOM     14  C   LIG    1       -0.289   1.150   1.398  0.00  0.00    -0.020 A 
ATOM     15  C   LIG    1        0.721   1.928   1.933  0.00  0.00    +0.030 A 
ATOM     16  C   LIG    1        0.755   3.286   1.681  0.00  0.00    -0.030 A 
ENDBRANCH   8  11
ENDBRANCH   5   7
BRANCH   1  17
ATOM     17  C   LIG    1       -4.080   9.864  -0.547  0.00  0.00    +0.210 C 
BRANCH  17  19
ATOM     18  O   LIG    1       -3.979   8.473  -2.451  0.00  0.00    -0.520 OA
ATOM     19  C   LIG    1       -4.664   9.208  -1.772  0.00  0.00    +0.510 C 
ATOM     20  N   LIG    1       -5.947   9.440  -2.113  0.00  0.00    -0.730 N 
ATOM     21  H   LIG    1       -6.495  10.028  -1.570  0.00  0.00    +0.400 HD
BRANCH  20  22
ATOM     22  C   LIG    1       -6.515   8.803  -3.304  0.00  0.00    +0.320 C 
BRANCH  22  23
ATOM     23  C   LIG    1       -7.954   9.223  -3.461  0.00  0.00    -0.110 A 
ATOM     24  C   LIG    1       -8.959   8.478  -2.873  0.00  0.00    +0.040 A 
ATOM     25  C   LIG    1      -10.278   8.866  -3.012  0.00  0.00    +0.030 A 
ATOM     26  C   LIG    1      -10.594   9.993  -3.748  0.00  0.00    -0.030 A 
ATOM     27  C   LIG    1       -9.588  10.736  -4.341  0.00  0.00    +0.030 A 
ATOM     28 CL   LIG    1      -12.251  10.478  -3.928  0.00  0.00    -0.070 Cl
ATOM     29  C   LIG    1       -8.268  10.350  -4.197  0.00  0.00    +0.050 A 
ENDBRANCH  22  23
ENDBRANCH  20  22
ENDBRANCH  17  19
ENDBRANCH   1  17
TORSDOF 6
