REMARK  Name = ZINCkj000005jyEt.1
REMARK                            x       y       z     vdW  Elec       q    Type
REMARK                         _______ _______ _______ _____ _____    ______ ____
ROOT
ATOM      1  C   LIG    1        2.326   5.598  -0.092  0.00  0.00    +0.510 C 
ATOM      2  N   LIG    1        2.351   4.253   0.003  0.00  0.00    -0.640 N 
ATOM      3  H   LIG    1        3.199   3.788   0.069  0.00  0.00    +0.420 HD
ATOM      4  O   LIG    1        1.266   6.187  -0.079  0.00  0.00    -0.510 OA
ENDROOT
BRANCH   2   5
ATOM      5  C   LIG    1        1.153   3.530   0.004  0.00  0.00    +0.120 A 
ATOM      6  C   LIG    1        1.050   2.359   0.745  0.00  0.00    +0.040 A 
ATOM      7  C   LIG    1       -0.131   1.640   0.750  0.00  0.00    +0.060 A 
ATOM      8  C   LIG    1       -1.218   2.083   0.024  0.00  0.00    +0.070 A 
ATOM      9  C   LIG    1       -1.123   3.256  -0.728  0.00  0.00    -0.000 A 
ATOM     10  C   LIG    1        0.069   3.981  -0.733  0.00  0.00    +0.070 A 
BRANCH   9  11
ATOM     11  C   LIG    1       -2.246   3.716  -1.488  0.00  0.00    +0.240 C 
ATOM     12  N   LIG    1       -3.138   4.080  -2.090  0.00  0.00    -0.390 NA
ENDBRANCH   9  11
ENDBRANCH   2   5
BRANCH   1  14
ATOM     13  C   LIG    1        4.358   5.923  -1.474  0.00  0.00    +0.120 C 
ATOM     14  C   LIG    1        3.615   6.369  -0.213  0.00  0.00    +0.180 C 
BRANCH  14  15
ATOM     15  N   LIG    1        3.320   7.805  -0.300  0.00  0.00    -0.370 N 
ATOM     16  C   LIG    1        2.491   8.062  -1.484  0.00  0.00    +0.260 C 
ATOM     17  C   LIG    1        2.248   9.566  -1.624  0.00  0.00    +0.020 C 
ATOM     18  C   LIG    1        1.530  10.081  -0.373  0.00  0.00    +0.180 C 
ATOM     19  C   LIG    1        2.369   9.741   0.862  0.00  0.00    +0.070 C 
ATOM     20  C   LIG    1        2.607   8.231   0.910  0.00  0.00    +0.270 C 
ATOM     21  H   LIG    1        4.184   8.320  -0.379  0.00  0.00    +0.430 HD
BRANCH  18  22
ATOM     22  O   LIG    1        1.366  11.498  -0.465  0.00  0.00    -0.550 OA
ATOM     23  H   LIG    1        0.843  11.785  -1.226  0.00  0.00    +0.390 HD
ENDBRANCH  18  22
ENDBRANCH  14  15
ENDBRANCH   1  14
TORSDOF 5
