REMARK  Name = ZINCrg00000IZel4.0
REMARK                            x       y       z     vdW  Elec       q    Type
REMARK                         _______ _______ _______ _____ _____    ______ ____
ROOT
ATOM      1  N   LIG    1       -2.349   4.681  -1.815  0.00  0.00    -1.000 NA
ATOM      2  C   LIG    1       -3.571   3.876  -1.970  0.00  0.00    +0.270 C 
ATOM      3  C   LIG    1       -4.783   4.807  -1.843  0.00  0.00    +0.220 C 
ATOM      4  O   LIG    1       -4.628   5.906  -2.744  0.00  0.00    -0.370 OA
ATOM      5  C   LIG    1       -3.493   6.730  -2.473  0.00  0.00    +0.250 C 
ATOM      6  C   LIG    1       -2.217   5.901  -2.628  0.00  0.00    +0.320 C 
ENDROOT
BRANCH   6   7
ATOM      7  C   LIG    1       -1.032   6.702  -2.153  0.00  0.00    +0.210 A 
ATOM      8  N   LIG    1       -0.942   7.339  -1.014  0.00  0.00    -0.440 NA
ATOM      9  C   LIG    1        0.245   7.939  -0.924  0.00  0.00    +0.430 A 
ATOM     10  N   LIG    1        0.930   7.691  -2.010  0.00  0.00    -0.300 NA
ATOM     11  N   LIG    1        0.122   6.881  -2.825  0.00  0.00    -0.310 N 
BRANCH  11  12
ATOM     12  C   LIG    1        0.450   6.365  -4.086  0.00  0.00    +0.140 A 
ATOM     13  C   LIG    1        1.730   5.887  -4.331  0.00  0.00    +0.050 A 
ATOM     14  C   LIG    1        2.048   5.373  -5.573  0.00  0.00    +0.030 A 
ATOM     15  C   LIG    1        1.097   5.347  -6.576  0.00  0.00    +0.020 A 
ATOM     16  C   LIG    1       -0.178   5.827  -6.337  0.00  0.00    +0.040 A 
ATOM     17  C   LIG    1       -0.504   6.337  -5.095  0.00  0.00    +0.000 A 
ENDBRANCH  11  12
ENDBRANCH   6   7
BRANCH   1  18
ATOM     18  S   LIG    1       -1.160   4.232  -0.754  0.00  0.00    +2.710 S 
ATOM     19  O   LIG    1       -0.831   5.393  -0.005  0.00  0.00    -0.920 OA
ATOM     20  O   LIG    1       -1.595   3.018  -0.155  0.00  0.00    -0.960 OA
BRANCH  18  23
ATOM     21  C   LIG    1       -0.702   1.816  -2.932  0.00  0.00    +0.160 C 
ATOM     22  C   LIG    1        0.375   2.813  -2.590  0.00  0.00    +0.210 A 
ATOM     23  C   LIG    1        0.267   3.833  -1.707  0.00  0.00    -0.820 A 
ATOM     24  C   LIG    1        1.486   4.519  -1.690  0.00  0.00    +0.330 A 
ATOM     25  N   LIG    1        2.299   3.928  -2.528  0.00  0.00    -0.280 NA
ATOM     26  N   LIG    1        1.622   2.846  -3.106  0.00  0.00    -0.350 N 
ATOM     27  C   LIG    1        2.168   1.918  -4.099  0.00  0.00    +0.360 C 
ENDBRANCH  18  23
ENDBRANCH   1  18
TORSDOF 4
