REMARK  Name = ZINCwl0000000pAq.0
REMARK                            x       y       z     vdW  Elec       q    Type
REMARK                         _______ _______ _______ _____ _____    ______ ____
ROOT
ATOM      1  C   LIG    1        0.092   0.907   2.150  0.00  0.00    +0.730 C 
ENDROOT
BRANCH   1   2
ATOM      2  N   LIG    1        1.131   0.128   2.030  0.00  0.00    -0.650 NA
ATOM      3  H   LIG    1        1.420  -0.162   1.151  0.00  0.00    +0.440 HD
BRANCH   2   4
ATOM      4  C   LIG    1        1.861  -0.308   3.223  0.00  0.00    +0.280 C 
BRANCH   4   5
ATOM      5  C   LIG    1        3.078  -1.133   2.802  0.00  0.00    +0.040 C 
BRANCH   5   6
ATOM      6  C   LIG    1        3.841  -1.589   4.048  0.00  0.00    +0.180 C 
BRANCH   6   7
ATOM      7  O   LIG    1        4.978  -2.360   3.655  0.00  0.00    -0.390 OA
BRANCH   7   9
ATOM      8  C   LIG    1        6.947  -3.645   4.214  0.00  0.00    +0.050 C 
ATOM      9  C   LIG    1        5.763  -2.837   4.750  0.00  0.00    +0.160 C 
ENDBRANCH   7   9
ENDBRANCH   6   7
ENDBRANCH   5   6
ENDBRANCH   4   5
ENDBRANCH   2   4
ENDBRANCH   1   2
BRANCH   1  10
ATOM     10  N   LIG    1       -0.501   1.439   1.030  0.00  0.00    -0.690 NA
ATOM     11  H   LIG    1       -1.274   2.018   1.119  0.00  0.00    +0.430 HD
BRANCH  10  12
ATOM     12  C   LIG    1        0.035   1.131  -0.299  0.00  0.00    +0.350 C 
BRANCH  12  13
ATOM     13  C   LIG    1       -0.789   1.833  -1.347  0.00  0.00    -0.180 A 
ATOM     14  C   LIG    1       -1.886   1.199  -1.902  0.00  0.00    +0.080 A 
ATOM     15  C   LIG    1       -2.646   1.843  -2.860  0.00  0.00    -0.070 A 
ATOM     16  C   LIG    1       -2.302   3.122  -3.273  0.00  0.00    +0.160 A 
ATOM     17  C   LIG    1       -1.198   3.754  -2.719  0.00  0.00    -0.010 A 
ATOM     18  C   LIG    1       -0.445   3.108  -1.757  0.00  0.00    +0.080 A 
BRANCH  16  19
ATOM     19  O   LIG    1       -3.044   3.754  -4.219  0.00  0.00    -0.310 OA
ATOM     20  C   LIG    1       -4.167   3.043  -4.745  0.00  0.00    +0.250 C 
ENDBRANCH  16  19
ENDBRANCH  12  13
ENDBRANCH  10  12
ENDBRANCH   1  10
BRANCH   1  21
ATOM     21  N   LIG    1       -0.411   1.195   3.397  0.00  0.00    -0.690 NA
ATOM     22  H   LIG    1       -1.241   1.689   3.482  0.00  0.00    +0.440 HD
BRANCH  21  23
ATOM     23  C   LIG    1        0.308   0.757   4.596  0.00  0.00    +0.330 C 
BRANCH  23  24
ATOM     24  C   LIG    1       -0.411   1.280   5.841  0.00  0.00    -0.380 C 
BRANCH  24  25
ATOM     25  S   LIG    1        0.479   0.737   7.325  0.00  0.00    +2.610 S 
ATOM     26  O   LIG    1        1.740   1.387   7.417  0.00  0.00    -0.930 OA
ATOM     27  O   LIG    1        0.367  -0.670   7.487  0.00  0.00    -0.930 OA
BRANCH  25  28
ATOM     28  N   LIG    1       -0.395   1.364   8.584  0.00  0.00    -1.000 NA
ATOM     29  C   LIG    1       -0.092   2.697   9.127  0.00  0.00    +0.280 C 
ATOM     30  C   LIG    1       -1.401   3.500   9.188  0.00  0.00    +0.140 C 
ATOM     31  O   LIG    1       -2.386   2.737   9.891  0.00  0.00    -0.370 OA
ATOM     32  C   LIG    1       -2.733   1.504   9.257  0.00  0.00    +0.140 C 
ATOM     33  C   LIG    1       -3.833   0.808  10.061  0.00  0.00    +0.070 C 
ATOM     34  C   LIG    1       -1.157   4.820   9.922  0.00  0.00    +0.070 C 
ATOM     35  C   LIG    1       -1.495   0.602   9.196  0.00  0.00    +0.280 C 
ENDBRANCH  25  28
ENDBRANCH  24  25
ENDBRANCH  23  24
ENDBRANCH  21  23
ENDBRANCH   1  21
TORSDOF 15
