REMARK  Name = ZINCpk00001AZiJq.0
REMARK                            x       y       z     vdW  Elec       q    Type
REMARK                         _______ _______ _______ _____ _____    ______ ____
ROOT
ATOM      1  N   LIG    1       -2.187   1.900  -0.709  0.00  0.00    -0.510 NA
ATOM      2  C   LIG    1       -0.820   1.627  -1.191  0.00  0.00    +0.200 C 
ATOM      3  C   LIG    1       -0.013   1.086   0.008  0.00  0.00    +0.030 C 
ATOM      4  C   LIG    1       -0.801   1.617   1.234  0.00  0.00    +0.090 C 
ATOM      5  F   LIG    1       -0.448   2.939   1.522  0.00  0.00    -0.170 F 
ATOM      6  C   LIG    1       -2.265   1.531   0.720  0.00  0.00    +0.210 C 
ENDROOT
BRANCH   4   7
ATOM      7  C   LIG    1       -0.593   0.731   2.435  0.00  0.00    +0.510 C 
ATOM      8  N   LIG    1        0.596   0.724   3.069  0.00  0.00    -0.600 N 
ATOM      9  C   LIG    1        1.666   1.582   2.566  0.00  0.00    +0.280 C 
ATOM     10  C   LIG    1        2.834   0.729   2.079  0.00  0.00    +0.280 C 
ATOM     11  N   LIG    1        3.651   0.335   3.235  0.00  0.00    -0.730 N 
ATOM     12  H   LIG    1        4.525   0.736   3.365  0.00  0.00    +0.400 HD
ATOM     13  C   LIG    1        3.201  -0.570   4.109  0.00  0.00    +0.520 C 
ATOM     14  C   LIG    1        1.839  -1.200   3.928  0.00  0.00    +0.050 C 
ATOM     15  O   LIG    1        3.891  -0.888   5.056  0.00  0.00    -0.540 OA
ATOM     16  C   LIG    1        0.768  -0.146   4.231  0.00  0.00    +0.300 C 
ATOM     17  O   LIG    1       -1.495   0.024   2.831  0.00  0.00    -0.510 OA
ENDBRANCH   4   7
BRANCH   1  18
ATOM     18  C   LIG    1       -3.180   1.161  -1.499  0.00  0.00    +0.290 C 
BRANCH  18  22
ATOM     19  C   LIG    1       -1.249  -3.386  -2.406  0.00  0.00    +0.120 C 
ATOM     20  C   LIG    1       -2.154  -2.467  -1.626  0.00  0.00    -0.100 A 
ATOM     21  C   LIG    1       -2.228  -1.120  -1.944  0.00  0.00    +0.080 A 
ATOM     22  C   LIG    1       -3.070  -0.310  -1.196  0.00  0.00    -0.160 A 
ATOM     23  C   LIG    1       -3.810  -0.871  -0.173  0.00  0.00    +0.280 A 
ATOM     24  N   LIG    1       -3.720  -2.159   0.098  0.00  0.00    -0.450 NA
ATOM     25  C   LIG    1       -2.926  -2.958  -0.588  0.00  0.00    +0.120 A 
ATOM     26 BR   LIG    1       -2.842  -4.795  -0.149  0.00  0.00    -0.000 Br
ENDBRANCH  18  22
ENDBRANCH   1  18
TORSDOF 3
