REMARK  Name = ZINCpe00000bmTr7.0
REMARK                            x       y       z     vdW  Elec       q    Type
REMARK                         _______ _______ _______ _____ _____    ______ ____
ROOT
ATOM      1  C   LIG    1        0.422  -5.639   3.580  0.00  0.00    -0.120 A 
ATOM      2  C   LIG    1        0.743  -6.376   2.454  0.00  0.00    +0.080 A 
ATOM      3  C   LIG    1        1.052  -5.735   1.266  0.00  0.00    +0.040 A 
ATOM      4  C   LIG    1        1.040  -4.361   1.204  0.00  0.00    -0.070 A 
ATOM      5  C   LIG    1        1.314  -3.374   0.097  0.00  0.00    +0.340 C 
ATOM      6  N   LIG    1        1.134  -2.040   0.682  0.00  0.00    -0.600 N 
ATOM      7  C   LIG    1        0.786  -2.178   1.973  0.00  0.00    +0.570 C 
ATOM      8  O   LIG    1        0.561  -1.257   2.734  0.00  0.00    -0.510 OA
ATOM      9  C   LIG    1        0.718  -3.606   2.335  0.00  0.00    -0.160 A 
ATOM     10  C   LIG    1        0.407  -4.260   3.528  0.00  0.00    +0.120 A 
ENDROOT
BRANCH   6  11
ATOM     11  C   LIG    1        1.299  -0.768  -0.026  0.00  0.00    +0.290 C 
ATOM     12  C   LIG    1        2.388   0.063   0.661  0.00  0.00    +0.060 C 
ATOM     13  C   LIG    1        2.465   1.430  -0.026  0.00  0.00    +0.100 C 
ATOM     14  C   LIG    1        1.104   2.075   0.003  0.00  0.00    +0.520 C 
ATOM     15  N   LIG    1       -0.016   1.337   0.009  0.00  0.00    -0.670 N 
ATOM     16  H   LIG    1       -0.873   1.792   0.016  0.00  0.00    +0.420 HD
ATOM     17  O   LIG    1        1.020   3.284   0.020  0.00  0.00    -0.500 OA
ATOM     18  C   LIG    1        0.002  -0.004   0.002  0.00  0.00    +0.510 C 
ATOM     19  O   LIG    1       -1.046  -0.613   0.019  0.00  0.00    -0.480 OA
ENDBRANCH   6  11
BRANCH   1  20
ATOM     20  C   LIG    1        0.088  -6.345   4.868  0.00  0.00    +0.320 C 
BRANCH  20  22
ATOM     21  C   LIG    1        1.256  -7.163   6.844  0.00  0.00    +0.510 C 
ATOM     22  N   LIG    1        1.313  -6.547   5.647  0.00  0.00    -0.730 N 
ATOM     23  H   LIG    1        2.164  -6.237   5.301  0.00  0.00    +0.400 HD
ATOM     24  O   LIG    1        0.192  -7.550   7.277  0.00  0.00    -0.540 OA
BRANCH  21  25
ATOM     25  C   LIG    1        2.516  -7.370   7.645  0.00  0.00    +0.040 C 
BRANCH  25  27
ATOM     26  C   LIG    1        3.455  -8.297   9.766  0.00  0.00    +0.010 C 
ATOM     27  C   LIG    1        2.176  -8.087   8.953  0.00  0.00    +0.030 C 
ENDBRANCH  25  27
ENDBRANCH  21  25
ENDBRANCH  20  22
ENDBRANCH   1  20
TORSDOF 5
