REMARK  Name = ZINCpk00000KfLrr.1
REMARK                            x       y       z     vdW  Elec       q    Type
REMARK                         _______ _______ _______ _____ _____    ______ ____
ROOT
ATOM      1  C   LIG    1        6.861  -0.378   1.123  0.00  0.00    +0.090 A 
ATOM      2  C   LIG    1        5.602  -0.946   1.123  0.00  0.00    +0.030 A 
ATOM      3  C   LIG    1        4.470  -0.129   1.199  0.00  0.00    -0.140 A 
ATOM      4  C   LIG    1        4.617   1.258   1.269  0.00  0.00    +0.060 A 
ATOM      5  C   LIG    1        5.877   1.818   1.273  0.00  0.00    -0.050 A 
ATOM      6  C   LIG    1        7.000   1.007   1.198  0.00  0.00    +0.130 A 
ENDROOT
BRANCH   3   7
ATOM      7  C   LIG    1        3.122  -0.731   1.199  0.00  0.00    +0.560 C 
ATOM      8  N   LIG    1        2.073  -0.034   0.719  0.00  0.00    -0.610 N 
ATOM      9  C   LIG    1        2.268   1.271   0.069  0.00  0.00    +0.280 C 
ATOM     10  C   LIG    1        1.550   1.252  -1.285  0.00  0.00    +0.170 C 
ATOM     11  N   LIG    1        0.148   0.859  -1.087  0.00  0.00    -0.690 NA
ATOM     12  H   LIG    1       -0.378   0.953  -1.943  0.00  0.00    +0.350 HD
ATOM     13  C   LIG    1        0.048  -0.505  -0.553  0.00  0.00    +0.180 C 
ATOM     14  C   LIG    1        0.704  -0.558   0.831  0.00  0.00    +0.230 C 
ATOM     15  C   LIG    1        0.747  -2.006   1.324  0.00  0.00    +0.060 C 
ATOM     16  O   LIG    1        2.958  -1.855   1.633  0.00  0.00    -0.530 OA
ENDBRANCH   3   7
BRANCH   1  18
ATOM     17  C   LIG    1        7.746  -2.580   0.976  0.00  0.00    +0.240 C 
ATOM     18  O   LIG    1        7.964  -1.170   1.050  0.00  0.00    -0.300 OA
ENDBRANCH   1  18
BRANCH   6  19
ATOM     19  O   LIG    1        8.239   1.564   1.198  0.00  0.00    -0.300 OA
BRANCH  19  20
ATOM     20  C   LIG    1        8.310   2.989   1.277  0.00  0.00    +0.280 C 
BRANCH  20  21
ATOM     21  C   LIG    1        9.753   3.422   1.265  0.00  0.00    -0.250 A 
ATOM     22  C   LIG    1       10.487   3.713   0.166  0.00  0.00    +0.270 A 
ATOM     23  N   LIG    1       11.726   4.057   0.578  0.00  0.00    -0.370 N 
ATOM     24  N   LIG    1       11.753   3.975   1.976  0.00  0.00    -0.290 NA
ATOM     25  C   LIG    1       12.843   4.448  -0.285  0.00  0.00    +0.360 C 
ATOM     26  C   LIG    1       10.569   3.600   2.387  0.00  0.00    +0.260 A 
ENDBRANCH  20  21
ENDBRANCH  19  20
ENDBRANCH   6  19
TORSDOF 5
