REMARK  Name = ZINCrD000000fSjQ.0
REMARK                            x       y       z     vdW  Elec       q    Type
REMARK                         _______ _______ _______ _____ _____    ______ ____
ROOT
ATOM      1  C   LIG    1       -1.098   3.531  -0.061  0.00  0.00    +0.530 C 
ATOM      2  N   LIG    1       -2.042   4.476  -0.242  0.00  0.00    -0.610 N 
ATOM      3  C   LIG    1       -3.462   4.109  -0.329  0.00  0.00    +0.270 C 
ATOM      4  C   LIG    1       -4.048   4.692  -1.614  0.00  0.00    +0.030 C 
ATOM      5  C   LIG    1       -3.784   6.199  -1.656  0.00  0.00    +0.000 C 
ATOM      6  C   LIG    1       -2.275   6.454  -1.652  0.00  0.00    +0.050 C 
ATOM      7  C   LIG    1       -1.669   5.892  -0.362  0.00  0.00    +0.280 C 
ATOM      8  O   LIG    1        0.065   3.851   0.062  0.00  0.00    -0.520 OA
ENDROOT
BRANCH   5   9
ATOM      9  C   LIG    1       -4.388   6.780  -2.908  0.00  0.00    +0.510 C 
ATOM     10  N   LIG    1       -5.713   6.674  -3.128  0.00  0.00    -0.660 N 
ATOM     11  H   LIG    1       -6.289   6.289  -2.449  0.00  0.00    +0.420 HD
ATOM     12  O   LIG    1       -3.682   7.343  -3.717  0.00  0.00    -0.460 OA
BRANCH  10  13
ATOM     13  C   LIG    1       -6.258   7.119  -4.332  0.00  0.00    +0.380 A 
ATOM     14  C   LIG    1       -7.636   7.111  -4.509  0.00  0.00    -0.050 A 
ATOM     15  C   LIG    1       -8.164   7.556  -5.709  0.00  0.00    +0.130 A 
ATOM     16  C   LIG    1       -7.290   7.995  -6.695  0.00  0.00    -0.180 A 
ATOM     17  C   LIG    1       -5.930   7.975  -6.450  0.00  0.00    +0.340 A 
ATOM     18 BR   LIG    1       -7.953   8.613  -8.354  0.00  0.00    -0.030 Br
ATOM     19  N   LIG    1       -5.457   7.550  -5.294  0.00  0.00    -0.470 NA
ENDBRANCH  10  13
ENDBRANCH   5   9
BRANCH   1  21
ATOM     20  C   LIG    1       -2.385   1.830   1.203  0.00  0.00    +0.060 C 
ATOM     21  C   LIG    1       -1.489   2.076  -0.012  0.00  0.00    -0.040 C 
ATOM     22  C   LIG    1       -0.230   1.214   0.100  0.00  0.00    +0.080 C 
BRANCH  21  23
ATOM     23  C   LIG    1       -2.236   1.714  -1.270  0.00  0.00    -0.130 A 
ATOM     24  C   LIG    1       -2.861   0.482  -1.384  0.00  0.00    +0.080 A 
ATOM     25  C   LIG    1       -3.542   0.195  -2.558  0.00  0.00    -0.030 A 
ATOM     26  C   LIG    1       -3.574   1.138  -3.567  0.00  0.00    +0.260 A 
ATOM     27  N   LIG    1       -2.967   2.300  -3.423  0.00  0.00    -0.480 NA
ATOM     28  C   LIG    1       -2.311   2.608  -2.321  0.00  0.00    +0.260 A 
ENDBRANCH  21  23
ENDBRANCH   1  21
TORSDOF 4
