REMARK  Name = ZINCkj000005llPZ.0
REMARK                            x       y       z     vdW  Elec       q    Type
REMARK                         _______ _______ _______ _____ _____    ______ ____
ROOT
ATOM      1  N   LIG    1       -1.234   1.816   3.958  0.00  0.00    -0.750 N 
ATOM      2  H   LIG    1       -1.394   1.929   4.909  0.00  0.00    +0.400 HD
ATOM      3  C   LIG    1       -1.445   0.619   3.377  0.00  0.00    +0.700 C 
ATOM      4  N   LIG    1       -1.778  -0.447   4.131  0.00  0.00    -0.620 N 
ATOM      5  C   LIG    1       -1.897  -1.766   3.478  0.00  0.00    +0.280 C 
ATOM      6  C   LIG    1       -3.121  -2.554   3.980  0.00  0.00    +0.020 C 
ATOM      7  C   LIG    1       -4.303  -1.629   4.139  0.00  0.00    +0.030 C 
ATOM      8  C   LIG    1       -4.336  -1.093   5.568  0.00  0.00    -0.010 C 
ATOM      9  C   LIG    1       -3.495   0.092   5.790  0.00  0.00    +0.010 C 
ATOM     10  C   LIG    1       -1.999  -0.253   5.546  0.00  0.00    +0.270 C 
ATOM     11  O   LIG    1       -1.335   0.501   2.171  0.00  0.00    -0.580 OA
ENDROOT
BRANCH   1  15
ATOM     12  C   LIG    1        0.125   5.034   4.139  0.00  0.00    -0.020 C 
ATOM     13  C   LIG    1        1.159   4.450   3.145  0.00  0.00    +0.020 C 
ATOM     14  C   LIG    1        0.779   2.950   3.098  0.00  0.00    +0.020 C 
ATOM     15  C   LIG    1       -0.763   2.948   3.156  0.00  0.00    +0.260 C 
ATOM     16  C   LIG    1       -1.178   4.273   3.819  0.00  0.00    +0.060 C 
BRANCH  12  17
ATOM     17  C   LIG    1       -0.060   6.534   3.905  0.00  0.00    +0.280 C 
BRANCH  17  18
ATOM     18  N   LIG    1        1.151   7.249   4.329  0.00  0.00    -0.640 N 
ATOM     19  H   LIG    1        1.941   6.920   3.794  0.00  0.00    +0.430 HD
ATOM     20  H   LIG    1        1.316   7.080   5.310  0.00  0.00    +0.440 HD
ATOM     21  H   LIG    1        1.030   8.239   4.174  0.00  0.00    +0.440 HD
ENDBRANCH  17  18
ENDBRANCH  12  17
ENDBRANCH   1  15
BRANCH   8  22
ATOM     22  C   LIG    1       -5.782  -0.736   5.918  0.00  0.00    +0.020 C 
BRANCH  22  23
ATOM     23  C   LIG    1       -5.861  -0.314   7.387  0.00  0.00    +0.160 C 
BRANCH  23  24
ATOM     24  O   LIG    1       -7.211   0.020   7.715  0.00  0.00    -0.580 OA
ATOM     25  H   LIG    1       -7.336   0.298   8.632  0.00  0.00    +0.380 HD
ENDBRANCH  23  24
ENDBRANCH  22  23
ENDBRANCH   8  22
TORSDOF 6
