REMARK  Name = ZINCvU000000071F.0
REMARK                            x       y       z     vdW  Elec       q    Type
REMARK                         _______ _______ _______ _____ _____    ______ ____
ROOT
ATOM      1  N   LIG    1        4.838   1.479  -0.037  0.00  0.00    -0.630 N 
ATOM      2  H   LIG    1        4.845   0.509  -0.042  0.00  0.00    +0.410 HD
ATOM      3  C   LIG    1        3.667   2.145  -0.022  0.00  0.00    +0.560 C 
ATOM      4  O   LIG    1        3.659   3.361  -0.016  0.00  0.00    -0.470 OA
ENDROOT
BRANCH   1   6
ATOM      5  C   LIG    1        7.273   1.601  -0.060  0.00  0.00    -0.200 A 
ATOM      6  C   LIG    1        6.033   2.179  -0.045  0.00  0.00    +0.050 A 
ATOM      7  S   LIG    1        6.160   3.877  -0.045  0.00  0.00    +0.310 S 
ATOM      8  C   LIG    1        7.915   3.829  -0.056  0.00  0.00    -0.250 A 
ATOM      9  C   LIG    1        8.816   5.050  -0.059  0.00  0.00    +0.120 C 
ATOM     10  C   LIG    1       10.230   4.620   0.340  0.00  0.00    +0.020 C 
ATOM     11  C   LIG    1       10.645   3.416  -0.511  0.00  0.00    +0.020 C 
ATOM     12  C   LIG    1        9.831   2.193  -0.082  0.00  0.00    +0.090 C 
ATOM     13  C   LIG    1        8.357   2.567  -0.066  0.00  0.00    -0.040 A 
BRANCH   5  14
ATOM     14  C   LIG    1        7.486   0.152  -0.068  0.00  0.00    +0.540 C 
ATOM     15  O   LIG    1        7.564  -0.445  -1.125  0.00  0.00    -0.490 OA
BRANCH  14  16
ATOM     16  O   LIG    1        7.596  -0.520   1.096  0.00  0.00    -0.350 OA
BRANCH  16  18
ATOM     17  C   LIG    1        7.904  -2.538   2.423  0.00  0.00    +0.070 C 
ATOM     18  C   LIG    1        7.806  -1.954   1.012  0.00  0.00    +0.200 C 
ENDBRANCH  16  18
ENDBRANCH  14  16
ENDBRANCH   5  14
ENDBRANCH   1   6
BRANCH   3  19
ATOM     19  C   LIG    1        2.394   1.399  -0.013  0.00  0.00    -0.180 A 
ATOM     20  C   LIG    1        2.399   0.002  -0.021  0.00  0.00    +0.090 A 
ATOM     21  C   LIG    1        1.206  -0.689  -0.013  0.00  0.00    -0.020 A 
ATOM     22  C   LIG    1        0.002  -0.004   0.002  0.00  0.00    +0.100 A 
ATOM     23  C   LIG    1       -0.017   1.377   0.010  0.00  0.00    -0.080 A 
ATOM     24  C   LIG    1        1.173   2.088   0.002  0.00  0.00    +0.200 A 
BRANCH  24  25
ATOM     25  O   LIG    1        1.157   3.445   0.009  0.00  0.00    -0.270 OA
BRANCH  25  26
ATOM     26  C   LIG    1       -0.124   4.077   0.024  0.00  0.00    +0.240 C 
BRANCH  26  27
ATOM     27  C   LIG    1        0.054   5.574   0.030  0.00  0.00    -0.100 A 
ATOM     28  C   LIG    1        0.142   6.255   1.230  0.00  0.00    +0.030 A 
ATOM     29  C   LIG    1        0.311   7.627   1.236  0.00  0.00    +0.010 A 
ATOM     30  C   LIG    1        0.382   8.319   0.041  0.00  0.00    +0.010 A 
ATOM     31  C   LIG    1        0.289   7.639  -1.159  0.00  0.00    +0.010 A 
ATOM     32  C   LIG    1        0.125   6.266  -1.164  0.00  0.00    +0.030 A 
ENDBRANCH  26  27
ENDBRANCH  25  26
ENDBRANCH  24  25
ENDBRANCH   3  19
TORSDOF 8
