REMARK  Name = ZINCtV000002KHEC.0
REMARK                            x       y       z     vdW  Elec       q    Type
REMARK                         _______ _______ _______ _____ _____    ______ ____
ROOT
ATOM      1  C   LIG    1       -0.728   2.296   1.252  0.00  0.00    +0.390 A 
ATOM      2  N   LIG    1       -2.033   2.496   1.206  0.00  0.00    -0.570 NA
ATOM      3  C   LIG    1       -2.699   2.917   2.271  0.00  0.00    +0.490 A 
ATOM      4  C   LIG    1       -1.983   3.164   3.470  0.00  0.00    -0.210 A 
ATOM      5  C   LIG    1       -0.609   2.943   3.464  0.00  0.00    +0.120 A 
ATOM      6  S   LIG    1        0.053   3.315   5.045  0.00  0.00    +0.200 S 
ATOM      7  C   LIG    1       -1.528   3.761   5.687  0.00  0.00    -0.200 A 
ATOM      8  C   LIG    1       -2.122   4.255   7.003  0.00  0.00    +0.130 C 
ATOM      9  C   LIG    1       -3.499   4.834   6.622  0.00  0.00    +0.050 C 
ATOM     10  C   LIG    1       -3.832   4.027   5.351  0.00  0.00    +0.100 C 
ATOM     11  C   LIG    1       -2.475   3.635   4.768  0.00  0.00    -0.090 A 
ATOM     12  N   LIG    1       -0.023   2.511   2.339  0.00  0.00    -0.510 NA
ENDROOT
BRANCH   3  13
ATOM     13  N   LIG    1       -4.067   3.118   2.213  0.00  0.00    -0.690 N 
ATOM     14  H   LIG    1       -4.545   3.430   2.997  0.00  0.00    +0.410 HD
BRANCH  13  15
ATOM     15  C   LIG    1       -4.793   2.857   0.968  0.00  0.00    +0.350 C 
BRANCH  15  16
ATOM     16  C   LIG    1       -6.257   3.152   1.170  0.00  0.00    -0.070 A 
ATOM     17  C   LIG    1       -7.128   2.162   1.599  0.00  0.00    -0.010 A 
ATOM     18  C   LIG    1       -8.463   2.470   1.777  0.00  0.00    +0.260 A 
ATOM     19  N   LIG    1       -8.913   3.685   1.534  0.00  0.00    -0.480 NA
ATOM     20  C   LIG    1       -8.115   4.650   1.120  0.00  0.00    +0.260 A 
ATOM     21  C   LIG    1       -6.767   4.418   0.924  0.00  0.00    -0.010 A 
ENDBRANCH  15  16
ENDBRANCH  13  15
ENDBRANCH   3  13
BRANCH   1  22
ATOM     22  C   LIG    1       -0.022   1.810   0.012  0.00  0.00    +0.190 C 
BRANCH  22  23
ATOM     23  S   LIG    1        0.002  -0.004   0.002  0.00  0.00    -0.060 S 
BRANCH  23  28
ATOM     24 CL   LIG    1        3.020  -1.343  -5.323  0.00  0.00    -0.070 Cl
ATOM     25  C   LIG    1        2.185  -0.972  -3.847  0.00  0.00    -0.040 A 
ATOM     26  C   LIG    1        1.736  -1.996  -3.031  0.00  0.00    +0.050 A 
ATOM     27  C   LIG    1        1.070  -1.704  -1.857  0.00  0.00    +0.050 A 
ATOM     28  C   LIG    1        0.852  -0.381  -1.495  0.00  0.00    -0.080 A 
ATOM     29  C   LIG    1        1.299   0.645  -2.318  0.00  0.00    +0.010 A 
ATOM     30  C   LIG    1        1.968   0.347  -3.489  0.00  0.00    +0.050 A 
ENDBRANCH  23  28
ENDBRANCH  22  23
ENDBRANCH   1  22
TORSDOF 6
