REMARK  Name = ZINCkj00000kJSZC.0
REMARK                            x       y       z     vdW  Elec       q    Type
REMARK                         _______ _______ _______ _____ _____    ______ ____
ROOT
ATOM      1  N   LIG    1       -4.054   3.967   2.713  0.00  0.00    -0.380 N 
ATOM      2  C   LIG    1       -4.034   4.401   1.311  0.00  0.00    +0.250 C 
ATOM      3  C   LIG    1       -4.072   5.930   1.245  0.00  0.00    +0.060 C 
ATOM      4  C   LIG    1       -5.352   6.432   1.919  0.00  0.00    +0.030 C 
ATOM      5  C   LIG    1       -5.399   5.911   3.358  0.00  0.00    +0.140 C 
ATOM      6  C   LIG    1       -5.311   4.384   3.345  0.00  0.00    +0.290 C 
ATOM      7  H   LIG    1       -3.278   4.385   3.204  0.00  0.00    +0.430 HD
ENDROOT
BRANCH   5   8
ATOM      8  O   LIG    1       -4.297   6.446   4.095  0.00  0.00    -0.540 OA
ATOM      9  H   LIG    1       -4.287   7.412   4.141  0.00  0.00    +0.400 HD
ENDBRANCH   5   8
BRANCH   1  10
ATOM     10  C   LIG    1       -3.939   2.504   2.772  0.00  0.00    +0.390 C 
BRANCH  10  15
ATOM     11  C   LIG    1       -0.301   1.062  -0.410  0.00  0.00    +0.180 C 
ATOM     12  C   LIG    1       -1.010   1.457   0.860  0.00  0.00    +0.040 A 
ATOM     13  C   LIG    1       -0.451   1.534   2.081  0.00  0.00    -0.060 A 
ATOM     14  C   LIG    1       -1.471   1.939   2.973  0.00  0.00    +0.030 A 
ATOM     15  C   LIG    1       -2.591   2.084   2.244  0.00  0.00    -0.110 A 
ATOM     16  O   LIG    1       -2.305   1.796   0.963  0.00  0.00    -0.170 OA
ENDBRANCH  10  15
ENDBRANCH   1  10
BRANCH   5  17
ATOM     17  C   LIG    1       -6.711   6.343   4.016  0.00  0.00    +0.060 C 
BRANCH  17  18
ATOM     18  C   LIG    1       -6.726   5.889   5.452  0.00  0.00    +0.510 C 
ATOM     19  N   LIG    1       -7.838   6.047   6.197  0.00  0.00    -0.620 N 
ATOM     20  C   LIG    1       -9.032   6.661   5.610  0.00  0.00    +0.280 C 
ATOM     21  C   LIG    1       -7.853   5.605   7.594  0.00  0.00    +0.300 C 
ATOM     22  O   LIG    1       -5.738   5.381   5.938  0.00  0.00    -0.530 OA
ENDBRANCH  17  18
ENDBRANCH   5  17
TORSDOF 5
