REMARK  Name = ZINCkj00000kJSZC.1
REMARK                            x       y       z     vdW  Elec       q    Type
REMARK                         _______ _______ _______ _____ _____    ______ ____
ROOT
ATOM      1  N   LIG    1       -2.771   1.118   1.659  0.00  0.00    -0.380 N 
ATOM      2  C   LIG    1       -2.151   0.017   2.406  0.00  0.00    +0.250 C 
ATOM      3  C   LIG    1       -2.765  -0.065   3.806  0.00  0.00    +0.070 C 
ATOM      4  C   LIG    1       -4.271  -0.314   3.683  0.00  0.00    +0.030 C 
ATOM      5  C   LIG    1       -4.895   0.801   2.839  0.00  0.00    +0.150 C 
ATOM      6  C   LIG    1       -4.203   0.851   1.476  0.00  0.00    +0.280 C 
ATOM      7  H   LIG    1       -2.655   1.978   2.173  0.00  0.00    +0.420 HD
ENDROOT
BRANCH   5   8
ATOM      8  O   LIG    1       -6.288   0.539   2.658  0.00  0.00    -0.520 OA
ATOM      9  H   LIG    1       -6.790   0.491   3.483  0.00  0.00    +0.400 HD
ENDBRANCH   5   8
BRANCH   1  10
ATOM     10  C   LIG    1       -2.125   1.241   0.346  0.00  0.00    +0.400 C 
BRANCH  10  15
ATOM     11  C   LIG    1        2.000   4.098   0.859  0.00  0.00    +0.190 C 
ATOM     12  C   LIG    1        1.109   2.887   0.753  0.00  0.00    +0.050 A 
ATOM     13  C   LIG    1        1.513   1.605   0.810  0.00  0.00    -0.060 A 
ATOM     14  C   LIG    1        0.356   0.805   0.670  0.00  0.00    +0.030 A 
ATOM     15  C   LIG    1       -0.685   1.645   0.530  0.00  0.00    -0.110 A 
ATOM     16  O   LIG    1       -0.224   2.905   0.587  0.00  0.00    -0.170 OA
ENDBRANCH  10  15
ENDBRANCH   1  10
BRANCH   5  17
ATOM     17  C   LIG    1       -4.717   2.143   3.553  0.00  0.00    +0.020 C 
BRANCH  17  18
ATOM     18  C   LIG    1       -5.389   3.230   2.754  0.00  0.00    +0.500 C 
ATOM     19  N   LIG    1       -5.256   4.519   3.125  0.00  0.00    -0.620 N 
ATOM     20  C   LIG    1       -4.457   4.863   4.303  0.00  0.00    +0.290 C 
ATOM     21  C   LIG    1       -5.910   5.575   2.349  0.00  0.00    +0.300 C 
ATOM     22  O   LIG    1       -6.051   2.945   1.778  0.00  0.00    -0.510 OA
ENDBRANCH  17  18
ENDBRANCH   5  17
TORSDOF 5
