REMARK  Name = ZINCrH000004mYkb.1
REMARK                            x       y       z     vdW  Elec       q    Type
REMARK                         _______ _______ _______ _____ _____    ______ ____
ROOT
ATOM      1  C   LIG    1       -1.746   4.998   0.040  0.00  0.00    +0.180 C 
ENDROOT
BRANCH   1   5
ATOM      2  C   LIG    1       -4.500   5.890  -3.104  0.00  0.00    +0.130 A 
ATOM      3  C   LIG    1       -3.435   6.742  -2.851  0.00  0.00    -0.020 A 
ATOM      4  C   LIG    1       -2.546   6.452  -1.834  0.00  0.00    +0.050 A 
ATOM      5  C   LIG    1       -2.717   5.313  -1.069  0.00  0.00    -0.120 A 
ATOM      6  C   LIG    1       -3.775   4.459  -1.323  0.00  0.00    +0.080 A 
ATOM      7  C   LIG    1       -4.670   4.748  -2.334  0.00  0.00    -0.080 A 
BRANCH   2   9
ATOM      8  C   LIG    1       -6.449   5.252  -4.307  0.00  0.00    +0.250 C 
ATOM      9  O   LIG    1       -5.376   6.174  -4.104  0.00  0.00    -0.320 OA
ENDBRANCH   2   9
ENDBRANCH   1   5
BRANCH   1  10
ATOM     10  N   LIG    1       -1.472   3.555   0.056  0.00  0.00    -0.530 NA
ATOM     11  C   LIG    1       -0.850   3.123  -1.202  0.00  0.00    +0.170 C 
ATOM     12  C   LIG    1       -0.713   1.599  -1.208  0.00  0.00    +0.020 C 
ATOM     13  C   LIG    1        0.145   1.163  -0.017  0.00  0.00    +0.000 C 
ATOM     14  C   LIG    1       -0.499   1.667   1.278  0.00  0.00    +0.020 C 
ATOM     15  C   LIG    1       -0.643   3.189   1.211  0.00  0.00    +0.170 C 
ENDBRANCH   1  10
BRANCH   1  16
ATOM     16  C   LIG    1       -2.350   5.418   1.381  0.00  0.00    +0.290 C 
BRANCH  16  17
ATOM     17  N   LIG    1       -2.558   6.868   1.391  0.00  0.00    -0.730 N 
ATOM     18  H   LIG    1       -2.378   7.389   0.593  0.00  0.00    +0.400 HD
ATOM     19  C   LIG    1       -2.998   7.478   2.509  0.00  0.00    +0.520 C 
ATOM     20  O   LIG    1       -3.223   6.827   3.507  0.00  0.00    -0.530 OA
BRANCH  19  21
ATOM     21  C   LIG    1       -3.212   8.970   2.519  0.00  0.00    +0.120 C 
BRANCH  21  22
ATOM     22  C   LIG    1       -3.704   9.398   3.878  0.00  0.00    -0.100 A 
ATOM     23  C   LIG    1       -2.823   9.948   4.789  0.00  0.00    +0.050 A 
ATOM     24  C   LIG    1       -3.274  10.342   6.036  0.00  0.00    +0.000 A 
ATOM     25  C   LIG    1       -4.605  10.183   6.372  0.00  0.00    +0.040 A 
ATOM     26  C   LIG    1       -5.487   9.632   5.462  0.00  0.00    -0.010 A 
ATOM     27  C   LIG    1       -5.039   9.244   4.212  0.00  0.00    +0.120 A 
ATOM     28  F   LIG    1       -5.902   8.711   3.319  0.00  0.00    -0.140 F 
ENDBRANCH  21  22
ENDBRANCH  19  21
ENDBRANCH  16  17
ENDBRANCH   1  16
TORSDOF 7
