REMARK  Name = ZINCqH0000008qvj.0
REMARK                            x       y       z     vdW  Elec       q    Type
REMARK                         _______ _______ _______ _____ _____    ______ ____
ROOT
ATOM      1  N   LIG    1        4.029  -2.170  -0.035  0.00  0.00    -0.720 N 
ATOM      2  H   LIG    1        3.115  -2.477   0.066  0.00  0.00    +0.400 HD
ATOM      3  C   LIG    1        4.938  -2.953  -0.650  0.00  0.00    +0.560 C 
ATOM      4  O   LIG    1        6.084  -2.568  -0.777  0.00  0.00    -0.530 OA
ENDROOT
BRANCH   3   5
ATOM      5  C   LIG    1        4.541  -4.279  -1.170  0.00  0.00    -0.120 A 
ATOM      6  C   LIG    1        3.227  -4.724  -1.021  0.00  0.00    +0.030 A 
ATOM      7  C   LIG    1        2.857  -5.960  -1.513  0.00  0.00    +0.040 A 
ATOM      8  C   LIG    1        3.786  -6.765  -2.143  0.00  0.00    +0.040 A 
ATOM      9  C   LIG    1        5.099  -6.332  -2.292  0.00  0.00    +0.130 A 
ATOM     10  C   LIG    1        5.479  -5.090  -1.807  0.00  0.00    +0.070 A 
BRANCH   9  11
ATOM     11  N   LIG    1        6.036  -7.149  -2.931  0.00  0.00    -1.060 N 
ATOM     12  H   LIG    1        6.641  -6.772  -3.588  0.00  0.00    +0.430 HD
BRANCH  11  13
ATOM     13  S   LIG    1        6.112  -8.763  -2.566  0.00  0.00    +2.610 S 
ATOM     14  O   LIG    1        7.195  -9.248  -3.347  0.00  0.00    -0.950 OA
ATOM     15  O   LIG    1        4.788  -9.233  -2.777  0.00  0.00    -0.950 OA
ATOM     16  C   LIG    1        6.529  -8.809  -0.801  0.00  0.00    -0.270 C 
ENDBRANCH  11  13
ENDBRANCH   9  11
ENDBRANCH   3   5
BRANCH   1  18
ATOM     17  C   LIG    1        5.069  -1.022   1.857  0.00  0.00    +0.040 C 
ATOM     18  C   LIG    1        4.423  -0.857   0.480  0.00  0.00    +0.280 C 
BRANCH  18  19
ATOM     19  C   LIG    1        3.204   0.022   0.599  0.00  0.00    -0.080 A 
ATOM     20  C   LIG    1        1.978  -0.532   0.800  0.00  0.00    +0.010 A 
ATOM     21  C   LIG    1        0.840   0.264   0.912  0.00  0.00    +0.020 A 
ATOM     22  C   LIG    1        0.921   1.620   0.823  0.00  0.00    +0.030 A 
ATOM     23  C   LIG    1        2.171   2.229   0.615  0.00  0.00    -0.050 A 
ATOM     24  C   LIG    1        2.295   3.625   0.519  0.00  0.00    +0.020 A 
ATOM     25  C   LIG    1        3.522   4.180   0.318  0.00  0.00    +0.020 A 
ATOM     26  C   LIG    1        4.659   3.384   0.206  0.00  0.00    +0.020 A 
ATOM     27  C   LIG    1        4.578   2.028   0.295  0.00  0.00    +0.020 A 
ATOM     28  C   LIG    1        3.328   1.419   0.502  0.00  0.00    -0.040 A 
ENDBRANCH  18  19
ENDBRANCH   1  18
TORSDOF 5
