REMARK  Name = ZINCrD00000s9Nx5.0
REMARK                            x       y       z     vdW  Elec       q    Type
REMARK                         _______ _______ _______ _____ _____    ______ ____
ROOT
ATOM      1  C   LIG    1       -2.047  -7.251  -3.952  0.00  0.00    -0.020 A 
ATOM      2  C   LIG    1       -0.765  -6.726  -3.874  0.00  0.00    +0.060 A 
ATOM      3  C   LIG    1       -0.526  -5.596  -3.115  0.00  0.00    -0.070 A 
ATOM      4  C   LIG    1       -1.566  -4.992  -2.421  0.00  0.00    +0.250 A 
ATOM      5  C   LIG    1       -2.850  -5.517  -2.498  0.00  0.00    -0.100 A 
ATOM      6  C   LIG    1       -3.090  -6.644  -3.261  0.00  0.00    +0.180 A 
ATOM      7  F   LIG    1       -4.339  -7.155  -3.337  0.00  0.00    -0.130 F 
ENDROOT
BRANCH   1  11
ATOM      8  C   LIG    1       -1.082 -11.986  -4.535  0.00  0.00    +0.060 C 
ATOM      9  C   LIG    1       -1.899 -10.791  -5.032  0.00  0.00    +0.160 C 
ATOM     10  C   LIG    1       -1.559  -9.555  -4.195  0.00  0.00    +0.170 C 
ATOM     11  N   LIG    1       -2.290  -8.395  -4.726  0.00  0.00    -0.490 N 
ATOM     12  C   LIG    1       -1.942  -8.160  -6.135  0.00  0.00    +0.170 C 
ATOM     13  C   LIG    1       -2.278  -9.411  -6.952  0.00  0.00    +0.160 C 
ATOM     14  C   LIG    1       -1.845  -9.203  -8.405  0.00  0.00    +0.060 C 
ATOM     15  O   LIG    1       -1.584 -10.534  -6.403  0.00  0.00    -0.380 OA
ENDBRANCH   1  11
BRANCH   4  16
ATOM     16  N   LIG    1       -1.322  -3.850  -1.649  0.00  0.00    -0.740 N 
ATOM     17  H   LIG    1       -2.050  -3.426  -1.167  0.00  0.00    +0.400 HD
BRANCH  16  18
ATOM     18  C   LIG    1        0.031  -3.296  -1.567  0.00  0.00    +0.350 C 
BRANCH  18  19
ATOM     19  C   LIG    1        0.023  -2.079  -0.680  0.00  0.00    -0.260 A 
ATOM     20  C   LIG    1       -0.003  -0.791  -1.094  0.00  0.00    +0.300 A 
ATOM     21  N   LIG    1        0.002  -0.004   0.002  0.00  0.00    -0.350 N 
ATOM     22  N   LIG    1        0.024  -0.833   1.131  0.00  0.00    -0.320 NA
ATOM     23  C   LIG    1       -0.018   1.461   0.010  0.00  0.00    +0.360 C 
ATOM     24  C   LIG    1        0.036  -2.079   0.723  0.00  0.00    +0.260 A 
BRANCH  24  25
ATOM     25  O   LIG    1        0.058  -3.180   1.521  0.00  0.00    -0.290 OA
BRANCH  25  26
ATOM     26  C   LIG    1        0.068  -2.958   2.933  0.00  0.00    +0.600 C 
ATOM     27  F   LIG    1       -1.080  -2.249   3.302  0.00  0.00    -0.190 F 
ATOM     28  F   LIG    1        1.204  -2.220   3.280  0.00  0.00    -0.190 F 
ENDBRANCH  25  26
ENDBRANCH  24  25
ENDBRANCH  18  19
ENDBRANCH  16  18
ENDBRANCH   4  16
TORSDOF 6
