REMARK  Name = ZINCrg00000fS9h1.0
REMARK                            x       y       z     vdW  Elec       q    Type
REMARK                         _______ _______ _______ _____ _____    ______ ____
ROOT
ATOM      1  C   LIG    1       -1.690   6.034   1.116  0.00  0.00    +0.040 C 
ATOM      2  C   LIG    1       -0.222   6.419   1.310  0.00  0.00    +0.070 C 
ATOM      3  C   LIG    1        0.603   5.878   0.138  0.00  0.00    +0.290 C 
ATOM      4  N   LIG    1        0.369   4.432   0.022  0.00  0.00    -0.570 N 
ATOM      5  C   LIG    1       -1.014   3.947  -0.084  0.00  0.00    +0.320 C 
ATOM      6  C   LIG    1       -1.821   4.509   1.096  0.00  0.00    +0.050 C 
ENDROOT
BRANCH   4   7
ATOM      7  C   LIG    1        1.426   3.548   0.007  0.00  0.00    +0.520 C 
ATOM      8  N   LIG    1        1.273   2.335   0.431  0.00  0.00    -0.880 NA
ATOM      9  S   LIG    1        2.759   1.588   0.256  0.00  0.00    +2.580 S 
ATOM     10  C   LIG    1        3.687   2.935  -0.423  0.00  0.00    -0.620 A 
ATOM     11  C   LIG    1        4.978   3.103  -0.832  0.00  0.00    +0.160 A 
ATOM     12  C   LIG    1        5.386   4.332  -1.331  0.00  0.00    +0.060 A 
ATOM     13  C   LIG    1        4.478   5.372  -1.407  0.00  0.00    +0.060 A 
ATOM     14  C   LIG    1        3.174   5.206  -0.996  0.00  0.00    +0.090 A 
ATOM     15  O   LIG    1        3.265   1.331   1.558  0.00  0.00    -0.940 OA
ATOM     16  O   LIG    1        2.627   0.602  -0.759  0.00  0.00    -0.940 OA
ATOM     17  C   LIG    1        2.744   3.970  -0.489  0.00  0.00    -0.120 A 
ENDBRANCH   4   7
BRANCH   1  18
ATOM     18  C   LIG    1       -2.510   6.593   2.249  0.00  0.00    +0.460 C 
ATOM     19  O   LIG    1       -1.975   7.234   3.123  0.00  0.00    -0.490 OA
BRANCH  18  20
ATOM     20  O   LIG    1       -3.835   6.380   2.289  0.00  0.00    -0.330 OA
BRANCH  20  24
ATOM     21  C   LIG    1       -7.016   7.604   5.362  0.00  0.00    +0.050 C 
ATOM     22  C   LIG    1       -6.904   7.183   3.895  0.00  0.00    +0.210 C 
ATOM     23  C   LIG    1       -5.812   6.099   3.728  0.00  0.00    +0.070 C 
ATOM     24  C   LIG    1       -4.561   6.949   3.410  0.00  0.00    +0.160 C 
ATOM     25  C   LIG    1       -5.100   8.316   3.050  0.00  0.00    +0.470 C 
ATOM     26  O   LIG    1       -4.424   9.279   2.776  0.00  0.00    -0.430 OA
ATOM     27  O   LIG    1       -6.440   8.298   3.079  0.00  0.00    -0.330 OA
ENDBRANCH  20  24
ENDBRANCH  18  20
ENDBRANCH   1  18
TORSDOF 4
