REMARK  Name = ZINCqH0000037wmr.0
REMARK                            x       y       z     vdW  Elec       q    Type
REMARK                         _______ _______ _______ _____ _____    ______ ____
ROOT
ATOM      1  N   LIG    1        7.061   3.942  -1.292  0.00  0.00    -0.750 N 
ATOM      2  H   LIG    1        6.563   4.061  -2.116  0.00  0.00    +0.400 HD
ATOM      3  C   LIG    1        6.450   4.121  -0.104  0.00  0.00    +0.710 C 
ATOM      4  N   LIG    1        5.126   4.365  -0.058  0.00  0.00    -0.630 N 
ATOM      5  C   LIG    1        4.420   4.456   1.229  0.00  0.00    +0.320 C 
ATOM      6  C   LIG    1        3.198   3.532   1.180  0.00  0.00    +0.180 C 
ATOM      7  N   LIG    1        2.385   3.862   0.002  0.00  0.00    -0.500 N 
ATOM      8  C   LIG    1        3.129   3.622  -1.242  0.00  0.00    +0.180 C 
ATOM      9  C   LIG    1        4.348   4.549  -1.292  0.00  0.00    +0.280 C 
ATOM     10  O   LIG    1        7.094   4.061   0.925  0.00  0.00    -0.590 OA
ENDROOT
BRANCH   7  11
ATOM     11  C   LIG    1        1.182   3.155   0.009  0.00  0.00    +0.130 A 
ATOM     12  C   LIG    1       -0.040   3.842   0.025  0.00  0.00    -0.080 A 
ATOM     13  C   LIG    1       -0.410   5.259   0.035  0.00  0.00    -0.030 A 
ATOM     14  C   LIG    1       -1.751   5.314   0.049  0.00  0.00    +0.210 A 
ATOM     15  N   LIG    1       -2.269   4.046   0.048  0.00  0.00    -0.600 N 
ATOM     16  H   LIG    1       -3.215   3.830   0.056  0.00  0.00    +0.420 HD
ATOM     17  C   LIG    1       -1.247   3.123   0.033  0.00  0.00    +0.100 A 
ATOM     18  C   LIG    1       -1.216   1.731   0.021  0.00  0.00    -0.010 A 
ATOM     19  C   LIG    1       -0.009   1.068   0.011  0.00  0.00    +0.040 A 
ATOM     20  C   LIG    1        1.187   1.771   0.003  0.00  0.00    -0.060 A 
ENDBRANCH   7  11
BRANCH   1  21
ATOM     21  C   LIG    1        8.476   3.566  -1.339  0.00  0.00    +0.290 C 
BRANCH  21  22
ATOM     22  C   LIG    1        8.919   3.427  -2.797  0.00  0.00    +0.060 C 
BRANCH  22  24
ATOM     23  C   LIG    1       11.273   3.624  -1.739  0.00  0.00    +0.090 C 
ATOM     24  C   LIG    1       10.397   3.035  -2.846  0.00  0.00    -0.100 C 
ATOM     25  C   LIG    1       10.739   1.629  -3.345  0.00  0.00    +0.100 C 
ATOM     26  C   LIG    1       11.033   2.846  -4.225  0.00  0.00    +0.100 C 
ATOM     27 CL   LIG    1       12.757   3.336  -4.421  0.00  0.00    -0.100 Cl
ATOM     28  F   LIG    1       10.218   3.046  -5.345  0.00  0.00    -0.150 F 
ENDBRANCH  22  24
ENDBRANCH  21  22
ENDBRANCH   1  21
TORSDOF 4
