REMARK  Name = ZINCqH0000008vgq.0
REMARK                            x       y       z     vdW  Elec       q    Type
REMARK                         _______ _______ _______ _____ _____    ______ ____
ROOT
ATOM      1  C   LIG    1       -2.950   6.701  -2.569  0.00  0.00    +0.520 C 
ATOM      2  N   LIG    1       -2.504   6.159  -1.419  0.00  0.00    -0.730 N 
ATOM      3  H   LIG    1       -2.875   6.447  -0.570  0.00  0.00    +0.400 HD
ATOM      4  O   LIG    1       -2.487   6.340  -3.630  0.00  0.00    -0.510 OA
ENDROOT
BRANCH   1   6
ATOM      5  C   LIG    1       -3.491   9.007  -1.834  0.00  0.00    +0.060 C 
ATOM      6  C   LIG    1       -4.025   7.757  -2.536  0.00  0.00    +0.170 C 
BRANCH   6   7
ATOM      7  O   LIG    1       -4.408   8.088  -3.873  0.00  0.00    -0.290 OA
BRANCH   7   8
ATOM      8  C   LIG    1       -5.655   8.598  -4.049  0.00  0.00    +0.130 A 
ATOM      9  C   LIG    1       -6.454   8.875  -2.950  0.00  0.00    -0.090 A 
ATOM     10  C   LIG    1       -7.720   9.399  -3.131  0.00  0.00    +0.050 A 
ATOM     11  C   LIG    1       -8.194   9.637  -4.408  0.00  0.00    -0.030 A 
ATOM     12  C   LIG    1       -7.401   9.356  -5.506  0.00  0.00    -0.030 A 
ATOM     13  C   LIG    1       -6.133   8.838  -5.329  0.00  0.00    -0.010 A 
BRANCH  12  14
ATOM     14  C   LIG    1       -7.921   9.617  -6.896  0.00  0.00    -0.030 C 
ATOM     15  C   LIG    1       -7.009  10.622  -7.602  0.00  0.00    +0.040 C 
ATOM     16  C   LIG    1       -9.339  10.186  -6.812  0.00  0.00    +0.040 C 
ATOM     17  C   LIG    1       -7.944   8.307  -7.686  0.00  0.00    +0.040 C 
ENDBRANCH  12  14
ENDBRANCH   7   8
ENDBRANCH   6   7
ENDBRANCH   1   6
BRANCH   2  18
ATOM     18  C   LIG    1       -1.459   5.132  -1.450  0.00  0.00    +0.280 C 
BRANCH  18  19
ATOM     19  C   LIG    1       -1.138   4.688  -0.022  0.00  0.00    +0.150 C 
BRANCH  19  20
ATOM     20  C   LIG    1       -0.063   3.632  -0.054  0.00  0.00    +0.230 A 
ATOM     21  N   LIG    1        1.222   3.853  -0.003  0.00  0.00    -0.470 NA
ATOM     22  C   LIG    1        1.875   2.682  -0.056  0.00  0.00    +0.170 A 
ATOM     23  C   LIG    1        0.959   1.698  -0.142  0.00  0.00    +0.150 A 
ATOM     24  N   LIG    1       -0.270   2.300  -0.146  0.00  0.00    -0.510 N 
BRANCH  24  25
ATOM     25  C   LIG    1       -1.568   1.626  -0.233  0.00  0.00    +0.640 C 
ATOM     26  F   LIG    1       -2.247   2.067  -1.374  0.00  0.00    -0.180 F 
ATOM     27  F   LIG    1       -2.325   1.925   0.905  0.00  0.00    -0.180 F 
ENDBRANCH  24  25
ENDBRANCH  19  20
ENDBRANCH  18  19
ENDBRANCH   2  18
TORSDOF 8
