REMARK  Name = ZINCnE000008JfhJ.0
REMARK                            x       y       z     vdW  Elec       q    Type
REMARK                         _______ _______ _______ _____ _____    ______ ____
ROOT
ATOM      1  C   LIG    1       -6.681   6.905   0.102  0.00  0.00    +0.160 A 
ATOM      2  C   LIG    1       -6.031   6.698  -1.106  0.00  0.00    -0.100 A 
ATOM      3  C   LIG    1       -4.714   6.282  -1.118  0.00  0.00    +0.150 A 
ATOM      4  C   LIG    1       -4.048   6.059   0.073  0.00  0.00    -0.650 A 
ATOM      5  C   LIG    1       -4.693   6.263   1.278  0.00  0.00    +0.160 A 
ATOM      6  C   LIG    1       -6.008   6.686   1.296  0.00  0.00    -0.130 A 
ENDROOT
BRANCH   6   7
ATOM      7  C   LIG    1       -6.711   6.910   2.610  0.00  0.00    -0.020 C 
ATOM      8  C   LIG    1       -7.930   5.989   2.700  0.00  0.00    +0.030 C 
ATOM      9  C   LIG    1       -7.165   8.367   2.704  0.00  0.00    +0.030 C 
ATOM     10  C   LIG    1       -5.752   6.599   3.761  0.00  0.00    +0.030 C 
ENDBRANCH   6   7
BRANCH   4  11
ATOM     11  S   LIG    1       -2.370   5.521   0.054  0.00  0.00    +2.630 S 
ATOM     12  O   LIG    1       -1.833   5.923  -1.199  0.00  0.00    -1.020 OA
ATOM     13  O   LIG    1       -1.810   5.910   1.300  0.00  0.00    -1.020 OA
BRANCH  11  14
ATOM     14  N   LIG    1       -2.386   3.865   0.045  0.00  0.00    -1.080 NA
BRANCH  14  15
ATOM     15  C   LIG    1       -1.190   3.158   0.030  0.00  0.00    +0.450 A 
ATOM     16  C   LIG    1       -1.211   1.767   0.017  0.00  0.00    -0.100 A 
ATOM     17  C   LIG    1       -0.013   1.076   0.008  0.00  0.00    +0.060 A 
ATOM     18  C   LIG    1        1.171   1.802   0.001  0.00  0.00    -0.170 A 
ATOM     19  C   LIG    1        1.118   3.181   0.008  0.00  0.00    +0.170 A 
ATOM     20  C   LIG    1        2.399   3.975   0.000  0.00  0.00    +0.100 C 
ATOM     21  N   LIG    1       -0.040   3.814   0.022  0.00  0.00    -0.600 NA
ENDBRANCH  14  15
ENDBRANCH  11  14
ENDBRANCH   4  11
BRANCH   1  23
ATOM     22  C   LIG    1       -8.605   7.526  -1.149  0.00  0.00    +0.230 C 
ATOM     23  O   LIG    1       -7.975   7.321   0.117  0.00  0.00    -0.310 OA
ENDBRANCH   1  23
TORSDOF 5
