REMARK  Name = ZINCrH000004vCXv.0
REMARK                            x       y       z     vdW  Elec       q    Type
REMARK                         _______ _______ _______ _____ _____    ______ ____
ROOT
ATOM      1  O   LIG    1       -1.436   1.871   0.014  0.00  0.00    -0.520 OA
ATOM      2  C   LIG    1       -2.450   1.202  -0.012  0.00  0.00    +0.590 C 
ATOM      3  N   LIG    1       -2.369  -0.143  -0.072  0.00  0.00    -0.540 N 
ATOM      4  C   LIG    1       -3.514  -1.049  -0.218  0.00  0.00    +0.280 C 
ATOM      5  C   LIG    1       -2.905  -2.453  -0.232  0.00  0.00    -0.030 C 
ATOM      6  C   LIG    1       -1.421  -2.244  -0.092  0.00  0.00    -0.120 A 
ATOM      7  C   LIG    1       -0.371  -3.140  -0.045  0.00  0.00    +0.040 A 
ATOM      8  C   LIG    1        0.929  -2.684   0.074  0.00  0.00    -0.010 A 
ATOM      9  C   LIG    1        1.177  -1.327   0.161  0.00  0.00    +0.040 A 
ATOM     10  C   LIG    1        0.133  -0.427   0.120  0.00  0.00    +0.010 A 
ATOM     11  C   LIG    1       -3.237  -3.180  -1.543  0.00  0.00    +0.030 C 
ATOM     12  C   LIG    1       -3.418  -4.660  -1.115  0.00  0.00    +0.020 C 
ATOM     13  C   LIG    1       -4.117  -4.537   0.263  0.00  0.00    +0.020 C 
ATOM     14  C   LIG    1       -3.455  -3.304   0.916  0.00  0.00    +0.030 C 
ATOM     15  C   LIG    1       -1.182  -0.878  -0.010  0.00  0.00    +0.150 A 
ENDROOT
BRANCH   2  16
ATOM     16  C   LIG    1       -3.772   1.862   0.021  0.00  0.00    -0.100 A 
ATOM     17  C   LIG    1       -4.753   1.423   0.912  0.00  0.00    +0.040 A 
ATOM     18  C   LIG    1       -5.983   2.047   0.942  0.00  0.00    +0.020 A 
ATOM     19  C   LIG    1       -6.248   3.102   0.087  0.00  0.00    +0.030 A 
ATOM     20  C   LIG    1       -5.282   3.538  -0.803  0.00  0.00    +0.030 A 
ATOM     21  C   LIG    1       -4.048   2.923  -0.843  0.00  0.00    -0.060 A 
BRANCH  21  22
ATOM     22  C   LIG    1       -2.998   3.400  -1.812  0.00  0.00    +0.380 C 
BRANCH  22  23
ATOM     23  N   LIG    1       -3.017   2.555  -3.009  0.00  0.00    -0.370 N 
ATOM     24  C   LIG    1       -3.163   2.963  -4.281  0.00  0.00    +0.470 A 
ATOM     25  N   LIG    1       -3.124   1.907  -5.053  0.00  0.00    -0.540 NA
ATOM     26  C   LIG    1       -2.964   0.811  -4.312  0.00  0.00    +0.410 A 
ATOM     27  N   LIG    1       -2.893   1.157  -3.053  0.00  0.00    -0.310 NA
ENDBRANCH  22  23
ENDBRANCH  21  22
ENDBRANCH   2  16
TORSDOF 3
