REMARK  Name = ZINCtj00001UqOpG.1
REMARK                            x       y       z     vdW  Elec       q    Type
REMARK                         _______ _______ _______ _____ _____    ______ ____
ROOT
ATOM      1  C   LIG    1       -0.937  -1.046  -0.251  0.00  0.00    +0.640 C 
ATOM      2  N   LIG    1       -0.827  -2.386  -0.151  0.00  0.00    -0.640 N 
ATOM      3  C   LIG    1        0.281  -3.351  -0.042  0.00  0.00    +0.320 C 
ATOM      4  C   LIG    1       -0.694  -4.291   0.660  0.00  0.00    -0.130 C 
ATOM      5  C   LIG    1       -0.556  -5.781   0.327  0.00  0.00    +0.320 C 
ATOM      6  N   LIG    1       -1.108  -6.476   1.522  0.00  0.00    -0.400 N 
ATOM      7  C   LIG    1       -0.643  -5.659   2.674  0.00  0.00    +0.290 C 
ATOM      8  C   LIG    1       -0.573  -7.841   1.613  0.00  0.00    +0.340 C 
ATOM      9  H   LIG    1       -2.116  -6.495   1.487  0.00  0.00    +0.430 HD
ATOM     10  C   LIG    1       -0.758  -4.195   2.187  0.00  0.00    +0.100 C 
ATOM     11  C   LIG    1       -1.760  -3.524  -0.111  0.00  0.00    +0.330 C 
ATOM     12  O   LIG    1       -2.036  -0.531  -0.335  0.00  0.00    -0.500 OA
ENDROOT
BRANCH   1  15
ATOM     13  C   LIG    1       -0.888   2.072  -0.477  0.00  0.00    +0.140 C 
ATOM     14  C   LIG    1        0.299   1.151  -0.355  0.00  0.00    -0.060 A 
ATOM     15  C   LIG    1        0.268  -0.210  -0.259  0.00  0.00    -0.100 A 
ATOM     16  O   LIG    1        1.540  -0.652  -0.173  0.00  0.00    -0.170 OA
ATOM     17  C   LIG    1        2.377   0.394  -0.211  0.00  0.00    +0.220 A 
ATOM     18  C   LIG    1        1.651   1.528  -0.323  0.00  0.00    -0.060 A 
ENDBRANCH   1  15
BRANCH  10  19
ATOM     19  C   LIG    1        0.392  -3.375   2.711  0.00  0.00    +0.200 A 
ATOM     20  C   LIG    1        0.227  -2.025   2.976  0.00  0.00    -0.090 A 
ATOM     21  C   LIG    1        1.309  -1.308   3.462  0.00  0.00    +0.360 A 
ATOM     22  N   LIG    1        2.463  -1.927   3.647  0.00  0.00    -0.530 NA
ATOM     23  C   LIG    1        2.589  -3.219   3.379  0.00  0.00    +0.510 A 
ATOM     24  N   LIG    1        1.573  -3.934   2.919  0.00  0.00    -0.540 NA
BRANCH  23  25
ATOM     25  N   LIG    1        3.811  -3.836   3.585  0.00  0.00    -0.460 N 
ATOM     26  C   LIG    1        3.675  -4.982   4.495  0.00  0.00    +0.190 C 
ATOM     27  C   LIG    1        5.035  -5.669   4.647  0.00  0.00    +0.240 C 
ATOM     28  O   LIG    1        5.995  -4.717   5.114  0.00  0.00    -0.380 OA
ATOM     29  C   LIG    1        6.152  -3.588   4.251  0.00  0.00    +0.230 C 
ATOM     30  C   LIG    1        4.804  -2.880   4.095  0.00  0.00    +0.200 C 
ENDBRANCH  23  25
ENDBRANCH  10  19
TORSDOF 3
