REMARK  Name = ZINCtj00001UqOpG.0
REMARK                            x       y       z     vdW  Elec       q    Type
REMARK                         _______ _______ _______ _____ _____    ______ ____
ROOT
ATOM      1  C   LIG    1        1.751   3.200   0.003  0.00  0.00    +0.640 C 
ATOM      2  N   LIG    1        3.071   3.469  -0.009  0.00  0.00    -0.650 N 
ATOM      3  C   LIG    1        4.312   2.675  -0.018  0.00  0.00    +0.350 C 
ATOM      4  C   LIG    1        4.989   3.864  -0.686  0.00  0.00    -0.130 C 
ATOM      5  C   LIG    1        5.009   3.880  -2.221  0.00  0.00    +0.320 C 
ATOM      6  N   LIG    1        5.999   4.946  -2.534  0.00  0.00    -0.400 N 
ATOM      7  C   LIG    1        7.066   4.826  -1.514  0.00  0.00    +0.280 C 
ATOM      8  C   LIG    1        6.557   4.739  -3.877  0.00  0.00    +0.350 C 
ATOM      9  H   LIG    1        5.563   5.853  -2.474  0.00  0.00    +0.430 HD
ATOM     10  C   LIG    1        6.435   4.155  -0.276  0.00  0.00    +0.110 C 
ATOM     11  C   LIG    1        3.903   4.685  -0.010  0.00  0.00    +0.320 C 
ATOM     12  O   LIG    1        0.944   4.112   0.015  0.00  0.00    -0.500 OA
ENDROOT
BRANCH   1  15
ATOM     13  C   LIG    1       -1.238   2.282   0.021  0.00  0.00    +0.140 C 
ATOM     14  C   LIG    1       -0.017   1.399   0.010  0.00  0.00    -0.060 A 
ATOM     15  C   LIG    1        1.285   1.810  -0.001  0.00  0.00    -0.110 A 
ATOM     16  O   LIG    1        2.069   0.712  -0.014  0.00  0.00    -0.170 OA
ATOM     17  C   LIG    1        1.299  -0.384  -0.012  0.00  0.00    +0.230 A 
ATOM     18  C   LIG    1        0.002  -0.004   0.002  0.00  0.00    -0.060 A 
ENDBRANCH   1  15
BRANCH  10  19
ATOM     19  C   LIG    1        6.468   5.094   0.903  0.00  0.00    +0.200 A 
ATOM     20  C   LIG    1        6.407   6.465   0.710  0.00  0.00    -0.140 A 
ATOM     21  C   LIG    1        6.435   7.293   1.821  0.00  0.00    +0.380 A 
ATOM     22  N   LIG    1        6.528   6.753   3.025  0.00  0.00    -0.540 NA
ATOM     23  C   LIG    1        6.588   5.438   3.175  0.00  0.00    +0.520 A 
ATOM     24  N   LIG    1        6.559   4.619   2.134  0.00  0.00    -0.520 NA
BRANCH  23  25
ATOM     25  N   LIG    1        6.685   4.907   4.450  0.00  0.00    -0.460 N 
ATOM     26  C   LIG    1        5.593   3.958   4.710  0.00  0.00    +0.190 C 
ATOM     27  C   LIG    1        5.771   3.352   6.104  0.00  0.00    +0.240 C 
ATOM     28  O   LIG    1        5.817   4.403   7.073  0.00  0.00    -0.380 OA
ATOM     29  C   LIG    1        6.870   5.345   6.851  0.00  0.00    +0.240 C 
ATOM     30  C   LIG    1        6.703   5.972   5.464  0.00  0.00    +0.200 C 
ENDBRANCH  23  25
ENDBRANCH  10  19
TORSDOF 3
