REMARK  Name = ZINCrD00000l7yKo.0
REMARK                            x       y       z     vdW  Elec       q    Type
REMARK                         _______ _______ _______ _____ _____    ______ ____
ROOT
ATOM      1  N   LIG    1        0.093  -2.773  -0.108  0.00  0.00    -0.660 N 
ATOM      2  H   LIG    1       -0.267  -2.342   0.683  0.00  0.00    +0.420 HD
ATOM      3  C   LIG    1        0.053  -4.116  -0.221  0.00  0.00    +0.500 C 
ATOM      4  O   LIG    1        0.591  -4.661  -1.162  0.00  0.00    -0.470 OA
ENDROOT
BRANCH   1  17
ATOM      5  C   LIG    1        1.168  -0.736  -0.846  0.00  0.00    +0.090 A 
ATOM      6  C   LIG    1        1.715   0.032  -1.855  0.00  0.00    +0.000 A 
ATOM      7  C   LIG    1        1.758  -0.464  -3.156  0.00  0.00    -0.100 A 
ATOM      8  C   LIG    1        1.240  -1.733  -3.448  0.00  0.00    +0.080 A 
ATOM      9  O   LIG    1        1.400  -1.968  -4.770  0.00  0.00    -0.200 OA
ATOM     10  C   LIG    1        1.998  -0.927  -5.390  0.00  0.00    +0.090 A 
ATOM     11  C   LIG    1        2.364  -0.711  -6.713  0.00  0.00    +0.020 A 
ATOM     12  C   LIG    1        2.974   0.471  -7.077  0.00  0.00    +0.060 A 
ATOM     13  C   LIG    1        3.231   1.453  -6.134  0.00  0.00    -0.010 A 
ATOM     14  C   LIG    1        2.875   1.256  -4.816  0.00  0.00    +0.070 A 
ATOM     15  C   LIG    1        0.688  -2.495  -2.426  0.00  0.00    +0.060 A 
ATOM     16  C   LIG    1        2.259   0.068  -4.438  0.00  0.00    -0.120 A 
ATOM     17  C   LIG    1        0.651  -2.000  -1.133  0.00  0.00    +0.170 A 
BRANCH   5  19
ATOM     18  C   LIG    1        1.675   1.044   0.649  0.00  0.00    +0.250 C 
ATOM     19  O   LIG    1        1.128  -0.258   0.427  0.00  0.00    -0.310 OA
ENDBRANCH   5  19
ENDBRANCH   1  17
BRANCH   3  20
ATOM     20  C   LIG    1       -0.658  -4.939   0.822  0.00  0.00    +0.290 C 
BRANCH  20  21
ATOM     21  N   LIG    1       -0.979  -6.257   0.268  0.00  0.00    -0.740 N 
ATOM     22  H   LIG    1       -1.902  -6.548   0.213  0.00  0.00    +0.400 HD
ATOM     23  C   LIG    1        0.009  -7.064  -0.167  0.00  0.00    +0.710 C 
ATOM     24  O   LIG    1        1.167  -6.699  -0.099  0.00  0.00    -0.560 OA
ATOM     25  N   LIG    1       -0.286  -8.277  -0.676  0.00  0.00    -0.870 N 
ATOM     26  H   LIG    1        0.425  -8.858  -0.989  0.00  0.00    +0.420 HD
ATOM     27  H   LIG    1       -1.210  -8.568  -0.731  0.00  0.00    +0.390 HD
ENDBRANCH  20  21
BRANCH  20  28
ATOM     28  C   LIG    1        0.247  -5.107   2.044  0.00  0.00    +0.080 C 
BRANCH  28  29
ATOM     29  C   LIG    1       -0.519  -5.835   3.150  0.00  0.00    +0.080 C 
BRANCH  29  30
ATOM     30  S   LIG    1        0.554  -6.033   4.599  0.00  0.00    -0.260 S 
ATOM     31  C   LIG    1       -0.514  -6.902   5.781  0.00  0.00    +0.140 C 
ENDBRANCH  29  30
ENDBRANCH  28  29
ENDBRANCH  20  28
ENDBRANCH   3  20
TORSDOF 7
