REMARK  Name = ZINCpe000000X9sc.0
REMARK                            x       y       z     vdW  Elec       q    Type
REMARK                         _______ _______ _______ _____ _____    ______ ____
ROOT
ATOM      1  C   LIG    1        0.654   6.188   1.144  0.00  0.00    +0.100 C 
ATOM      2  C   LIG    1       -0.710   5.683   0.670  0.00  0.00    +0.180 C 
ATOM      3  N   LIG    1       -0.738   5.567  -0.798  0.00  0.00    -0.720 N 
ATOM      4  H   LIG    1       -0.618   6.285  -1.438  0.00  0.00    +0.440 HD
ATOM      5  C   LIG    1       -0.962   4.270  -1.077  0.00  0.00    +0.710 C 
ATOM      6  N   LIG    1       -1.083   3.523   0.026  0.00  0.00    -0.560 N 
ATOM      7  O   LIG    1       -1.044   3.826  -2.206  0.00  0.00    -0.530 OA
ATOM      8  C   LIG    1       -0.955   4.264   1.145  0.00  0.00    +0.540 C 
ATOM      9  O   LIG    1       -1.021   3.876   2.292  0.00  0.00    -0.450 OA
ENDROOT
BRANCH   2  10
ATOM     10  C   LIG    1       -1.808   6.596   1.151  0.00  0.00    -0.090 A 
ATOM     11  C   LIG    1       -2.396   6.378   2.383  0.00  0.00    +0.070 A 
ATOM     12  C   LIG    1       -3.404   7.213   2.829  0.00  0.00    +0.050 A 
ATOM     13  C   LIG    1       -3.827   8.271   2.042  0.00  0.00    +0.040 A 
ATOM     14  O   LIG    1       -4.782   9.224   2.243  0.00  0.00    -0.310 OA
ATOM     15  C   LIG    1       -4.489  10.269   1.297  0.00  0.00    +0.440 C 
ATOM     16  O   LIG    1       -3.819   9.581   0.224  0.00  0.00    -0.310 OA
ATOM     17  C   LIG    1       -3.234   8.490   0.800  0.00  0.00    +0.030 A 
ATOM     18  C   LIG    1       -2.221   7.653   0.362  0.00  0.00    +0.060 A 
ENDBRANCH   2  10
BRANCH   6  19
ATOM     19  C   LIG    1       -1.331   2.079   0.020  0.00  0.00    +0.360 C 
BRANCH  19  20
ATOM     20  C   LIG    1       -0.016   1.344   0.009  0.00  0.00    +0.520 C 
ATOM     21  N   LIG    1        0.002  -0.004   0.002  0.00  0.00    -0.620 N 
ATOM     22  C   LIG    1       -1.181  -0.877   0.015  0.00  0.00    +0.230 C 
ATOM     23  C   LIG    1       -0.674  -2.335   0.025  0.00  0.00    +0.040 C 
ATOM     24  C   LIG    1        0.762  -2.198   0.596  0.00  0.00    +0.040 C 
ATOM     25  C   LIG    1        1.212  -0.847  -0.014  0.00  0.00    +0.250 C 
ATOM     26  O   LIG    1        1.026   1.964   0.003  0.00  0.00    -0.530 OA
ENDBRANCH  19  20
ENDBRANCH   6  19
TORSDOF 3
