REMARK  Name = ZINCpk000000ei3w.0
REMARK                            x       y       z     vdW  Elec       q    Type
REMARK                         _______ _______ _______ _____ _____    ______ ____
ROOT
ATOM      1  N   LIG    1       -1.440  -1.393   4.650  0.00  0.00    -1.110 NA
ATOM      2  H   LIG    1       -1.988  -0.919   5.295  0.00  0.00    +0.420 HD
ENDROOT
BRANCH   1   3
ATOM      3  S   LIG    1        0.051  -0.801   4.237  0.00  0.00    +2.730 S 
ATOM      4  O   LIG    1        0.217   0.410   4.962  0.00  0.00    -0.960 OA
ATOM      5  O   LIG    1        0.956  -1.893   4.330  0.00  0.00    -0.940 OA
BRANCH   3   6
ATOM      6  C   LIG    1       -0.018  -0.356   2.534  0.00  0.00    -0.570 A 
ATOM      7  C   LIG    1       -0.372   0.850   2.044  0.00  0.00    +0.260 A 
ATOM      8  N   LIG    1       -0.289   0.760   0.686  0.00  0.00    -0.450 N 
ATOM      9  C   LIG    1       -0.572   1.805  -0.301  0.00  0.00    +0.280 C 
ATOM     10  C   LIG    1        0.055   1.401  -1.640  0.00  0.00    +0.040 C 
ATOM     11  C   LIG    1       -0.361  -0.031  -1.988  0.00  0.00    +0.030 C 
ATOM     12  C   LIG    1        0.322  -1.005  -1.020  0.00  0.00    +0.160 C 
ATOM     13  C   LIG    1        0.112  -0.499   0.387  0.00  0.00    +0.210 A 
ATOM     14  N   LIG    1        0.272  -1.158   1.497  0.00  0.00    -0.410 NA
ENDBRANCH   3   6
ENDBRANCH   1   3
BRANCH   1  15
ATOM     15  C   LIG    1       -1.930  -2.631   4.041  0.00  0.00    +0.340 C 
BRANCH  15  19
ATOM     16  C   LIG    1       -5.269  -4.094   6.277  0.00  0.00    -0.130 A 
ATOM     17  C   LIG    1       -5.470  -3.215   5.212  0.00  0.00    +0.080 A 
ATOM     18  C   LIG    1       -4.388  -2.746   4.495  0.00  0.00    +0.020 A 
ATOM     19  C   LIG    1       -3.107  -3.147   4.829  0.00  0.00    -0.070 A 
ATOM     20  C   LIG    1       -2.901  -4.023   5.880  0.00  0.00    +0.030 A 
ATOM     21  C   LIG    1       -3.974  -4.494   6.609  0.00  0.00    +0.040 A 
BRANCH  16  24
ATOM     22  C   LIG    1       -7.386  -5.544   9.080  0.00  0.00    +0.290 C 
ATOM     23  N   LIG    1       -6.267  -4.952   8.342  0.00  0.00    -0.620 N 
ATOM     24  C   LIG    1       -6.423  -4.600   7.050  0.00  0.00    +0.560 C 
ATOM     25  O   LIG    1       -7.513  -4.700   6.520  0.00  0.00    -0.530 OA
ATOM     26  C   LIG    1       -4.980  -4.741   9.008  0.00  0.00    +0.280 C 
ENDBRANCH  16  24
ENDBRANCH  15  19
ENDBRANCH   1  15
TORSDOF 5
