REMARK  Name = ZINCrH000004uJ78.0
REMARK                            x       y       z     vdW  Elec       q    Type
REMARK                         _______ _______ _______ _____ _____    ______ ____
ROOT
ATOM      1  O   LIG    1        1.408   2.466   1.378  0.00  0.00    -0.570 OA
ATOM      2  C   LIG    1        1.289   1.449   0.722  0.00  0.00    +0.710 C 
ATOM      3  N   LIG    1        2.323   0.998  -0.015  0.00  0.00    -0.680 N 
ATOM      4  H   LIG    1        2.255   0.147  -0.476  0.00  0.00    +0.410 HD
ATOM      5  N   LIG    1        0.123   0.773   0.733  0.00  0.00    -0.740 N 
ATOM      6  H   LIG    1        0.028  -0.038   0.210  0.00  0.00    +0.400 HD
ENDROOT
BRANCH   3   7
ATOM      7  C   LIG    1        3.495   1.756  -0.115  0.00  0.00    +0.160 A 
ATOM      8  C   LIG    1        3.429   3.143  -0.105  0.00  0.00    +0.030 A 
ATOM      9  C   LIG    1        4.588   3.888  -0.198  0.00  0.00    +0.030 A 
ATOM     10  C   LIG    1        5.812   3.255  -0.313  0.00  0.00    +0.000 A 
ATOM     11  C   LIG    1        5.880   1.874  -0.328  0.00  0.00    -0.090 A 
ATOM     12  C   LIG    1        4.726   1.123  -0.230  0.00  0.00    +0.010 A 
BRANCH  11  13
ATOM     13  C   LIG    1        7.216   1.188  -0.453  0.00  0.00    +0.350 C 
BRANCH  13  14
ATOM     14  N   LIG    1        7.526   0.974  -1.868  0.00  0.00    -0.620 N 
ATOM     15  C   LIG    1        8.251   1.932  -2.711  0.00  0.00    +0.250 C 
ATOM     16  C   LIG    1        7.961   1.503  -4.167  0.00  0.00    +0.040 C 
ATOM     17  C   LIG    1        7.652  -0.003  -3.995  0.00  0.00    +0.040 C 
ATOM     18  C   LIG    1        7.187  -0.127  -2.561  0.00  0.00    +0.520 C 
ATOM     19  O   LIG    1        6.593  -1.080  -2.104  0.00  0.00    -0.530 OA
ENDBRANCH  13  14
ENDBRANCH  11  13
ENDBRANCH   3   7
BRANCH   5  20
ATOM     20  C   LIG    1       -1.003   1.267   1.529  0.00  0.00    +0.420 C 
BRANCH  20  21
ATOM     21  C   LIG    1       -2.180   0.341   1.363  0.00  0.00    +0.060 A 
ATOM     22  N   LIG    1       -2.406  -0.675   2.107  0.00  0.00    -0.440 NA
ATOM     23  C   LIG    1       -3.501  -1.414   1.845  0.00  0.00    +0.070 A 
ATOM     24  C   LIG    1       -3.986  -2.566   2.497  0.00  0.00    +0.080 A 
ATOM     25  C   LIG    1       -5.126  -3.174   2.066  0.00  0.00    +0.030 A 
ATOM     26  C   LIG    1       -5.831  -2.673   0.980  0.00  0.00    +0.050 A 
ATOM     27  C   LIG    1       -5.381  -1.549   0.325  0.00  0.00    +0.060 A 
ATOM     28  C   LIG    1       -4.217  -0.914   0.752  0.00  0.00    -0.180 A 
ATOM     29  S   LIG    1       -3.375   0.513   0.157  0.00  0.00    +0.130 S 
ENDBRANCH  20  21
ENDBRANCH   5  20
TORSDOF 5
