REMARK  Name = ZINCvU0000000GMB.0
REMARK                            x       y       z     vdW  Elec       q    Type
REMARK                         _______ _______ _______ _____ _____    ______ ____
ROOT
ATOM      1  C   LIG    1        3.565  -0.135  -0.948  0.00  0.00    -0.270 A 
ATOM      2  C   LIG    1        3.108   1.120  -0.814  0.00  0.00    +0.190 A 
ATOM      3  C   LIG    1        1.734   1.234  -0.565  0.00  0.00    -0.220 A 
ATOM      4  C   LIG    1        1.091   0.008  -0.503  0.00  0.00    +0.020 A 
ATOM      5  N   LIG    1       -0.234   0.253  -0.258  0.00  0.00    -0.300 N 
ATOM      6  N   LIG    1       -0.410   1.637  -0.168  0.00  0.00    -0.250 NA
ATOM      7  C   LIG    1        0.732   2.231  -0.346  0.00  0.00    +0.140 A 
ATOM      8  C   LIG    1        0.963   3.720  -0.324  0.00  0.00    +0.180 C 
ATOM      9  S   LIG    1        2.252  -1.287  -0.764  0.00  0.00    +0.210 S 
ENDROOT
BRANCH   1  14
ATOM     10  C   LIG    1        6.471  -3.681  -2.234  0.00  0.00    +0.050 C 
ATOM     11  C   LIG    1        5.245  -4.212  -1.444  0.00  0.00    +0.050 C 
ATOM     12  C   LIG    1        4.406  -2.938  -1.209  0.00  0.00    +0.240 C 
ATOM     13  N   LIG    1        5.314  -1.788  -1.328  0.00  0.00    -0.620 N 
ATOM     14  C   LIG    1        4.962  -0.493  -1.211  0.00  0.00    +0.610 C 
ATOM     15  O   LIG    1        5.803   0.380  -1.323  0.00  0.00    -0.520 OA
ATOM     16  C   LIG    1        6.676  -2.287  -1.591  0.00  0.00    +0.280 C 
BRANCH  10  22
ATOM     17  C   LIG    1        8.358  -5.085  -3.104  0.00  0.00    +0.140 A 
ATOM     18  C   LIG    1        9.467  -5.893  -2.900  0.00  0.00    -0.080 A 
ATOM     19  C   LIG    1        9.889  -6.173  -1.615  0.00  0.00    +0.050 A 
ATOM     20  C   LIG    1        9.207  -5.649  -0.533  0.00  0.00    -0.020 A 
ATOM     21  C   LIG    1        8.105  -4.839  -0.733  0.00  0.00    +0.050 A 
ATOM     22  C   LIG    1        7.676  -4.560  -2.016  0.00  0.00    -0.110 A 
BRANCH  17  24
ATOM     23  C   LIG    1        8.691  -5.383  -5.439  0.00  0.00    +0.250 C 
ATOM     24  O   LIG    1        7.941  -4.808  -4.368  0.00  0.00    -0.310 OA
ENDBRANCH  17  24
ENDBRANCH  10  22
ENDBRANCH   1  14
BRANCH   5  25
ATOM     25  C   LIG    1       -1.238  -0.714  -0.121  0.00  0.00    +0.140 A 
ATOM     26  C   LIG    1       -1.345  -1.741  -1.049  0.00  0.00    +0.010 A 
ATOM     27  C   LIG    1       -2.333  -2.697  -0.908  0.00  0.00    +0.030 A 
ATOM     28  C   LIG    1       -3.221  -2.624   0.150  0.00  0.00    +0.020 A 
ATOM     29  C   LIG    1       -3.120  -1.599   1.073  0.00  0.00    +0.020 A 
ATOM     30  C   LIG    1       -2.131  -0.644   0.941  0.00  0.00    -0.070 A 
ATOM     31  C   LIG    1       -2.022   0.472   1.946  0.00  0.00    +0.100 C 
ENDBRANCH   5  25
TORSDOF 4
