REMARK  Name = ZINCrD0000072u20.1
REMARK                            x       y       z     vdW  Elec       q    Type
REMARK                         _______ _______ _______ _____ _____    ______ ____
ROOT
ATOM      1  C   LIG    1       -0.093   1.461   0.013  0.00  0.00    +0.300 C 
ATOM      2  N   LIG    1       -0.027  -0.003   0.003  0.00  0.00    -0.590 N 
ATOM      3  C   LIG    1       -0.102  -0.673  -1.163  0.00  0.00    +0.570 C 
ATOM      4  O   LIG    1       -0.150  -1.887  -1.165  0.00  0.00    -0.530 OA
ENDROOT
BRANCH   3   5
ATOM      5  C   LIG    1       -0.124   0.071  -2.446  0.00  0.00    +0.110 A 
ATOM      6  N   LIG    1        0.053   1.378  -2.436  0.00  0.00    -0.430 NA
ATOM      7  C   LIG    1        0.046   2.086  -3.564  0.00  0.00    +0.120 A 
ATOM      8  C   LIG    1        0.241   3.480  -3.546  0.00  0.00    +0.050 A 
ATOM      9  C   LIG    1        0.223   4.179  -4.713  0.00  0.00    +0.030 A 
ATOM     10  C   LIG    1        0.015   3.538  -5.933  0.00  0.00    +0.030 A 
ATOM     11  C   LIG    1       -0.178   2.191  -5.992  0.00  0.00    +0.030 A 
ATOM     12  C   LIG    1       -0.166   1.436  -4.808  0.00  0.00    -0.090 A 
ATOM     13  C   LIG    1       -0.361   0.042  -4.829  0.00  0.00    +0.090 A 
ATOM     14  C   LIG    1       -0.339  -0.631  -3.641  0.00  0.00    +0.020 A 
ENDBRANCH   3   5
BRANCH   2  15
ATOM     15  C   LIG    1        0.119  -0.737   1.262  0.00  0.00    +0.240 C 
ATOM     16  C   LIG    1       -1.065  -0.421   2.180  0.00  0.00    +0.030 C 
ATOM     17  C   LIG    1       -0.876  -1.143   3.516  0.00  0.00    +0.170 C 
ATOM     18  N   LIG    1        0.380  -0.703   4.138  0.00  0.00    -0.530 NA
ATOM     19  C   LIG    1        1.535  -1.039   3.296  0.00  0.00    +0.180 C 
ATOM     20  C   LIG    1        1.418  -0.314   1.954  0.00  0.00    +0.030 C 
BRANCH  18  21
ATOM     21  C   LIG    1        0.527  -1.271   5.485  0.00  0.00    +0.230 C 
BRANCH  21  22
ATOM     22  C   LIG    1       -0.542  -0.709   6.386  0.00  0.00    -0.030 A 
ATOM     23  C   LIG    1       -0.319   0.450   7.114  0.00  0.00    -0.010 A 
ATOM     24  C   LIG    1       -1.325   0.939   7.927  0.00  0.00    +0.260 A 
ATOM     25  N   LIG    1       -2.480   0.310   8.022  0.00  0.00    -0.490 NA
ATOM     26  C   LIG    1       -2.725  -0.797   7.349  0.00  0.00    +0.260 A 
ATOM     27  C   LIG    1       -1.769  -1.341   6.512  0.00  0.00    -0.040 A 
ENDBRANCH  21  22
ENDBRANCH  18  21
ENDBRANCH   2  15
TORSDOF 4
