REMARK  Name = ZINCpk00000kFu1N.0
REMARK                            x       y       z     vdW  Elec       q    Type
REMARK                         _______ _______ _______ _____ _____    ______ ____
ROOT
ATOM      1  C   LIG    1       -4.048  -0.730   0.142  0.00  0.00    +0.250 C 
ATOM      2  C   LIG    1       -4.604  -0.725   1.567  0.00  0.00    +0.030 C 
ENDROOT
BRANCH   1   3
ATOM      3  N   LIG    1       -2.722  -0.108   0.132  0.00  0.00    -0.720 N 
ATOM      4  H   LIG    1       -1.927  -0.660   0.197  0.00  0.00    +0.400 HD
ATOM      5  C   LIG    1       -2.607   1.231   0.034  0.00  0.00    +0.590 C 
ATOM      6  O   LIG    1       -3.603   1.923  -0.047  0.00  0.00    -0.550 OA
BRANCH   5   7
ATOM      7  C   LIG    1       -1.272   1.857   0.025  0.00  0.00    -0.330 A 
ATOM      8  C   LIG    1       -0.112   1.079  -0.004  0.00  0.00    +0.390 A 
ATOM      9  N   LIG    1        1.065   1.682  -0.017  0.00  0.00    -0.570 NA
ATOM     10  C   LIG    1        1.159   2.998   0.001  0.00  0.00    +0.570 A 
ATOM     11  N   LIG    1        0.098   3.777   0.033  0.00  0.00    -0.580 NA
ATOM     12  C   LIG    1       -1.127   3.261   0.049  0.00  0.00    +0.490 A 
BRANCH  12  13
ATOM     13  N   LIG    1       -2.235   4.080   0.083  0.00  0.00    -0.810 N 
ATOM     14  H   LIG    1       -3.124   3.698   0.016  0.00  0.00    +0.430 HD
ATOM     15  H   LIG    1       -2.126   5.040   0.173  0.00  0.00    +0.410 HD
ENDBRANCH  12  13
ENDBRANCH   5   7
ENDBRANCH   1   3
BRANCH   1  16
ATOM     16  C   LIG    1       -3.939  -2.172  -0.358  0.00  0.00    +0.030 C 
BRANCH  16  17
ATOM     17  C   LIG    1       -3.502  -2.172  -1.824  0.00  0.00    +0.260 C 
BRANCH  17  19
ATOM     18  C   LIG    1       -3.024  -3.800  -3.574  0.00  0.00    +0.560 C 
ATOM     19  N   LIG    1       -3.397  -3.553  -2.302  0.00  0.00    -0.730 N 
ATOM     20  H   LIG    1       -3.595  -4.290  -1.703  0.00  0.00    +0.400 HD
ATOM     21  O   LIG    1       -2.776  -2.876  -4.324  0.00  0.00    -0.530 OA
BRANCH  18  25
ATOM     22  C   LIG    1       -2.020  -7.032  -7.239  0.00  0.00    +0.110 C 
ATOM     23  C   LIG    1       -2.436  -6.751  -5.817  0.00  0.00    -0.120 A 
ATOM     24  C   LIG    1       -2.538  -5.450  -5.375  0.00  0.00    +0.120 A 
ATOM     25  C   LIG    1       -2.918  -5.192  -4.056  0.00  0.00    -0.140 A 
ATOM     26  C   LIG    1       -3.204  -6.255  -3.196  0.00  0.00    +0.080 A 
ATOM     27  C   LIG    1       -3.104  -7.552  -3.651  0.00  0.00    -0.020 A 
ATOM     28  C   LIG    1       -2.721  -7.803  -4.959  0.00  0.00    +0.120 A 
ATOM     29  F   LIG    1       -2.625  -9.076  -5.400  0.00  0.00    -0.130 F 
ENDBRANCH  18  25
ENDBRANCH  17  19
ENDBRANCH  16  17
ENDBRANCH   1  16
TORSDOF 7
