REMARK  Name = ZINCpk00000y6vfh.0
REMARK                            x       y       z     vdW  Elec       q    Type
REMARK                         _______ _______ _______ _____ _____    ______ ____
ROOT
ATOM      1  C   LIG    1        1.270   2.218  -1.463  0.00  0.00    +0.600 C 
ATOM      2  N   LIG    1        0.740   2.060  -0.234  0.00  0.00    -0.590 N 
ATOM      3  C   LIG    1       -0.570   1.459  -0.116  0.00  0.00    +0.280 C 
ATOM      4  C   LIG    1       -0.427  -0.078   0.004  0.00  0.00    +0.030 C 
ATOM      5  C   LIG    1        0.128  -0.439   1.317  0.00  0.00    +0.020 C 
ATOM      6  C   LIG    1        1.535   0.092   1.572  0.00  0.00    +0.250 C 
ATOM      7  C   LIG    1        1.450   1.502   2.100  0.00  0.00    +0.020 C 
ATOM      8  C   LIG    1        1.520   2.508   0.936  0.00  0.00    +0.290 C 
ATOM      9  O   LIG    1        2.396   2.660  -1.587  0.00  0.00    -0.510 OA
ENDROOT
BRANCH   1  13
ATOM     10  C   LIG    1       -0.260   1.529  -4.693  0.00  0.00    +0.210 A 
ATOM     11  N   LIG    1       -1.112   1.082  -3.811  0.00  0.00    -0.390 NA
ATOM     12  O   LIG    1       -0.719   1.251  -2.680  0.00  0.00    +0.120 OA
ATOM     13  C   LIG    1        0.485   1.853  -2.657  0.00  0.00    -0.060 A 
ATOM     14  C   LIG    1        0.832   2.064  -3.962  0.00  0.00    +0.040 A 
BRANCH  10  16
ATOM     15  C   LIG    1       -1.591   0.908  -6.561  0.00  0.00    +0.260 C 
ATOM     16  O   LIG    1       -0.395   1.494  -6.043  0.00  0.00    -0.280 OA
ENDBRANCH  10  16
ENDBRANCH   1  13
BRANCH   6  17
ATOM     17  N   LIG    1        2.208  -0.760   2.557  0.00  0.00    -0.990 NA
BRANCH  17  18
ATOM     18  S   LIG    1        3.594  -1.566   2.144  0.00  0.00    +2.600 S 
ATOM     19  O   LIG    1        3.545  -1.645   0.727  0.00  0.00    -0.950 OA
ATOM     20  O   LIG    1        3.568  -2.740   2.945  0.00  0.00    -0.950 OA
ATOM     21  C   LIG    1        4.934  -0.464   2.674  0.00  0.00    -0.290 C 
ENDBRANCH  17  18
BRANCH  17  22
ATOM     22  C   LIG    1        1.654  -0.897   3.906  0.00  0.00    +0.250 C 
ATOM     23  C   LIG    1        2.723  -1.087   4.994  0.00  0.00    -0.010 C 
ATOM     24  C   LIG    1        1.773  -2.115   5.636  0.00  0.00    +0.030 C 
ATOM     25  C   LIG    1        1.177  -2.322   4.233  0.00  0.00    +0.020 C 
ENDBRANCH  17  22
ENDBRANCH   6  17
TORSDOF 5
