REMARK  Name = ZINCpe000000TAH6.0
REMARK                            x       y       z     vdW  Elec       q    Type
REMARK                         _______ _______ _______ _____ _____    ______ ____
ROOT
ATOM      1  N   LIG    1       -0.016   1.343   0.009  0.00  0.00    -0.560 N 
ATOM      2  C   LIG    1        1.220   1.854   0.000  0.00  0.00    +0.710 C 
ATOM      3  N   LIG    1        2.170   0.901  -0.014  0.00  0.00    -0.710 N 
ATOM      4  H   LIG    1        3.130   1.039  -0.022  0.00  0.00    +0.440 HD
ATOM      5  C   LIG    1        1.467  -0.394  -0.014  0.00  0.00    +0.180 C 
ATOM      6  O   LIG    1        1.460   3.045   0.005  0.00  0.00    -0.530 OA
ATOM      7  C   LIG    1        0.002  -0.004   0.002  0.00  0.00    +0.540 C 
ATOM      8  O   LIG    1       -0.954  -0.749   0.008  0.00  0.00    -0.450 OA
ENDROOT
BRANCH   5   9
ATOM      9  C   LIG    1        1.818  -1.188   1.218  0.00  0.00    -0.120 A 
ATOM     10  C   LIG    1        1.711  -2.566   1.205  0.00  0.00    +0.080 A 
ATOM     11  C   LIG    1        2.037  -3.296   2.332  0.00  0.00    -0.010 A 
ATOM     12  C   LIG    1        2.461  -2.645   3.479  0.00  0.00    +0.110 A 
ATOM     13  C   LIG    1        2.562  -1.264   3.492  0.00  0.00    -0.010 A 
ATOM     14  F   LIG    1        2.775  -3.357   4.583  0.00  0.00    -0.130 F 
ATOM     15  C   LIG    1        2.241  -0.537   2.362  0.00  0.00    +0.070 A 
ENDBRANCH   5   9
BRANCH   5  16
ATOM     16  C   LIG    1        1.798  -1.190  -1.278  0.00  0.00    +0.060 C 
ATOM     17  C   LIG    1        1.601  -0.300  -2.507  0.00  0.00    +0.020 C 
ENDBRANCH   5  16
BRANCH   1  18
ATOM     18  C   LIG    1       -1.239   2.150   0.020  0.00  0.00    +0.370 C 
BRANCH  18  24
ATOM     19  N   LIG    1       -4.231   4.115   3.229  0.00  0.00    -0.740 N 
ATOM     20  H   LIG    1       -4.760   4.466   2.496  0.00  0.00    +0.400 HD
ATOM     21  C   LIG    1       -3.126   3.387   2.974  0.00  0.00    +0.690 C 
ATOM     22  N   LIG    1       -2.757   3.147   1.700  0.00  0.00    -0.690 N 
ATOM     23  H   LIG    1       -3.287   3.498   0.967  0.00  0.00    +0.410 HD
ATOM     24  C   LIG    1       -1.652   2.419   1.444  0.00  0.00    +0.500 C 
ATOM     25  O   LIG    1       -0.990   1.980   2.360  0.00  0.00    -0.450 OA
ATOM     26  O   LIG    1       -2.462   2.947   3.892  0.00  0.00    -0.530 OA
BRANCH  19  28
ATOM     27  C   LIG    1       -5.909   5.219   4.625  0.00  0.00    +0.030 C 
ATOM     28  C   LIG    1       -4.632   4.377   4.614  0.00  0.00    +0.270 C 
ENDBRANCH  19  28
ENDBRANCH  18  24
ENDBRANCH   1  18
TORSDOF 5
