REMARK  Name = ZINCpe00000FUl7Z.2
REMARK                            x       y       z     vdW  Elec       q    Type
REMARK                         _______ _______ _______ _____ _____    ______ ____
ROOT
ATOM      1  C   LIG    1        1.873   6.051  -1.286  0.00  0.00    +0.500 C 
ATOM      2  O   LIG    1        2.793   5.274  -1.457  0.00  0.00    -0.550 OA
ENDROOT
BRANCH   1   3
ATOM      3  N   LIG    1        2.095   7.361  -1.323  0.00  0.00    -0.680 NA
ATOM      4  C   LIG    1        3.325   7.823  -1.547  0.00  0.00    +0.480 A 
ATOM      5  C   LIG    1        4.482   7.048  -1.762  0.00  0.00    -0.110 A 
ATOM      6  C   LIG    1        5.524   7.887  -1.950  0.00  0.00    +0.350 A 
ATOM      7  N   LIG    1        5.077   9.172  -1.864  0.00  0.00    -0.480 N 
ATOM      8  H   LIG    1        5.620   9.970  -1.961  0.00  0.00    +0.450 HD
ATOM      9  N   LIG    1        3.698   9.142  -1.617  0.00  0.00    -0.370 N 
BRANCH   9  10
ATOM     10  C   LIG    1        2.818  10.303  -1.460  0.00  0.00    +0.330 C 
ATOM     11  C   LIG    1        3.297  11.149  -0.279  0.00  0.00    +0.040 C 
BRANCH  10  12
ATOM     12  C   LIG    1        2.852  11.145  -2.737  0.00  0.00    -0.070 C 
ATOM     13  C   LIG    1        3.514  12.522  -2.659  0.00  0.00    +0.010 C 
ATOM     14  C   LIG    1        1.992  12.410  -2.772  0.00  0.00    +0.040 C 
ENDBRANCH  10  12
ENDBRANCH   9  10
ENDBRANCH   1   3
BRANCH   1  15
ATOM     15  C   LIG    1        0.483   5.528  -1.033  0.00  0.00    +0.220 C 
BRANCH  15  19
ATOM     16  N   LIG    1       -0.018   1.465   0.010  0.00  0.00    -0.530 NA
ATOM     17  C   LIG    1        1.347   2.010   0.000  0.00  0.00    +0.180 C 
ATOM     18  C   LIG    1        1.284   3.537   0.089  0.00  0.00    +0.190 C 
ATOM     19  N   LIG    1        0.503   4.059  -1.041  0.00  0.00    -0.530 NA
ATOM     20  C   LIG    1       -0.862   3.514  -1.031  0.00  0.00    +0.180 C 
ATOM     21  C   LIG    1       -0.799   1.987  -1.120  0.00  0.00    +0.140 C 
ATOM     22  C   LIG    1       -2.217   1.414  -1.069  0.00  0.00    +0.040 C 
BRANCH  16  23
ATOM     23  C   LIG    1        0.002  -0.004   0.002  0.00  0.00    +0.190 C 
BRANCH  23  24
ATOM     24  C   LIG    1        0.607  -0.513   1.312  0.00  0.00    +0.160 C 
BRANCH  24  26
ATOM     25  C   LIG    1        0.232  -0.583   3.678  0.00  0.00    +0.190 C 
ATOM     26  O   LIG    1       -0.244  -0.153   2.402  0.00  0.00    -0.370 OA
ENDBRANCH  24  26
ENDBRANCH  23  24
ENDBRANCH  16  23
ENDBRANCH  15  19
ENDBRANCH   1  15
TORSDOF 8
