REMARK  Name = ZINCvU00000007FI.0
REMARK                            x       y       z     vdW  Elec       q    Type
REMARK                         _______ _______ _______ _____ _____    ______ ____
ROOT
ATOM      1  N   LIG    1        4.045   4.424  -0.323  0.00  0.00    -0.710 N 
ATOM      2  H   LIG    1        4.646   4.372   0.436  0.00  0.00    +0.400 HD
ATOM      3  C   LIG    1        3.688   3.301  -0.978  0.00  0.00    +0.540 C 
ATOM      4  O   LIG    1        2.936   3.365  -1.927  0.00  0.00    -0.520 OA
ENDROOT
BRANCH   1   5
ATOM      5  C   LIG    1        3.525   5.722  -0.759  0.00  0.00    +0.250 C 
BRANCH   5   6
ATOM      6  C   LIG    1        2.175   5.959  -0.132  0.00  0.00    +0.510 C 
ATOM      7  O   LIG    1        1.695   5.125   0.606  0.00  0.00    -0.530 OA
ATOM      8  N   LIG    1        1.499   7.094  -0.396  0.00  0.00    -0.850 N 
ATOM      9  H   LIG    1        1.883   7.761  -0.987  0.00  0.00    +0.400 HD
ATOM     10  H   LIG    1        0.628   7.245   0.004  0.00  0.00    +0.400 HD
ENDBRANCH   5   6
BRANCH   5  12
ATOM     11  C   LIG    1        5.859   6.588  -0.963  0.00  0.00    +0.060 C 
ATOM     12  C   LIG    1        4.489   6.829  -0.327  0.00  0.00    +0.040 C 
BRANCH  12  13
ATOM     13  C   LIG    1        3.954   8.164  -0.775  0.00  0.00    -0.090 A 
ATOM     14  C   LIG    1        3.751   8.411  -2.120  0.00  0.00    +0.000 A 
ATOM     15  C   LIG    1        3.256   9.635  -2.531  0.00  0.00    +0.010 A 
ATOM     16  C   LIG    1        2.973  10.615  -1.598  0.00  0.00    +0.010 A 
ATOM     17  C   LIG    1        3.181  10.370  -0.253  0.00  0.00    +0.010 A 
ATOM     18  C   LIG    1        3.672   9.144   0.158  0.00  0.00    +0.010 A 
ENDBRANCH  12  13
ENDBRANCH   5  12
ENDBRANCH   1   5
BRANCH   3  19
ATOM     19  C   LIG    1        4.223   1.965  -0.529  0.00  0.00    +0.090 C 
BRANCH  19  20
ATOM     20  C   LIG    1        3.675   0.880  -1.421  0.00  0.00    -0.080 A 
ATOM     21  C   LIG    1        2.523   0.209  -1.064  0.00  0.00    +0.030 A 
ATOM     22  C   LIG    1        2.020  -0.787  -1.881  0.00  0.00    -0.010 A 
ATOM     23  C   LIG    1        2.668  -1.114  -3.058  0.00  0.00    +0.020 A 
ATOM     24  C   LIG    1        3.822  -0.446  -3.421  0.00  0.00    -0.010 A 
ATOM     25  C   LIG    1        4.327   0.558  -2.605  0.00  0.00    +0.190 A 
BRANCH  25  26
ATOM     26  N   LIG    1        5.490   1.239  -2.972  0.00  0.00    -0.700 N 
ATOM     27  H   LIG    1        5.542   1.682  -3.833  0.00  0.00    +0.410 HD
BRANCH  26  28
ATOM     28  C   LIG    1        6.580   1.283  -2.097  0.00  0.00    +0.200 A 
ATOM     29  C   LIG    1        7.071   0.110  -1.536  0.00  0.00    -0.060 A 
ATOM     30  C   LIG    1        8.153   0.156  -0.677  0.00  0.00    +0.060 A 
ATOM     31  C   LIG    1        8.739   1.369  -0.365  0.00  0.00    +0.020 A 
ATOM     32  C   LIG    1        8.249   2.539  -0.916  0.00  0.00    +0.060 A 
ATOM     33 CL   LIG    1        6.331  -1.413  -1.921  0.00  0.00    -0.040 Cl
ATOM     34  C   LIG    1        7.172   2.500  -1.781  0.00  0.00    -0.070 A 
ATOM     35 CL   LIG    1        6.559   3.970  -2.473  0.00  0.00    -0.040 Cl
ENDBRANCH  26  28
ENDBRANCH  25  26
ENDBRANCH  19  20
ENDBRANCH   3  19
TORSDOF 8
