REMARK  Name = ZINCrH000004n67y.0
REMARK                            x       y       z     vdW  Elec       q    Type
REMARK                         _______ _______ _______ _____ _____    ______ ____
ROOT
ATOM      1  C   LIG    1        0.009  -0.018  -0.020  0.00  0.00    +0.200 C 
ATOM      2  C   LIG    1       -0.014   1.514  -0.001  0.00  0.00    +0.260 C 
ATOM      3  N   LIG    1        1.375   2.000  -0.010  0.00  0.00    -0.620 N 
ATOM      4  C   LIG    1        2.311   1.436   0.976  0.00  0.00    +0.280 C 
ATOM      5  C   LIG    1        2.221  -0.093   0.909  0.00  0.00    +0.220 C 
ATOM      6  C   LIG    1        1.779   2.932  -0.896  0.00  0.00    +0.710 C 
ATOM      7  N   LIG    1        0.934   3.361  -1.854  0.00  0.00    -0.680 N 
ATOM      8  H   LIG    1        0.013   3.059  -1.860  0.00  0.00    +0.410 HD
ATOM      9  O   LIG    1        2.905   3.386  -0.830  0.00  0.00    -0.560 OA
ATOM     10  O   LIG    1        0.853  -0.489   1.033  0.00  0.00    -0.370 OA
ENDROOT
BRANCH   1  14
ATOM     11  C   LIG    1       -3.954  -1.512   0.549  0.00  0.00    +0.140 A 
ATOM     12  C   LIG    1       -3.410  -1.453  -0.726  0.00  0.00    -0.020 A 
ATOM     13  C   LIG    1       -2.128  -0.970  -0.907  0.00  0.00    +0.070 A 
ATOM     14  C   LIG    1       -1.388  -0.545   0.180  0.00  0.00    -0.130 A 
ATOM     15  C   LIG    1       -1.926  -0.609   1.453  0.00  0.00    +0.080 A 
ATOM     16  C   LIG    1       -3.208  -1.086   1.639  0.00  0.00    -0.080 A 
BRANCH  11  18
ATOM     17  C   LIG    1       -5.709  -2.020   2.070  0.00  0.00    +0.250 C 
ATOM     18  O   LIG    1       -5.214  -1.988   0.730  0.00  0.00    -0.320 OA
ENDBRANCH  11  18
ENDBRANCH   1  14
BRANCH   7  19
ATOM     19  C   LIG    1        1.387   4.243  -2.842  0.00  0.00    +0.150 A 
ATOM     20  C   LIG    1        2.690   4.155  -3.325  0.00  0.00    +0.080 A 
ATOM     21  C   LIG    1        3.092   5.050  -4.303  0.00  0.00    +0.050 A 
ATOM     22  C   LIG    1        2.193   5.994  -4.764  0.00  0.00    +0.010 A 
ATOM     23  N   LIG    1        0.965   6.051  -4.287  0.00  0.00    -0.420 NA
ATOM     24  C   LIG    1        0.541   5.216  -3.360  0.00  0.00    +0.250 A 
BRANCH  22  25
ATOM     25  C   LIG    1        2.623   6.971  -5.829  0.00  0.00    +0.530 C 
ATOM     26  F   LIG    1        3.995   7.217  -5.709  0.00  0.00    -0.170 F 
ATOM     27  F   LIG    1        1.919   8.170  -5.672  0.00  0.00    -0.160 F 
ATOM     28  F   LIG    1        2.354   6.433  -7.092  0.00  0.00    -0.170 F 
ENDBRANCH  22  25
ENDBRANCH   7  19
TORSDOF 4
