REMARK  Name = ZINCpk00000xI6pA.0
REMARK                            x       y       z     vdW  Elec       q    Type
REMARK                         _______ _______ _______ _____ _____    ______ ____
ROOT
ATOM      1  N   LIG    1        1.356   2.010  -0.000  0.00  0.00    -0.430 N 
ATOM      2  N   LIG    1        2.052   2.262   1.193  0.00  0.00    -0.220 NA
ATOM      3  C   LIG    1        3.305   2.469   1.225  0.00  0.00    +0.090 C 
ATOM      4  C   LIG    1        4.192   2.477   0.012  0.00  0.00    +0.270 C 
ATOM      5  N   LIG    1        3.373   2.496  -1.199  0.00  0.00    -0.440 N 
ATOM      6  C   LIG    1        3.717   2.720  -2.503  0.00  0.00    -0.160 A 
ATOM      7  C   LIG    1        4.937   3.010  -3.145  0.00  0.00    +0.600 A 
ATOM      8  N   LIG    1        4.891   3.170  -4.491  0.00  0.00    -0.550 N 
ATOM      9  C   LIG    1        3.752   3.061  -5.192  0.00  0.00    +0.710 A 
ATOM     10  N   LIG    1        2.556   2.784  -4.624  0.00  0.00    -0.510 N 
ATOM     11  C   LIG    1        1.337   2.674  -5.429  0.00  0.00    +0.350 C 
ATOM     12  O   LIG    1        3.798   3.218  -6.397  0.00  0.00    -0.530 OA
ATOM     13  O   LIG    1        5.980   3.114  -2.523  0.00  0.00    -0.510 OA
ATOM     14  C   LIG    1        2.531   2.609  -3.248  0.00  0.00    +0.340 A 
ATOM     15  N   LIG    1        1.548   2.334  -2.405  0.00  0.00    -0.510 NA
ATOM     16  C   LIG    1        5.067   1.221   0.013  0.00  0.00    +0.070 C 
ATOM     17  C   LIG    1        3.942   2.731   2.566  0.00  0.00    +0.170 C 
ATOM     18  C   LIG    1        2.020   2.265  -1.183  0.00  0.00    +0.500 A 
ENDROOT
BRANCH   1  19
ATOM     19  C   LIG    1       -0.018   1.503   0.010  0.00  0.00    +0.400 C 
BRANCH  19  21
ATOM     20  C   LIG    1       -0.631  -0.673   0.934  0.00  0.00    +0.040 C 
ATOM     21  C   LIG    1        0.002  -0.004   0.002  0.00  0.00    -0.080 C 
ENDBRANCH  19  21
ENDBRANCH   1  19
BRANCH   8  22
ATOM     22  C   LIG    1        6.132   3.473  -5.207  0.00  0.00    +0.350 C 
BRANCH  22  23
ATOM     23  C   LIG    1        6.318   4.967  -5.280  0.00  0.00    -0.080 C 
ATOM     24  C   LIG    1        7.423   5.512  -4.835  0.00  0.00    -0.020 C 
ATOM     25  C   LIG    1        7.609   7.006  -4.908  0.00  0.00    +0.070 C 
ENDBRANCH  22  23
ENDBRANCH   8  22
TORSDOF 4
