REMARK  Name = ZINCrg000000tbVk.0
REMARK                            x       y       z     vdW  Elec       q    Type
REMARK                         _______ _______ _______ _____ _____    ______ ____
ROOT
ATOM      1  O   LIG    1       -1.654  -7.134   0.688  0.00  0.00    -0.520 OA
ATOM      2  C   LIG    1       -1.721  -6.354   1.614  0.00  0.00    +0.500 C 
ATOM      3  N   LIG    1       -1.851  -5.034   1.376  0.00  0.00    -0.720 N 
ATOM      4  H   LIG    1       -1.905  -4.410   2.117  0.00  0.00    +0.400 HD
ENDROOT
BRANCH   3   5
ATOM      5  C   LIG    1       -1.913  -4.541  -0.002  0.00  0.00    +0.340 C 
BRANCH   5   6
ATOM      6  C   LIG    1       -2.058  -3.041   0.007  0.00  0.00    -0.040 A 
ATOM      7  C   LIG    1       -3.313  -2.450   0.023  0.00  0.00    -0.020 A 
ATOM      8  C   LIG    1       -3.412  -1.072   0.031  0.00  0.00    +0.310 A 
ATOM      9  N   LIG    1       -2.330  -0.317   0.029  0.00  0.00    -0.500 NA
ATOM     10  C   LIG    1       -1.116  -0.843   0.009  0.00  0.00    +0.370 A 
ATOM     11  C   LIG    1       -0.942  -2.221  -0.001  0.00  0.00    +0.000 A 
BRANCH  10  12
ATOM     12  N   LIG    1        0.002  -0.004   0.002  0.00  0.00    -0.330 N 
ATOM     13  C   LIG    1       -0.016   1.354   0.009  0.00  0.00    +0.260 A 
ATOM     14  C   LIG    1        1.267   1.781  -0.001  0.00  0.00    -0.100 A 
ATOM     15  C   LIG    1        2.097   0.654  -0.015  0.00  0.00    +0.270 A 
ATOM     16  N   LIG    1        1.342  -0.414  -0.013  0.00  0.00    -0.290 NA
ENDBRANCH  10  12
ENDBRANCH   5   6
ENDBRANCH   3   5
BRANCH   2  17
ATOM     17  C   LIG    1       -1.658  -6.861   3.032  0.00  0.00    +0.330 C 
BRANCH  17  18
ATOM     18  N   LIG    1       -1.517  -8.319   3.023  0.00  0.00    -0.580 N 
ATOM     19  C   LIG    1       -2.576  -9.172   3.035  0.00  0.00    +0.550 C 
ATOM     20  C   LIG    1       -2.022 -10.522   2.701  0.00  0.00    +0.000 C 
ATOM     21  C   LIG    1       -2.632 -11.762   3.317  0.00  0.00    +0.060 C 
ATOM     22  C   LIG    1       -1.805 -12.953   2.795  0.00  0.00    +0.020 C 
ATOM     23  C   LIG    1       -0.326 -12.813   3.139  0.00  0.00    +0.020 C 
ATOM     24  C   LIG    1        0.246 -11.471   2.691  0.00  0.00    +0.050 C 
ATOM     25  C   LIG    1       -0.598 -10.387   3.319  0.00  0.00    -0.010 C 
ATOM     26  O   LIG    1       -3.733  -8.895   3.268  0.00  0.00    -0.470 OA
ATOM     27  C   LIG    1       -0.312  -8.953   3.008  0.00  0.00    +0.550 C 
ATOM     28  O   LIG    1        0.771  -8.455   2.788  0.00  0.00    -0.460 OA
ENDBRANCH  17  18
ENDBRANCH   2  17
TORSDOF 5
