REMARK  Name = ZINCpe00000VT3vq.0
REMARK                            x       y       z     vdW  Elec       q    Type
REMARK                         _______ _______ _______ _____ _____    ______ ____
ROOT
ATOM      1  C   LIG    1        8.243   4.150  -6.982  0.00  0.00    +0.170 C 
ATOM      2  C   LIG    1        7.979   2.709  -7.334  0.00  0.00    +0.140 A 
ATOM      3  N   LIG    1        8.080   2.180  -8.521  0.00  0.00    -0.270 NA
ATOM      4  N   LIG    1        7.756   0.821  -8.453  0.00  0.00    -0.380 N 
ATOM      5  C   LIG    1        7.446   0.517  -7.174  0.00  0.00    +0.350 A 
ATOM      6  N   LIG    1        7.064  -0.641  -6.552  0.00  0.00    -0.610 N 
ATOM      7  H   LIG    1        6.974  -1.457  -7.069  0.00  0.00    +0.410 HD
ATOM      8  C   LIG    1        6.817  -0.659  -5.229  0.00  0.00    +0.560 A 
ATOM      9  O   LIG    1        6.483  -1.702  -4.693  0.00  0.00    -0.530 OA
ATOM     10  C   LIG    1        6.936   0.511  -4.457  0.00  0.00    -0.240 A 
ATOM     11  C   LIG    1        7.313   1.677  -5.045  0.00  0.00    +0.080 A 
ATOM     12  C   LIG    1        7.449   2.936  -4.226  0.00  0.00    +0.110 C 
ATOM     13  C   LIG    1        7.752  -0.116  -9.580  0.00  0.00    +0.360 C 
ATOM     14  C   LIG    1        7.577   1.694  -6.433  0.00  0.00    -0.260 A 
ENDROOT
BRANCH  10  15
ATOM     15  C   LIG    1        6.649   0.471  -2.978  0.00  0.00    +0.140 C 
BRANCH  15  16
ATOM     16  C   LIG    1        5.154   0.692  -2.742  0.00  0.00    +0.060 C 
BRANCH  16  17
ATOM     17  C   LIG    1        4.868   0.651  -1.263  0.00  0.00    +0.520 C 
ATOM     18  N   LIG    1        3.608   0.823  -0.815  0.00  0.00    -0.730 N 
ATOM     19  H   LIG    1        2.886   0.972  -1.445  0.00  0.00    +0.400 HD
ATOM     20  O   LIG    1        5.771   0.464  -0.475  0.00  0.00    -0.530 OA
BRANCH  18  21
ATOM     21  C   LIG    1        3.330   0.783   0.623  0.00  0.00    +0.370 C 
BRANCH  21  22
ATOM     22  C   LIG    1        1.857   1.001   0.856  0.00  0.00    +0.060 A 
ATOM     23  C   LIG    1        0.923   0.034   1.011  0.00  0.00    -0.100 A 
ATOM     24  C   LIG    1       -0.315   0.658   1.198  0.00  0.00    +0.240 A 
ATOM     25  N   LIG    1       -0.129   1.953   1.166  0.00  0.00    -0.290 NA
ATOM     26  N   LIG    1        1.234   2.194   0.947  0.00  0.00    -0.370 N 
ATOM     27  C   LIG    1        1.870   3.509   0.837  0.00  0.00    +0.360 C 
ENDBRANCH  21  22
ENDBRANCH  18  21
ENDBRANCH  16  17
ENDBRANCH  15  16
ENDBRANCH  10  15
TORSDOF 5
