REMARK  Name = ZINCrD000000Aqj3.0
REMARK                            x       y       z     vdW  Elec       q    Type
REMARK                         _______ _______ _______ _____ _____    ______ ____
ROOT
ATOM      1  O   LIG    1       -3.127   6.342  -2.454  0.00  0.00    -0.440 OA
ATOM      2  C   LIG    1       -3.484   6.102  -1.320  0.00  0.00    +0.510 C 
ATOM      3  N   LIG    1       -4.793   6.145  -1.003  0.00  0.00    -0.640 N 
ATOM      4  H   LIG    1       -5.079   5.953  -0.096  0.00  0.00    +0.410 HD
ENDROOT
BRANCH   3   5
ATOM      5  C   LIG    1       -5.733   6.463  -1.975  0.00  0.00    +0.440 A 
ATOM      6  N   LIG    1       -5.474   6.747  -3.229  0.00  0.00    -0.470 NA
ATOM      7  C   LIG    1       -6.625   7.001  -3.873  0.00  0.00    +0.170 A 
ATOM      8  C   LIG    1       -7.636   6.881  -2.994  0.00  0.00    +0.120 A 
ATOM      9  N   LIG    1       -7.078   6.540  -1.785  0.00  0.00    -0.470 N 
BRANCH   9  10
ATOM     10  C   LIG    1       -7.796   6.304  -0.530  0.00  0.00    +0.350 C 
BRANCH  10  11
ATOM     11  C   LIG    1       -7.810   7.570   0.286  0.00  0.00    -0.070 A 
ATOM     12  C   LIG    1       -6.800   7.839   1.197  0.00  0.00    -0.030 A 
ATOM     13  C   LIG    1       -6.843   9.013   1.925  0.00  0.00    +0.270 A 
ATOM     14  N   LIG    1       -7.836   9.867   1.767  0.00  0.00    -0.480 NA
ATOM     15  C   LIG    1       -8.816   9.642   0.915  0.00  0.00    +0.270 A 
ATOM     16  C   LIG    1       -8.836   8.492   0.148  0.00  0.00    -0.010 A 
ENDBRANCH  10  11
ENDBRANCH   9  10
ENDBRANCH   3   5
BRANCH   2  17
ATOM     17  C   LIG    1       -2.464   5.756  -0.266  0.00  0.00    +0.230 C 
BRANCH  17  18
ATOM     18  O   LIG    1       -1.157   5.776  -0.844  0.00  0.00    -0.350 OA
BRANCH  18  19
ATOM     19  C   LIG    1       -0.111   5.446   0.073  0.00  0.00    +0.200 C 
ATOM     20  C   LIG    1        0.355   6.715   0.783  0.00  0.00    +0.010 C 
ATOM     21  C   LIG    1        1.612   6.381   1.595  0.00  0.00    +0.020 C 
ATOM     22  C   LIG    1        2.759   6.118   0.622  0.00  0.00    +0.080 C 
ATOM     23  C   LIG    1        2.347   5.116  -0.424  0.00  0.00    -0.060 A 
ATOM     24  C   LIG    1        3.351   4.488  -1.150  0.00  0.00    -0.010 A 
ATOM     25  C   LIG    1        3.038   3.565  -2.127  0.00  0.00    +0.010 A 
ATOM     26  C   LIG    1        1.714   3.266  -2.390  0.00  0.00    -0.010 A 
ATOM     27  C   LIG    1        0.715   3.884  -1.666  0.00  0.00    +0.030 A 
ATOM     28  C   LIG    1        1.028   4.812  -0.680  0.00  0.00    -0.090 A 
ENDBRANCH  18  19
ENDBRANCH  17  18
ENDBRANCH   2  17
TORSDOF 6
