REMARK  Name = ZINCrD000003UpdH.0
REMARK                            x       y       z     vdW  Elec       q    Type
REMARK                         _______ _______ _______ _____ _____    ______ ____
ROOT
ATOM      1  C   LIG    1       -6.244   3.132  -1.086  0.00  0.00    +0.230 C 
ATOM      2  C   LIG    1       -7.353   4.096  -1.420  0.00  0.00    -0.080 A 
ATOM      3  C   LIG    1       -7.054   5.199  -2.206  0.00  0.00    +0.010 A 
ATOM      4  C   LIG    1       -8.040   6.106  -2.540  0.00  0.00    +0.000 A 
ATOM      5  C   LIG    1       -9.332   5.915  -2.090  0.00  0.00    +0.000 A 
ATOM      6  C   LIG    1       -9.632   4.817  -1.306  0.00  0.00    +0.000 A 
ATOM      7  C   LIG    1       -8.642   3.907  -0.969  0.00  0.00    -0.050 A 
ATOM      8  C   LIG    1       -9.014   2.727  -0.108  0.00  0.00    +0.050 C 
ATOM      9  C   LIG    1       -7.928   1.655  -0.196  0.00  0.00    +0.250 C 
ATOM     10  N   LIG    1       -6.624   2.289   0.052  0.00  0.00    -0.460 N 
ENDROOT
BRANCH  10  11
ATOM     11  C   LIG    1       -6.644   3.022   1.227  0.00  0.00    +0.480 A 
ATOM     12  N   LIG    1       -7.054   4.281   1.197  0.00  0.00    -0.520 NA
ATOM     13  C   LIG    1       -7.090   5.006   2.303  0.00  0.00    +0.330 A 
ATOM     14  C   LIG    1       -6.682   4.437   3.499  0.00  0.00    -0.090 A 
ATOM     15  C   LIG    1       -6.253   3.119   3.493  0.00  0.00    +0.330 A 
ATOM     16  N   LIG    1       -6.247   2.448   2.353  0.00  0.00    -0.500 NA
ENDBRANCH  10  11
BRANCH   1  17
ATOM     17  C   LIG    1       -4.981   3.920  -0.732  0.00  0.00    +0.280 C 
BRANCH  17  19
ATOM     18  C   LIG    1       -2.724   3.463   0.065  0.00  0.00    +0.560 C 
ATOM     19  N   LIG    1       -3.933   2.992  -0.298  0.00  0.00    -0.720 N 
ATOM     20  H   LIG    1       -4.110   2.038  -0.273  0.00  0.00    +0.410 HD
ATOM     21  O   LIG    1       -2.503   4.658   0.033  0.00  0.00    -0.530 OA
BRANCH  18  28
ATOM     22  C   LIG    1       -0.228   4.504   1.094  0.00  0.00    +0.110 C 
ATOM     23  C   LIG    1       -0.458   3.018   1.000  0.00  0.00    -0.020 A 
ATOM     24  C   LIG    1        0.524   2.139   1.407  0.00  0.00    +0.000 A 
ATOM     25  C   LIG    1        0.314   0.774   1.322  0.00  0.00    +0.040 A 
ATOM     26  C   LIG    1       -0.881   0.281   0.830  0.00  0.00    +0.000 A 
ATOM     27  C   LIG    1       -1.870   1.149   0.415  0.00  0.00    +0.050 A 
ATOM     28  C   LIG    1       -1.667   2.527   0.503  0.00  0.00    -0.140 A 
ENDBRANCH  18  28
ENDBRANCH  17  19
ENDBRANCH   1  17
TORSDOF 4
