REMARK  Name = ZINCtV00000kp4w5.0
REMARK                            x       y       z     vdW  Elec       q    Type
REMARK                         _______ _______ _______ _____ _____    ______ ____
ROOT
ATOM      1  C   LIG    1        2.408   4.040  -0.404  0.00  0.00    +0.220 A 
ATOM      2  N   LIG    1        2.545   5.283  -0.019  0.00  0.00    -0.370 NA
ATOM      3  O   LIG    1        3.713   5.606  -0.043  0.00  0.00    +0.090 OA
ATOM      4  C   LIG    1        4.465   4.574  -0.457  0.00  0.00    +0.240 A 
ATOM      5  N   LIG    1        3.640   3.567  -0.684  0.00  0.00    -0.470 NA
ENDROOT
BRANCH   1  10
ATOM      6  C   LIG    1       -1.257   3.195  -0.276  0.00  0.00    +0.120 A 
ATOM      7  C   LIG    1       -1.244   1.876  -0.707  0.00  0.00    -0.040 A 
ATOM      8  C   LIG    1       -0.049   1.262  -1.028  0.00  0.00    +0.060 A 
ATOM      9  C   LIG    1        1.138   1.960  -0.933  0.00  0.00    +0.040 A 
ATOM     10  C   LIG    1        1.133   3.287  -0.506  0.00  0.00    +0.010 A 
ATOM     11  C   LIG    1       -0.070   3.904  -0.177  0.00  0.00    +0.030 A 
BRANCH   6  12
ATOM     12  O   LIG    1       -2.434   3.794   0.044  0.00  0.00    -0.250 OA
BRANCH  12  18
ATOM     13  F   LIG    1       -5.621   0.866   1.994  0.00  0.00    -0.130 F 
ATOM     14  C   LIG    1       -5.181   1.578   0.934  0.00  0.00    +0.120 A 
ATOM     15  C   LIG    1       -5.890   1.558  -0.256  0.00  0.00    -0.010 A 
ATOM     16  C   LIG    1       -5.442   2.286  -1.342  0.00  0.00    +0.070 A 
ATOM     17  C   LIG    1       -4.288   3.039  -1.242  0.00  0.00    +0.010 A 
ATOM     18  C   LIG    1       -3.572   3.058  -0.054  0.00  0.00    +0.110 A 
ATOM     19  C   LIG    1       -4.022   2.327   1.036  0.00  0.00    -0.010 A 
ENDBRANCH  12  18
ENDBRANCH   6  12
ENDBRANCH   1  10
BRANCH   4  20
ATOM     20  C   LIG    1        5.932   4.564  -0.621  0.00  0.00    -0.050 A 
ATOM     21  C   LIG    1        6.579   3.405  -1.058  0.00  0.00    +0.100 A 
ATOM     22  C   LIG    1        7.947   3.401  -1.217  0.00  0.00    +0.000 A 
ATOM     23  C   LIG    1        8.686   4.545  -0.929  0.00  0.00    -0.060 A 
ATOM     24  C   LIG    1        8.044   5.699  -0.487  0.00  0.00    +0.030 A 
ATOM     25  C   LIG    1        6.676   5.711  -0.333  0.00  0.00    +0.090 A 
BRANCH  23  26
ATOM     26  S   LIG    1       10.437   4.533  -1.125  0.00  0.00    -0.040 S 
BRANCH  26  27
ATOM     27  C   LIG    1       10.771   2.847  -1.705  0.00  0.00    -0.050 C 
ATOM     28  C   LIG    1       11.617   1.944  -0.804  0.00  0.00    +0.060 C 
ATOM     29  C   LIG    1       12.210   2.507  -2.098  0.00  0.00    +0.070 C 
ENDBRANCH  26  27
ENDBRANCH  23  26
ENDBRANCH   4  20
TORSDOF 6
