REMARK  Name = ZINCvU0000000Jma.0
REMARK                            x       y       z     vdW  Elec       q    Type
REMARK                         _______ _______ _______ _____ _____    ______ ____
ROOT
ATOM      1  C   LIG    1        1.218   3.374   8.976  0.00  0.00    -0.060 A 
ATOM      2  C   LIG    1        1.371   4.746   9.125  0.00  0.00    -0.070 A 
ATOM      3  C   LIG    1        1.360   5.304  10.413  0.00  0.00    +0.210 A 
ATOM      4  N   LIG    1        1.208   4.572  11.496  0.00  0.00    -0.440 NA
ATOM      5  C   LIG    1        1.055   3.248  11.446  0.00  0.00    +0.130 A 
ATOM      6  C   LIG    1        0.894   2.491  12.621  0.00  0.00    +0.060 A 
ATOM      7  C   LIG    1        0.722   1.143  12.537  0.00  0.00    +0.040 A 
ATOM      8  C   LIG    1        0.719   0.493  11.305  0.00  0.00    +0.030 A 
ATOM      9  C   LIG    1        0.878   1.194  10.146  0.00  0.00    +0.030 A 
ATOM     10  C   LIG    1        1.548   5.627   7.916  0.00  0.00    +0.120 C 
ATOM     11  C   LIG    1        1.045   2.582  10.194  0.00  0.00    -0.060 A 
ENDROOT
BRANCH   3  12
ATOM     12  C   LIG    1        1.524   6.771  10.558  0.00  0.00    -0.050 A 
ATOM     13  C   LIG    1        2.368   7.286  11.540  0.00  0.00    +0.050 A 
ATOM     14  C   LIG    1        2.522   8.651  11.667  0.00  0.00    +0.010 A 
ATOM     15  C   LIG    1        1.832   9.509  10.829  0.00  0.00    +0.030 A 
ATOM     16  C   LIG    1        0.989   9.003   9.856  0.00  0.00    +0.010 A 
ATOM     17  C   LIG    1        0.832   7.639   9.716  0.00  0.00    +0.030 A 
ENDBRANCH   3  12
BRANCH   1  18
ATOM     18  C   LIG    1        1.224   2.741   7.641  0.00  0.00    +0.520 C 
ATOM     19  O   LIG    1        2.269   2.357   7.155  0.00  0.00    -0.480 OA
BRANCH  18  20
ATOM     20  O   LIG    1        0.070   2.588   6.963  0.00  0.00    -0.330 OA
BRANCH  20  21
ATOM     21  C   LIG    1        0.151   1.958   5.657  0.00  0.00    +0.240 C 
BRANCH  21  22
ATOM     22  C   LIG    1       -1.228   1.874   5.054  0.00  0.00    +0.430 C 
ATOM     23  O   LIG    1       -2.184   2.304   5.664  0.00  0.00    -0.450 OA
BRANCH  22  27
ATOM     24  C   LIG    1       -0.328  -0.379   0.573  0.00  0.00    +0.130 C 
ATOM     25  C   LIG    1       -0.997   0.277   1.754  0.00  0.00    +0.010 A 
ATOM     26  C   LIG    1       -0.371   0.710   2.861  0.00  0.00    -0.010 A 
ATOM     27  C   LIG    1       -1.412   1.274   3.731  0.00  0.00    -0.270 A 
ATOM     28  C   LIG    1       -2.602   1.122   3.043  0.00  0.00    +0.120 A 
ATOM     29  C   LIG    1       -3.963   1.551   3.527  0.00  0.00    +0.150 C 
ATOM     30  N   LIG    1       -2.333   0.531   1.866  0.00  0.00    -0.440 N 
ATOM     31  C   LIG    1       -3.334   0.202   0.848  0.00  0.00    +0.320 C 
ENDBRANCH  22  27
ENDBRANCH  21  22
ENDBRANCH  20  21
ENDBRANCH  18  20
ENDBRANCH   1  18
TORSDOF 6
