REMARK  Name = ZINCvU00000007jv.0
REMARK                            x       y       z     vdW  Elec       q    Type
REMARK                         _______ _______ _______ _____ _____    ______ ____
ROOT
ATOM      1  N   LIG    1        0.002  -0.004   0.002  0.00  0.00    -0.620 N 
ATOM      2  H   LIG    1        0.849  -0.478  -0.009  0.00  0.00    +0.430 HD
ATOM      3  C   LIG    1       -0.016   1.344   0.009  0.00  0.00    +0.520 C 
ATOM      4  O   LIG    1       -1.075   1.936   0.018  0.00  0.00    -0.490 OA
ENDROOT
BRANCH   1   8
ATOM      5  C   LIG    1       -2.519  -2.514   0.012  0.00  0.00    +0.140 A 
ATOM      6  C   LIG    1       -3.516  -1.612   0.026  0.00  0.00    -0.120 A 
ATOM      7  S   LIG    1       -2.802  -0.001   0.028  0.00  0.00    +0.200 S 
ATOM      8  C   LIG    1       -1.192  -0.715   0.010  0.00  0.00    +0.280 A 
ATOM      9  N   LIG    1       -1.294  -2.008  -0.002  0.00  0.00    -0.500 NA
BRANCH   5  13
ATOM     10  C   LIG    1       -3.246  -6.706  -0.006  0.00  0.00    +0.140 A 
ATOM     11  C   LIG    1       -1.942  -6.229  -0.015  0.00  0.00    -0.020 A 
ATOM     12  C   LIG    1       -1.703  -4.870  -0.009  0.00  0.00    +0.090 A 
ATOM     13  C   LIG    1       -2.772  -3.976   0.005  0.00  0.00    -0.060 A 
ATOM     14  C   LIG    1       -4.080  -4.458   0.020  0.00  0.00    +0.070 A 
ATOM     15  C   LIG    1       -4.312  -5.818   0.009  0.00  0.00    -0.080 A 
BRANCH  10  16
ATOM     16  O   LIG    1       -3.478  -8.045  -0.012  0.00  0.00    -0.310 OA
BRANCH  16  17
ATOM     17  C   LIG    1       -4.843  -8.466  -0.002  0.00  0.00    +0.180 C 
BRANCH  17  19
ATOM     18  C   LIG    1       -6.366 -10.447   0.001  0.00  0.00    +0.040 C 
ATOM     19  C   LIG    1       -4.905  -9.995  -0.010  0.00  0.00    +0.020 C 
ENDBRANCH  17  19
ENDBRANCH  16  17
ENDBRANCH  10  16
ENDBRANCH   5  13
ENDBRANCH   1   8
BRANCH   3  20
ATOM     20  C   LIG    1        1.278   2.115   0.001  0.00  0.00    +0.200 C 
BRANCH  20  21
ATOM     21  C   LIG    1        0.983   3.592   0.012  0.00  0.00    -0.000 A 
ATOM     22  C   LIG    1        0.838   4.364   1.105  0.00  0.00    -0.020 A 
ATOM     23  O   LIG    1        0.584   5.617   0.680  0.00  0.00    -0.190 OA
ATOM     24  C   LIG    1        0.576   5.598  -0.664  0.00  0.00    +0.240 A 
ATOM     25  C   LIG    1        0.941   3.910   2.538  0.00  0.00    +0.190 C 
ATOM     26  N   LIG    1        0.824   4.374  -1.067  0.00  0.00    -0.460 NA
BRANCH  24  27
ATOM     27  C   LIG    1        0.335   6.763  -1.542  0.00  0.00    -0.020 A 
ATOM     28  C   LIG    1        0.359   6.612  -2.930  0.00  0.00    +0.070 A 
ATOM     29  C   LIG    1        0.128   7.702  -3.743  0.00  0.00    +0.010 A 
ATOM     30  C   LIG    1       -0.117   8.945  -3.187  0.00  0.00    +0.030 A 
ATOM     31  C   LIG    1       -0.136   9.103  -1.812  0.00  0.00    +0.010 A 
ATOM     32  C   LIG    1        0.088   8.020  -0.988  0.00  0.00    +0.040 A 
ENDBRANCH  24  27
ENDBRANCH  20  21
ENDBRANCH   3  20
TORSDOF 8
