REMARK  Name = ZINCpk00000xI5Ht.0
REMARK                            x       y       z     vdW  Elec       q    Type
REMARK                         _______ _______ _______ _____ _____    ______ ____
ROOT
ATOM      1  N   LIG    1       -3.616  -0.228   5.415  0.00  0.00    -0.730 N 
ATOM      2  H   LIG    1       -3.512  -1.106   5.016  0.00  0.00    +0.400 HD
ATOM      3  C   LIG    1       -3.196   0.867   4.751  0.00  0.00    +0.700 C 
ATOM      4  N   LIG    1       -2.632   0.742   3.534  0.00  0.00    -0.680 N 
ATOM      5  H   LIG    1       -2.589  -0.127   3.106  0.00  0.00    +0.410 HD
ATOM      6  O   LIG    1       -3.326   1.968   5.251  0.00  0.00    -0.560 OA
ENDROOT
BRANCH   4   7
ATOM      7  C   LIG    1       -2.107   1.867   2.886  0.00  0.00    +0.160 A 
ATOM      8  C   LIG    1       -2.136   1.949   1.501  0.00  0.00    +0.070 A 
ATOM      9  C   LIG    1       -1.618   3.060   0.864  0.00  0.00    +0.050 A 
ATOM     10  C   LIG    1       -1.070   4.091   1.607  0.00  0.00    +0.030 A 
ATOM     11  C   LIG    1       -1.040   4.012   2.988  0.00  0.00    -0.650 A 
ATOM     12 CL   LIG    1       -0.419   5.486   0.804  0.00  0.00    -0.040 Cl
ATOM     13  C   LIG    1       -1.552   2.901   3.629  0.00  0.00    +0.160 A 
BRANCH  11  14
ATOM     14  S   LIG    1       -0.341   5.327   3.930  0.00  0.00    +2.690 S 
ATOM     15  O   LIG    1       -0.887   6.530   3.406  0.00  0.00    -0.940 OA
ATOM     16  O   LIG    1       -0.458   4.950   5.295  0.00  0.00    -0.940 OA
BRANCH  14  17
ATOM     17  N   LIG    1        1.280   5.364   3.592  0.00  0.00    -1.000 NA
ATOM     18  C   LIG    1        2.187   4.421   4.251  0.00  0.00    +0.300 C 
ATOM     19  C   LIG    1        1.807   6.340   2.635  0.00  0.00    +0.290 C 
ENDBRANCH  14  17
ENDBRANCH  11  14
ENDBRANCH   4   7
BRANCH   1  20
ATOM     20  C   LIG    1       -4.229  -0.092   6.738  0.00  0.00    +0.280 C 
BRANCH  20  21
ATOM     21  C   LIG    1       -4.613  -1.475   7.267  0.00  0.00    +0.270 C 
BRANCH  21  23
ATOM     22  C   LIG    1       -5.646  -2.435   9.255  0.00  0.00    +0.520 C 
ATOM     23  N   LIG    1       -5.226  -1.339   8.591  0.00  0.00    -0.730 N 
ATOM     24  H   LIG    1       -5.330  -0.461   8.989  0.00  0.00    +0.400 HD
ATOM     25  O   LIG    1       -5.516  -3.533   8.756  0.00  0.00    -0.540 OA
BRANCH  22  27
ATOM     26  C   LIG    1       -7.530  -1.424  10.510  0.00  0.00    +0.040 C 
ATOM     27  C   LIG    1       -6.277  -2.295  10.616  0.00  0.00    -0.010 C 
ATOM     28  C   LIG    1       -6.661  -3.678  11.145  0.00  0.00    +0.050 C 
ENDBRANCH  22  27
ENDBRANCH  21  23
ENDBRANCH  20  21
ENDBRANCH   1  20
TORSDOF 7
