REMARK  Name = ZINCb70000002E4V.0
REMARK                            x       y       z     vdW  Elec       q    Type
REMARK                         _______ _______ _______ _____ _____    ______ ____
ROOT
ATOM      1  N   LIG    1        2.775   4.031  -0.102  0.00  0.00    -0.520 NA
ATOM      2  C   LIG    1        3.455   3.697   1.156  0.00  0.00    +0.170 C 
ATOM      3  C   LIG    1        3.536   2.176   1.306  0.00  0.00    +0.040 C 
ATOM      4  C   LIG    1        2.121   1.592   1.298  0.00  0.00    +0.010 C 
ATOM      5  C   LIG    1        1.417   1.994  -0.001  0.00  0.00    +0.000 C 
ATOM      6  C   LIG    1        1.398   3.521  -0.113  0.00  0.00    +0.190 C 
ENDROOT
BRANCH   1   7
ATOM      7  C   LIG    1        2.802   5.479  -0.348  0.00  0.00    +0.410 C 
BRANCH   7   9
ATOM      8  N   LIG    1        1.378   6.694   1.468  0.00  0.00    -0.410 NA
ATOM      9  C   LIG    1        1.998   6.165   0.677  0.00  0.00    +0.160 C 
ENDBRANCH   7   9
ENDBRANCH   1   7
BRANCH   5  10
ATOM     10  C   LIG    1       -0.018   1.465   0.010  0.00  0.00    +0.260 C 
BRANCH  10  11
ATOM     11  N   LIG    1        0.002  -0.004   0.002  0.00  0.00    -0.640 N 
ATOM     12  H   LIG    1        0.490  -0.338   0.820  0.00  0.00    +0.430 HD
ATOM     13  H   LIG    1        0.474  -0.330  -0.828  0.00  0.00    +0.440 HD
ATOM     14  H   LIG    1       -0.945  -0.353   0.009  0.00  0.00    +0.440 HD
ENDBRANCH  10  11
ENDBRANCH   5  10
TORSDOF 4
