REMARK  Name = ZINCtV000002wR0L.0
REMARK                            x       y       z     vdW  Elec       q    Type
REMARK                         _______ _______ _______ _____ _____    ______ ____
ROOT
ATOM      1  C   LIG    1        1.134   1.923   0.002  0.00  0.00    +0.130 A 
ATOM      2  N   LIG    1       -0.016   1.317   0.009  0.00  0.00    -0.460 NA
ATOM      3  C   LIG    1        0.002  -0.004   0.002  0.00  0.00    +0.120 A 
ATOM      4  C   LIG    1        1.228  -0.566  -0.013  0.00  0.00    -0.060 A 
ATOM      5  S   LIG    1        2.426   0.726  -0.017  0.00  0.00    +0.100 S 
ENDROOT
BRANCH   3   6
ATOM      6  C   LIG    1       -1.241  -0.814   0.010  0.00  0.00    -0.030 A 
ATOM      7  C   LIG    1       -1.167  -2.206  -0.004  0.00  0.00    +0.040 A 
ATOM      8  C   LIG    1       -2.325  -2.959   0.009  0.00  0.00    +0.030 A 
ATOM      9  C   LIG    1       -3.557  -2.338   0.024  0.00  0.00    -0.080 A 
ATOM     10  C   LIG    1       -4.964  -2.885   0.034  0.00  0.00    +0.160 C 
ATOM     11  C   LIG    1       -5.878  -1.684   0.048  0.00  0.00    -0.090 A 
ATOM     12  C   LIG    1       -7.252  -1.567   0.060  0.00  0.00    +0.030 A 
ATOM     13  C   LIG    1       -7.840  -0.315   0.071  0.00  0.00    +0.020 A 
ATOM     14  C   LIG    1       -7.052   0.822   0.070  0.00  0.00    +0.010 A 
ATOM     15  C   LIG    1       -5.677   0.714   0.058  0.00  0.00    +0.030 A 
ATOM     16  C   LIG    1       -5.076  -0.546   0.047  0.00  0.00    -0.060 A 
ATOM     17  C   LIG    1       -3.647  -0.947   0.032  0.00  0.00    -0.060 A 
ATOM     18  C   LIG    1       -2.481  -0.184   0.025  0.00  0.00    +0.070 A 
ENDBRANCH   3   6
BRANCH   1  22
ATOM     19  C   LIG    1        1.684   6.140   0.018  0.00  0.00    +0.130 A 
ATOM     20  C   LIG    1        0.404   5.608   0.028  0.00  0.00    -0.040 A 
ATOM     21  C   LIG    1        0.222   4.240   0.023  0.00  0.00    +0.080 A 
ATOM     22  C   LIG    1        1.328   3.389   0.008  0.00  0.00    -0.030 A 
ATOM     23  C   LIG    1        2.617   3.925   0.004  0.00  0.00    -0.010 A 
ATOM     24  C   LIG    1        2.793   5.296   0.004  0.00  0.00    +0.100 A 
BRANCH  24  25
ATOM     25  O   LIG    1        4.047   5.821  -0.005  0.00  0.00    -0.300 OA
ATOM     26  C   LIG    1        5.137   4.896  -0.020  0.00  0.00    +0.240 C 
ENDBRANCH  24  25
BRANCH  19  27
ATOM     27  O   LIG    1        1.859   7.488   0.024  0.00  0.00    -0.300 OA
BRANCH  27  29
ATOM     28  C   LIG    1        1.072   9.773   0.044  0.00  0.00    +0.070 C 
ATOM     29  C   LIG    1        0.679   8.295   0.040  0.00  0.00    +0.170 C 
ENDBRANCH  27  29
ENDBRANCH  19  27
ENDBRANCH   1  22
TORSDOF 5
