REMARK  Name = ZINCrg000000nKk3.0
REMARK                            x       y       z     vdW  Elec       q    Type
REMARK                         _______ _______ _______ _____ _____    ______ ____
ROOT
ATOM      1  C   LIG    1       -0.015   1.084   0.008  0.00  0.00    +0.240 C 
ENDROOT
BRANCH   1   2
ATOM      2  C   LIG    1       -0.742   1.664   1.194  0.00  0.00    +0.520 C 
ATOM      3  N   LIG    1       -0.495   1.193   2.433  0.00  0.00    -0.610 N 
ATOM      4  C   LIG    1        0.556   0.190   2.644  0.00  0.00    +0.270 C 
ATOM      5  C   LIG    1        1.558   0.732   3.683  0.00  0.00    +0.330 C 
ATOM      6  N   LIG    1        0.776   1.282   4.800  0.00  0.00    -0.630 N 
ATOM      7  C   LIG    1        0.867   0.979   6.095  0.00  0.00    +0.700 C 
ATOM      8  N   LIG    1       -0.116   1.503   6.843  0.00  0.00    -0.640 N 
ATOM      9  C   LIG    1       -0.979   2.336   5.990  0.00  0.00    +0.280 C 
ATOM     10  C   LIG    1       -0.300   1.282   8.279  0.00  0.00    +0.330 C 
ATOM     11  O   LIG    1        1.758   0.291   6.556  0.00  0.00    -0.580 OA
ATOM     12  C   LIG    1       -0.311   2.265   4.608  0.00  0.00    +0.200 C 
ATOM     13  C   LIG    1       -1.282   1.676   3.577  0.00  0.00    +0.300 C 
ATOM     14  O   LIG    1       -1.549   2.555   1.034  0.00  0.00    -0.530 OA
ENDBRANCH   1   2
BRANCH   1  15
ATOM     15  N   LIG    1       -0.827   1.263  -1.198  0.00  0.00    -0.720 N 
ATOM     16  H   LIG    1       -1.478   1.980  -1.242  0.00  0.00    +0.410 HD
ATOM     17  C   LIG    1       -0.668   0.432  -2.247  0.00  0.00    +0.520 C 
ATOM     18  O   LIG    1        0.147  -0.464  -2.192  0.00  0.00    -0.520 OA
BRANCH  17  19
ATOM     19  C   LIG    1       -1.502   0.617  -3.488  0.00  0.00    +0.110 C 
BRANCH  19  20
ATOM     20  C   LIG    1       -1.133  -0.434  -4.503  0.00  0.00    -0.070 A 
ATOM     21  C   LIG    1       -0.133  -0.183  -5.425  0.00  0.00    +0.020 A 
ATOM     22  C   LIG    1        0.209  -1.149  -6.353  0.00  0.00    +0.000 A 
ATOM     23  C   LIG    1       -0.455  -2.361  -6.366  0.00  0.00    +0.000 A 
ATOM     24  C   LIG    1       -1.458  -2.610  -5.447  0.00  0.00    +0.000 A 
ATOM     25  C   LIG    1       -1.797  -1.646  -4.516  0.00  0.00    +0.010 A 
ENDBRANCH  19  20
ENDBRANCH  17  19
ENDBRANCH   1  15
BRANCH   1  26
ATOM     26  C   LIG    1        1.326   1.799  -0.168  0.00  0.00    +0.010 C 
BRANCH  26  28
ATOM     27  C   LIG    1        3.466   1.834  -1.456  0.00  0.00    +0.010 C 
ATOM     28  C   LIG    1        2.125   1.118  -1.280  0.00  0.00    +0.020 C 
ENDBRANCH  26  28
ENDBRANCH   1  26
TORSDOF 6
