REMARK  Name = ZINCrH000004q0hh.0
REMARK                            x       y       z     vdW  Elec       q    Type
REMARK                         _______ _______ _______ _____ _____    ______ ____
ROOT
ATOM      1  C   LIG    1       -4.451   5.475   0.073  0.00  0.00    -0.260 A 
ATOM      2  C   LIG    1       -4.805   4.155   0.069  0.00  0.00    +0.120 A 
ATOM      3  C   LIG    1       -3.753   3.281   0.054  0.00  0.00    +0.010 A 
ATOM      4  C   LIG    1       -2.521   3.868   0.045  0.00  0.00    -0.120 A 
ATOM      5  S   LIG    1       -2.698   5.617   0.064  0.00  0.00    +0.170 S 
ENDROOT
BRANCH   4   6
ATOM      6  C   LIG    1       -1.234   3.144   0.030  0.00  0.00    -0.040 A 
ATOM      7  C   LIG    1       -1.216   1.748   0.017  0.00  0.00    +0.090 A 
ATOM      8  C   LIG    1       -0.013   1.076   0.008  0.00  0.00    +0.030 A 
ATOM      9  C   LIG    1        1.181   1.786   0.000  0.00  0.00    +0.110 A 
ATOM     10  C   LIG    1        1.168   3.175   0.007  0.00  0.00    -0.040 A 
ATOM     11  C   LIG    1       -0.031   3.854   0.022  0.00  0.00    +0.060 A 
BRANCH   9  12
ATOM     12  O   LIG    1        2.365   1.120  -0.015  0.00  0.00    -0.310 OA
BRANCH  12  13
ATOM     13  C   LIG    1        3.555   1.911  -0.022  0.00  0.00    +0.600 C 
ATOM     14  F   LIG    1        3.567   2.725  -1.160  0.00  0.00    -0.160 F 
ATOM     15  F   LIG    1        4.674   1.072  -0.037  0.00  0.00    -0.130 F 
ATOM     16  F   LIG    1        3.589   2.713   1.125  0.00  0.00    -0.160 F 
ENDBRANCH  12  13
ENDBRANCH   9  12
ENDBRANCH   4   6
BRANCH   1  19
ATOM     17  N   LIG    1       -4.923   7.865   0.092  0.00  0.00    -0.730 N 
ATOM     18  H   LIG    1       -3.968   8.030   0.083  0.00  0.00    +0.400 HD
ATOM     19  C   LIG    1       -5.388   6.600   0.089  0.00  0.00    +0.590 C 
ATOM     20  O   LIG    1       -6.588   6.392   0.100  0.00  0.00    -0.520 OA
BRANCH  17  21
ATOM     21  C   LIG    1       -5.861   8.990   0.108  0.00  0.00    +0.290 C 
BRANCH  21  23
ATOM     22  C   LIG    1       -4.264  10.435  -1.180  0.00  0.00    +0.050 C 
ATOM     23  C   LIG    1       -5.080  10.306   0.108  0.00  0.00    +0.140 C 
ATOM     24  C   LIG    1       -6.047  11.502   0.251  0.00  0.00    +0.070 C 
ATOM     25  C   LIG    1       -6.042  11.730   1.780  0.00  0.00    +0.060 C 
ATOM     26  C   LIG    1       -4.716  11.161   2.236  0.00  0.00    +0.520 C 
ATOM     27  O   LIG    1       -4.197  11.385   3.309  0.00  0.00    -0.530 OA
ATOM     28  N   LIG    1       -4.198  10.373   1.279  0.00  0.00    -0.730 N 
ATOM     29  H   LIG    1       -3.350   9.908   1.353  0.00  0.00    +0.410 HD
ENDBRANCH  21  23
ENDBRANCH  17  21
ENDBRANCH   1  19
TORSDOF 6
