REMARK  Name = ZINCb70000006lxC.0
REMARK                            x       y       z     vdW  Elec       q    Type
REMARK                         _______ _______ _______ _____ _____    ______ ____
ROOT
ATOM      1  C   LIG    1        0.314   5.780  -1.180  0.00  0.00    -0.040 C 
ATOM      2  C   LIG    1        1.610   4.980  -1.392  0.00  0.00    +0.080 C 
ATOM      3  C   LIG    1        1.384   4.393   0.011  0.00  0.00    +0.260 C 
ATOM      4  C   LIG    1        0.583   5.667   0.329  0.00  0.00    +0.060 C 
ENDROOT
BRANCH   3   5
ATOM      5  N   LIG    1        0.572   3.174   0.013  0.00  0.00    -0.370 N 
ATOM      6  C   LIG    1       -0.770   3.099   0.025  0.00  0.00    +0.450 A 
ATOM      7  N   LIG    1       -1.107   1.835   0.017  0.00  0.00    -0.530 NA
ATOM      8  C   LIG    1       -0.013   1.076   0.008  0.00  0.00    +0.430 A 
ATOM      9  N   LIG    1        1.041   1.850   0.002  0.00  0.00    -0.310 NA
ENDBRANCH   3   5
BRANCH   1  10
ATOM     10  C   LIG    1        0.385   7.214  -1.710  0.00  0.00    +0.280 C 
BRANCH  10  11
ATOM     11  N   LIG    1       -0.931   7.853  -1.570  0.00  0.00    -0.640 N 
ATOM     12  H   LIG    1       -1.196   7.867  -0.597  0.00  0.00    +0.440 HD
ATOM     13  H   LIG    1       -1.615   7.333  -2.098  0.00  0.00    +0.440 HD
ATOM     14  H   LIG    1       -0.884   8.799  -1.919  0.00  0.00    +0.440 HD
ENDBRANCH  10  11
ENDBRANCH   1  10
TORSDOF 3
