REMARK  Name = ZINCqH0000008prD.0
REMARK                            x       y       z     vdW  Elec       q    Type
REMARK                         _______ _______ _______ _____ _____    ______ ____
ROOT
ATOM      1  C   LIG    1        1.278   2.115   0.001  0.00  0.00    +0.010 C 
ATOM      2  C   LIG    1        0.979   3.616   0.014  0.00  0.00    +0.040 C 
ATOM      3  C   LIG    1        2.299   4.391   0.067  0.00  0.00    +0.050 C 
ATOM      4  C   LIG    1        3.088   3.962   1.306  0.00  0.00    +0.210 C 
ATOM      5  N   LIG    1        3.350   2.518   1.245  0.00  0.00    -0.440 N 
ATOM      6  C   LIG    1        2.098   1.751   1.242  0.00  0.00    +0.210 C 
ENDROOT
BRANCH   5   7
ATOM      7  C   LIG    1        4.171   2.120   2.280  0.00  0.00    +0.300 A 
ATOM      8  N   LIG    1        5.334   2.617   2.530  0.00  0.00    -0.490 NA
ATOM      9  C   LIG    1        6.018   2.123   3.581  0.00  0.00    +0.110 A 
ATOM     10  C   LIG    1        7.293   2.492   4.057  0.00  0.00    +0.070 A 
ATOM     11  C   LIG    1        7.833   1.869   5.154  0.00  0.00    +0.040 A 
ATOM     12  C   LIG    1        7.135   0.868   5.812  0.00  0.00    +0.030 A 
ATOM     13  C   LIG    1        5.888   0.490   5.365  0.00  0.00    +0.060 A 
ATOM     14  C   LIG    1        5.325   1.111   4.254  0.00  0.00    -0.180 A 
ATOM     15  S   LIG    1        3.776   0.869   3.450  0.00  0.00    +0.020 S 
ENDBRANCH   5   7
BRANCH   1  18
ATOM     16  N   LIG    1        0.002  -0.004   0.002  0.00  0.00    -0.730 N 
ATOM     17  H   LIG    1        0.849  -0.478  -0.009  0.00  0.00    +0.400 HD
ATOM     18  C   LIG    1       -0.016   1.344   0.009  0.00  0.00    +0.520 C 
ATOM     19  O   LIG    1       -1.075   1.936   0.018  0.00  0.00    -0.520 OA
BRANCH  16  21
ATOM     20  C   LIG    1       -1.745  -0.914   1.451  0.00  0.00    +0.040 C 
ATOM     21  C   LIG    1       -1.256  -0.754   0.010  0.00  0.00    +0.280 C 
BRANCH  21  22
ATOM     22  C   LIG    1       -1.035  -2.114  -0.600  0.00  0.00    -0.050 A 
ATOM     23  C   LIG    1        0.123  -2.830  -0.337  0.00  0.00    -0.040 A 
ATOM     24  C   LIG    1        0.289  -4.076  -0.910  0.00  0.00    +0.270 A 
ATOM     25  N   LIG    1       -0.633  -4.581  -1.706  0.00  0.00    -0.480 NA
ATOM     26  C   LIG    1       -1.744  -3.926  -1.983  0.00  0.00    +0.270 A 
ATOM     27  C   LIG    1       -1.982  -2.677  -1.442  0.00  0.00    -0.020 A 
ENDBRANCH  21  22
ENDBRANCH  16  21
ENDBRANCH   1  18
TORSDOF 4
