REMARK  Name = ZINCrH00000tj1lj.0
REMARK                            x       y       z     vdW  Elec       q    Type
REMARK                         _______ _______ _______ _____ _____    ______ ____
ROOT
ATOM      1  S   LIG    1       -5.020   2.872  -0.310  0.00  0.00    -0.580 S 
ATOM      2  C   LIG    1       -3.320   2.874  -0.109  0.00  0.00    +0.480 A 
ATOM      3  N   LIG    1       -2.538   3.963   0.041  0.00  0.00    -0.380 N 
ATOM      4  N   LIG    1       -1.216   3.517   0.179  0.00  0.00    -0.280 NA
ATOM      5  C   LIG    1       -1.220   2.215   0.103  0.00  0.00    +0.380 A 
ATOM      6  N   LIG    1       -2.521   1.789  -0.073  0.00  0.00    -0.490 N 
ENDROOT
BRANCH   5   7
ATOM      7  C   LIG    1       -0.032   1.341   0.197  0.00  0.00    -0.140 A 
ATOM      8  C   LIG    1       -0.023  -0.016   0.231  0.00  0.00    +0.310 A 
ATOM      9  N   LIG    1        1.261  -0.467   0.314  0.00  0.00    -0.580 N 
ATOM     10  H   LIG    1        1.520  -1.401   0.352  0.00  0.00    +0.420 HD
ATOM     11  C   LIG    1        2.139   0.596   0.336  0.00  0.00    +0.090 A 
ATOM     12  C   LIG    1        3.525   0.686   0.412  0.00  0.00    +0.000 A 
ATOM     13  C   LIG    1        4.135   1.921   0.414  0.00  0.00    +0.040 A 
ATOM     14  C   LIG    1        3.379   3.083   0.344  0.00  0.00    -0.010 A 
ATOM     15  C   LIG    1        2.006   3.016   0.269  0.00  0.00    +0.060 A 
ATOM     16  C   LIG    1        1.375   1.774   0.264  0.00  0.00    -0.070 A 
ENDBRANCH   5   7
BRANCH   3  17
ATOM     17  C   LIG    1       -2.988   5.357   0.062  0.00  0.00    +0.520 C 
BRANCH  17  18
ATOM     18  N   LIG    1       -2.957   5.861   1.442  0.00  0.00    -0.530 NA
ATOM     19  C   LIG    1       -1.781   5.327   2.177  0.00  0.00    +0.170 C 
ATOM     20  C   LIG    1       -1.614   6.325   3.350  0.00  0.00    +0.020 C 
ATOM     21  C   LIG    1       -1.964   7.684   2.701  0.00  0.00    +0.020 C 
ATOM     22  C   LIG    1       -2.813   7.332   1.466  0.00  0.00    +0.180 C 
ENDBRANCH  17  18
ENDBRANCH   3  17
BRANCH   6  23
ATOM     23  C   LIG    1       -2.960   0.397  -0.199  0.00  0.00    +0.340 C 
BRANCH  23  24
ATOM     24  C   LIG    1       -3.298  -0.159   1.186  0.00  0.00    +0.150 C 
ATOM     25  C   LIG    1       -3.696  -1.653   1.084  0.00  0.00    +0.030 C 
ATOM     26  C   LIG    1       -3.359  -2.146   2.517  0.00  0.00    +0.020 C 
ATOM     27  C   LIG    1       -2.123  -1.293   2.876  0.00  0.00    +0.190 C 
ATOM     28  O   LIG    1       -2.135  -0.137   2.030  0.00  0.00    -0.370 OA
ENDBRANCH  23  24
ENDBRANCH   6  23
TORSDOF 5
