REMARK  Name = ZINCpe00000MJMvr.0
REMARK                            x       y       z     vdW  Elec       q    Type
REMARK                         _______ _______ _______ _____ _____    ______ ____
ROOT
ATOM      1  C   LIG    1       -0.801   3.110   1.237  0.00  0.00    +0.130 C 
ATOM      2  C   LIG    1       -0.731   1.580   1.267  0.00  0.00    +0.010 C 
ATOM      3  C   LIG    1       -0.013   1.086   0.008  0.00  0.00    +0.030 C 
ATOM      4  C   LIG    1       -0.754   1.594  -1.231  0.00  0.00    +0.170 C 
ATOM      5  N   LIG    1       -0.793   3.061  -1.212  0.00  0.00    -0.520 NA
ATOM      6  C   LIG    1       -1.520   3.559  -0.037  0.00  0.00    +0.230 C 
ENDROOT
BRANCH   1   7
ATOM      7  O   LIG    1        0.522   3.648   1.253  0.00  0.00    -0.530 OA
ATOM      8  H   LIG    1        1.037   3.404   2.034  0.00  0.00    +0.370 HD
ENDBRANCH   1   7
BRANCH   5   9
ATOM      9  C   LIG    1       -1.375   3.588  -2.454  0.00  0.00    +0.320 C 
BRANCH   9  10
ATOM     10  C   LIG    1       -0.465   3.268  -3.611  0.00  0.00    +0.240 A 
ATOM     11  N   LIG    1       -0.520   2.187  -4.344  0.00  0.00    -0.310 NA
ATOM     12  N   LIG    1        0.501   2.293  -5.303  0.00  0.00    -0.330 N 
ATOM     13  C   LIG    1        1.117   3.469  -5.071  0.00  0.00    +0.480 A 
ATOM     14  N   LIG    1        0.523   4.044  -4.057  0.00  0.00    -0.520 NA
BRANCH  12  15
ATOM     15  C   LIG    1        0.815   1.362  -6.302  0.00  0.00    +0.150 A 
ATOM     16  C   LIG    1        0.023   0.236  -6.478  0.00  0.00    +0.030 A 
ATOM     17  C   LIG    1        0.333  -0.677  -7.467  0.00  0.00    +0.030 A 
ATOM     18  C   LIG    1        1.437  -0.476  -8.275  0.00  0.00    +0.010 A 
ATOM     19  C   LIG    1        2.231   0.642  -8.099  0.00  0.00    +0.050 A 
ATOM     20  C   LIG    1        1.924   1.562  -7.115  0.00  0.00    +0.000 A 
ENDBRANCH  12  15
ENDBRANCH   9  10
ENDBRANCH   5   9
BRANCH   1  21
ATOM     21  C   LIG    1       -1.571   3.610   2.461  0.00  0.00    +0.310 C 
BRANCH  21  22
ATOM     22  N   LIG    1       -0.882   3.179   3.680  0.00  0.00    -0.290 N 
ATOM     23  C   LIG    1       -0.467   3.987   4.683  0.00  0.00    +0.150 A 
ATOM     24  C   LIG    1        0.115   3.180   5.601  0.00  0.00    +0.140 A 
ATOM     25  N   LIG    1        0.028   1.934   5.121  0.00  0.00    -0.270 NA
ATOM     26  N   LIG    1       -0.573   1.967   3.984  0.00  0.00    -0.080 NA
ENDBRANCH  21  22
ENDBRANCH   1  21
TORSDOF 6
