REMARK  Name = ZINCqH0000003Sqp.0
REMARK                            x       y       z     vdW  Elec       q    Type
REMARK                         _______ _______ _______ _____ _____    ______ ____
ROOT
ATOM      1  N   LIG    1       -0.760   1.590  -1.147  0.00  0.00    -0.940 N 
ATOM      2  C   LIG    1       -0.013   1.086   0.008  0.00  0.00    +0.280 C 
ATOM      3  C   LIG    1       -0.773   1.602   1.240  0.00  0.00    +0.100 C 
ATOM      4  C   LIG    1       -1.935   2.386   0.666  0.00  0.00    -0.130 A 
ATOM      5  C   LIG    1       -2.954   3.075   1.290  0.00  0.00    +0.070 A 
ATOM      6  C   LIG    1       -3.922   3.729   0.529  0.00  0.00    -0.050 A 
ATOM      7  C   LIG    1       -3.852   3.680  -0.862  0.00  0.00    +0.090 A 
ATOM      8  C   LIG    1       -2.833   2.991  -1.479  0.00  0.00    +0.000 A 
ATOM      9  C   LIG    1       -1.861   2.335  -0.718  0.00  0.00    +0.170 A 
ENDROOT
BRANCH   6  10
ATOM     10  C   LIG    1       -5.019   4.472   1.196  0.00  0.00    +0.140 A 
ATOM     11  C   LIG    1       -5.131   4.542   2.533  0.00  0.00    -0.080 A 
ATOM     12  S   LIG    1       -6.552   5.510   2.919  0.00  0.00    +0.050 S 
ATOM     13  C   LIG    1       -6.875   5.728   1.202  0.00  0.00    +0.270 A 
ATOM     14  N   LIG    1       -5.966   5.112   0.511  0.00  0.00    -0.490 NA
BRANCH  13  15
ATOM     15  N   LIG    1       -7.935   6.444   0.672  0.00  0.00    -0.440 N 
ATOM     16  C   LIG    1       -8.729   5.611  -0.241  0.00  0.00    +0.210 C 
ATOM     17  C   LIG    1       -9.800   6.471  -0.917  0.00  0.00    +0.040 C 
ATOM     18  C   LIG    1      -10.702   7.090   0.154  0.00  0.00    +0.010 C 
ATOM     19  C   LIG    1       -9.844   7.913   1.120  0.00  0.00    +0.000 C 
ATOM     20  C   LIG    1      -10.729   8.486   2.228  0.00  0.00    +0.030 C 
ATOM     21  C   LIG    1       -8.772   7.011   1.737  0.00  0.00    +0.200 C 
ENDBRANCH  13  15
ENDBRANCH   6  10
BRANCH   1  22
ATOM     22  S   LIG    1       -0.358   1.317  -2.730  0.00  0.00    +2.610 S 
ATOM     23  O   LIG    1        1.046   1.098  -2.702  0.00  0.00    -0.940 OA
ATOM     24  O   LIG    1       -0.913   2.422  -3.429  0.00  0.00    -0.930 OA
BRANCH  22  26
ATOM     25  C   LIG    1       -0.937  -0.576  -4.618  0.00  0.00    +0.090 C 
ATOM     26  C   LIG    1       -1.232  -0.213  -3.161  0.00  0.00    -0.360 C 
ENDBRANCH  22  26
ENDBRANCH   1  22
TORSDOF 4
