REMARK  Name = ZINCpe000000UCp7.0
REMARK                            x       y       z     vdW  Elec       q    Type
REMARK                         _______ _______ _______ _____ _____    ______ ____
ROOT
ATOM      1  C   LIG    1       -3.053   1.362  -3.378  0.00  0.00    +0.210 C 
ENDROOT
BRANCH   1   2
ATOM      2  O   LIG    1       -3.943   0.427  -2.764  0.00  0.00    -0.540 OA
ATOM      3  H   LIG    1       -4.806   0.799  -2.533  0.00  0.00    +0.370 HD
ENDBRANCH   1   2
BRANCH   1   4
ATOM      4  C   LIG    1       -2.801   2.529  -2.421  0.00  0.00    +0.280 C 
BRANCH   4   6
ATOM      5  C   LIG    1       -2.851   1.574  -0.071  0.00  0.00    +0.290 C 
ATOM      6  N   LIG    1       -2.094   2.043  -1.234  0.00  0.00    -0.610 N 
ATOM      7  C   LIG    1       -0.746   2.027  -1.211  0.00  0.00    +0.530 C 
ATOM      8  O   LIG    1       -0.119   2.415  -2.174  0.00  0.00    -0.520 OA
BRANCH   7   9
ATOM      9  C   LIG    1       -0.019   1.527   0.010  0.00  0.00    +0.160 C 
ATOM     10  C   LIG    1        0.002  -0.004   0.002  0.00  0.00    +0.200 C 
ATOM     11  O   LIG    1        0.757  -0.472   1.123  0.00  0.00    -0.370 OA
ATOM     12  C   LIG    1        2.108  -0.001   1.144  0.00  0.00    +0.190 C 
ATOM     13  C   LIG    1        2.108   1.530   1.164  0.00  0.00    +0.210 C 
ATOM     14  N   LIG    1        1.362   2.030   0.000  0.00  0.00    -0.670 NA
ATOM     15  H   LIG    1        1.829   1.787  -0.861  0.00  0.00    +0.350 HD
ENDBRANCH   7   9
ENDBRANCH   4   6
ENDBRANCH   1   4
BRANCH   1  16
ATOM     16  C   LIG    1       -3.679   1.889  -4.670  0.00  0.00    +0.180 C 
BRANCH  16  17
ATOM     17  O   LIG    1       -3.808   0.818  -5.608  0.00  0.00    -0.300 OA
BRANCH  17  18
ATOM     18  C   LIG    1       -4.350   1.118  -6.817  0.00  0.00    +0.160 A 
ATOM     19  C   LIG    1       -4.755   2.416  -7.094  0.00  0.00    -0.070 A 
ATOM     20  C   LIG    1       -5.302   2.720  -8.326  0.00  0.00    +0.110 A 
ATOM     21  C   LIG    1       -5.454   1.730  -9.279  0.00  0.00    -0.220 A 
ATOM     22  C   LIG    1       -5.056   0.435  -9.004  0.00  0.00    +0.110 A 
ATOM     23  C   LIG    1       -4.505   0.127  -7.775  0.00  0.00    -0.010 A 
BRANCH  21  24
ATOM     24  C   LIG    1       -6.056   2.064 -10.620  0.00  0.00    +0.510 C 
ATOM     25  F   LIG    1       -5.524   1.212 -11.594  0.00  0.00    -0.180 F 
ATOM     26  F   LIG    1       -5.758   3.391 -10.948  0.00  0.00    -0.180 F 
ATOM     27  F   LIG    1       -7.444   1.898 -10.563  0.00  0.00    -0.180 F 
ENDBRANCH  21  24
ENDBRANCH  17  18
ENDBRANCH  16  17
ENDBRANCH   1  16
TORSDOF 8
