REMARK  Name = ZINCrD000000fFZQ.1
REMARK                            x       y       z     vdW  Elec       q    Type
REMARK                         _______ _______ _______ _____ _____    ______ ____
ROOT
ATOM      1  C   LIG    1        1.278   1.300   4.882  0.00  0.00    +0.260 C 
ENDROOT
BRANCH   1   4
ATOM      2  C   LIG    1        4.161   2.063   7.283  0.00  0.00    +0.080 C 
ATOM      3  C   LIG    1        3.088   2.212   6.234  0.00  0.00    +0.520 C 
ATOM      4  N   LIG    1        2.321   1.155   5.901  0.00  0.00    -0.720 N 
ATOM      5  H   LIG    1        2.458   0.299   6.336  0.00  0.00    +0.410 HD
ATOM      6  O   LIG    1        2.917   3.282   5.691  0.00  0.00    -0.520 OA
ENDBRANCH   1   4
BRANCH   1   7
ATOM      7  C   LIG    1        1.906   1.720   3.578  0.00  0.00    +0.500 C 
ATOM      8  N   LIG    1        1.243   1.531   2.419  0.00  0.00    -0.670 N 
ATOM      9  H   LIG    1        0.337   1.185   2.430  0.00  0.00    +0.420 HD
ATOM     10  O   LIG    1        3.007   2.228   3.570  0.00  0.00    -0.480 OA
BRANCH   8  11
ATOM     11  C   LIG    1        1.863   1.835   1.200  0.00  0.00    +0.140 A 
ATOM     12  C   LIG    1        2.740   2.906   1.114  0.00  0.00    +0.050 A 
ATOM     13  C   LIG    1        3.346   3.208  -0.091  0.00  0.00    +0.040 A 
ATOM     14  C   LIG    1        3.084   2.442  -1.212  0.00  0.00    +0.030 A 
ATOM     15  C   LIG    1        2.215   1.368  -1.133  0.00  0.00    -0.050 A 
ATOM     16 CL   LIG    1        1.889   0.409  -2.542  0.00  0.00    -0.050 Cl
ATOM     17  C   LIG    1        1.603   1.059   0.072  0.00  0.00    +0.090 A 
BRANCH  17  18
ATOM     18  O   LIG    1        0.748   0.005   0.153  0.00  0.00    -0.480 OA
ATOM     19  H   LIG    1        1.176  -0.832   0.382  0.00  0.00    +0.390 HD
ENDBRANCH  17  18
ENDBRANCH   8  11
ENDBRANCH   1   7
BRANCH   1  20
ATOM     20  C   LIG    1        0.272   2.362   5.329  0.00  0.00    +0.120 C 
BRANCH  20  21
ATOM     21  C   LIG    1       -0.444   1.886   6.567  0.00  0.00    -0.160 A 
ATOM     22  C   LIG    1       -1.631   1.262   6.612  0.00  0.00    +0.230 A 
ATOM     23  N   LIG    1       -1.961   0.980   7.910  0.00  0.00    -0.590 N 
ATOM     24  H   LIG    1       -2.772   0.529   8.194  0.00  0.00    +0.420 HD
ATOM     25  C   LIG    1       -0.973   1.436   8.754  0.00  0.00    +0.120 A 
ATOM     26  C   LIG    1       -0.808   1.414  10.135  0.00  0.00    -0.040 A 
ATOM     27  C   LIG    1        0.324   1.968  10.698  0.00  0.00    +0.120 A 
ATOM     28  C   LIG    1        1.302   2.547   9.898  0.00  0.00    -0.040 A 
ATOM     29  C   LIG    1        1.158   2.578   8.540  0.00  0.00    +0.090 A 
ATOM     30  F   LIG    1        0.483   1.946  12.040  0.00  0.00    -0.140 F 
ATOM     31  C   LIG    1        0.021   2.024   7.950  0.00  0.00    -0.100 A 
ENDBRANCH  20  21
ENDBRANCH   1  20
TORSDOF 6
