REMARK  Name = ZINCrg00000SjSE5.0
REMARK                            x       y       z     vdW  Elec       q    Type
REMARK                         _______ _______ _______ _____ _____    ______ ____
ROOT
ATOM      1  C   LIG    1       -0.683   2.172   7.205  0.00  0.00    +0.180 C 
ATOM      2  C   LIG    1        0.305   3.012   8.019  0.00  0.00    +0.160 C 
ATOM      3  N   LIG    1        0.258   2.586   9.427  0.00  0.00    -0.510 NA
ATOM      4  C   LIG    1       -1.110   2.687   9.948  0.00  0.00    +0.050 C 
ATOM      5  C   LIG    1       -2.124   1.920   9.101  0.00  0.00    +0.260 C 
ATOM      6  C   LIG    1       -1.540   4.125  10.265  0.00  0.00    -0.020 C 
ATOM      7  C   LIG    1       -2.225   3.556  11.520  0.00  0.00    +0.010 C 
ATOM      8  C   LIG    1       -1.218   2.395  11.450  0.00  0.00    +0.030 C 
ATOM      9  O   LIG    1       -2.000   2.335   7.737  0.00  0.00    -0.370 OA
ENDROOT
BRANCH   1  10
ATOM     10  C   LIG    1       -0.662   2.633   5.746  0.00  0.00    +0.080 C 
BRANCH  10  13
ATOM     11  N   LIG    1       -1.675   1.944   3.597  0.00  0.00    -0.720 N 
ATOM     12  H   LIG    1       -1.207   2.682   3.176  0.00  0.00    +0.410 HD
ATOM     13  C   LIG    1       -1.540   1.728   4.921  0.00  0.00    +0.520 C 
ATOM     14  O   LIG    1       -2.125   0.806   5.448  0.00  0.00    -0.520 OA
BRANCH  11  19
ATOM     15  C   LIG    1       -2.075   1.071   1.315  0.00  0.00    +0.140 C 
ATOM     16  C   LIG    1       -3.055   2.091   0.680  0.00  0.00    +0.190 C 
ATOM     17  O   LIG    1       -4.298   1.839   1.371  0.00  0.00    -0.370 OA
ATOM     18  C   LIG    1       -3.971   1.606   2.751  0.00  0.00    +0.210 C 
ATOM     19  C   LIG    1       -2.529   1.064   2.795  0.00  0.00    +0.230 C 
BRANCH  15  21
ATOM     20  C   LIG    1       -0.059   1.064   0.019  0.00  0.00    +0.220 C 
ATOM     21  O   LIG    1       -0.724   1.522   1.198  0.00  0.00    -0.370 OA
ENDBRANCH  15  21
ENDBRANCH  11  19
ENDBRANCH  10  13
ENDBRANCH   1  10
BRANCH   3  22
ATOM     22  C   LIG    1        1.192   3.370  10.245  0.00  0.00    +0.240 C 
BRANCH  22  23
ATOM     23  C   LIG    1        2.606   3.073   9.816  0.00  0.00    -0.160 A 
ATOM     24  C   LIG    1        3.370   2.046  10.240  0.00  0.00    +0.170 A 
ATOM     25  N   LIG    1        4.579   2.128   9.616  0.00  0.00    -0.450 N 
ATOM     26  C   LIG    1        4.578   3.220   8.800  0.00  0.00    +0.140 A 
ATOM     27  C   LIG    1        5.698   1.199   9.797  0.00  0.00    +0.300 C 
ATOM     28  C   LIG    1        3.375   3.821   8.903  0.00  0.00    -0.060 A 
ENDBRANCH  22  23
ENDBRANCH   3  22
TORSDOF 6
