REMARK  Name = ZINCpk00000y6wqx.0
REMARK                            x       y       z     vdW  Elec       q    Type
REMARK                         _______ _______ _______ _____ _____    ______ ____
ROOT
ATOM      1  N   LIG    1        6.385   6.806   1.650  0.00  0.00    -0.520 N 
ATOM      2  H   LIG    1        6.632   7.388   0.913  0.00  0.00    +0.420 HD
ATOM      3  C   LIG    1        5.851   5.594   1.401  0.00  0.00    +0.520 C 
ATOM      4  O   LIG    1        5.543   4.867   2.322  0.00  0.00    -0.520 OA
ENDROOT
BRANCH   1   5
ATOM      5  N   LIG    1        6.583   7.227   2.971  0.00  0.00    -0.510 N 
ATOM      6  H   LIG    1        6.336   6.646   3.707  0.00  0.00    +0.440 HD
BRANCH   5  11
ATOM      7  C   LIG    1        8.929  11.624   2.419  0.00  0.00    +0.180 C 
ATOM      8  C   LIG    1        8.180  10.455   3.006  0.00  0.00    +0.160 A 
ATOM      9  N   LIG    1        7.778  10.347   4.241  0.00  0.00    -0.280 NA
ATOM     10  N   LIG    1        7.118   9.125   4.405  0.00  0.00    -0.380 N 
ATOM     11  C   LIG    1        7.131   8.470   3.226  0.00  0.00    +0.420 A 
ATOM     12  C   LIG    1        6.516   8.637   5.649  0.00  0.00    +0.360 C 
ATOM     13  C   LIG    1        7.794   9.284   2.312  0.00  0.00    -0.260 A 
BRANCH  13  14
ATOM     14  C   LIG    1        8.039   8.993   0.932  0.00  0.00    +0.290 C 
ATOM     15  N   LIG    1        8.232   8.761  -0.163  0.00  0.00    -0.440 NA
ENDBRANCH  13  14
ENDBRANCH   5  11
ENDBRANCH   1   5
BRANCH   3  16
ATOM     16  C   LIG    1        5.638   5.141  -0.020  0.00  0.00    +0.170 C 
BRANCH  16  17
ATOM     17  C   LIG    1        5.034   3.761  -0.023  0.00  0.00    -0.220 A 
ATOM     18  C   LIG    1        3.712   3.471  -0.014  0.00  0.00    +0.260 A 
ATOM     19  N   LIG    1        3.586   2.125  -0.019  0.00  0.00    -0.320 N 
ATOM     20  N   LIG    1        4.873   1.572  -0.027  0.00  0.00    -0.290 NA
ATOM     21  C   LIG    1        5.739   2.553  -0.035  0.00  0.00    +0.270 A 
BRANCH  19  22
ATOM     22  C   LIG    1        2.381   1.409  -0.013  0.00  0.00    +0.160 A 
ATOM     23  C   LIG    1        1.169   2.087   0.002  0.00  0.00    -0.010 A 
ATOM     24  C   LIG    1       -0.017   1.379   0.010  0.00  0.00    +0.040 A 
ATOM     25  C   LIG    1        0.002  -0.004   0.002  0.00  0.00    +0.000 A 
ATOM     26  C   LIG    1        1.207  -0.682  -0.013  0.00  0.00    +0.040 A 
ATOM     27  C   LIG    1        2.396   0.021  -0.020  0.00  0.00    +0.020 A 
ENDBRANCH  19  22
ENDBRANCH  16  17
ENDBRANCH   3  16
TORSDOF 6
