REMARK  Name = ZINCvU0000000CMy.0
REMARK                            x       y       z     vdW  Elec       q    Type
REMARK                         _______ _______ _______ _____ _____    ______ ____
ROOT
ATOM      1  C   LIG    1        0.379  -0.184   0.107  0.00  0.00    +0.020 C 
ATOM      2  C   LIG    1        0.412  -0.725   1.538  0.00  0.00    +0.080 C 
ENDROOT
BRANCH   1   3
ATOM      3  C   LIG    1        0.568   1.311   0.130  0.00  0.00    +0.540 C 
ATOM      4  N   LIG    1        1.810   1.833   0.161  0.00  0.00    -0.660 N 
ATOM      5  H   LIG    1        2.579   1.250   0.255  0.00  0.00    +0.410 HD
ATOM      6  O   LIG    1       -0.399   2.044   0.116  0.00  0.00    -0.500 OA
BRANCH   4   7
ATOM      7  C   LIG    1        1.989   3.215   0.058  0.00  0.00    +0.160 A 
ATOM      8  C   LIG    1        1.131   3.972  -0.725  0.00  0.00    +0.020 A 
ATOM      9  C   LIG    1        1.307   5.340  -0.821  0.00  0.00    +0.030 A 
ATOM     10  C   LIG    1        2.345   5.959  -0.147  0.00  0.00    +0.000 A 
ATOM     11  C   LIG    1        3.210   5.217   0.632  0.00  0.00    +0.040 A 
ATOM     12  C   LIG    1        3.040   3.840   0.741  0.00  0.00    -0.070 A 
BRANCH  12  13
ATOM     13  C   LIG    1        3.966   3.038   1.577  0.00  0.00    -0.050 A 
ATOM     14  C   LIG    1        3.462   2.147   2.522  0.00  0.00    +0.010 A 
ATOM     15  C   LIG    1        4.329   1.400   3.294  0.00  0.00    +0.010 A 
ATOM     16  C   LIG    1        5.696   1.542   3.137  0.00  0.00    +0.010 A 
ATOM     17  C   LIG    1        6.202   2.429   2.204  0.00  0.00    +0.010 A 
ATOM     18  C   LIG    1        5.345   3.177   1.423  0.00  0.00    +0.030 A 
ENDBRANCH  12  13
ENDBRANCH   4   7
ENDBRANCH   1   3
BRANCH   1  19
ATOM     19  S   LIG    1       -1.217  -0.579  -0.651  0.00  0.00    +0.080 S 
BRANCH  19  23
ATOM     20  C   LIG    1       -1.540  -4.458  -0.990  0.00  0.00    +0.230 A 
ATOM     21  N   LIG    1       -0.358  -4.315  -0.436  0.00  0.00    -0.270 NA
ATOM     22  N   LIG    1       -0.103  -3.067  -0.263  0.00  0.00    -0.290 NA
ATOM     23  C   LIG    1       -1.111  -2.338  -0.687  0.00  0.00    +0.150 A 
ATOM     24  N   LIG    1       -2.058  -3.196  -1.167  0.00  0.00    -0.460 N 
ATOM     25  C   LIG    1       -3.356  -2.847  -1.750  0.00  0.00    +0.350 C 
BRANCH  20  31
ATOM     26  C   LIG    1       -1.893  -9.413  -0.513  0.00  0.00    +0.100 C 
ATOM     27  C   LIG    1       -2.365  -8.120  -1.127  0.00  0.00    -0.080 A 
ATOM     28  C   LIG    1       -3.409  -8.127  -2.034  0.00  0.00    +0.030 A 
ATOM     29  C   LIG    1       -3.848  -6.944  -2.602  0.00  0.00    +0.020 A 
ATOM     30  C   LIG    1       -3.245  -5.749  -2.267  0.00  0.00    +0.010 A 
ATOM     31  C   LIG    1       -2.191  -5.735  -1.353  0.00  0.00    -0.020 A 
ATOM     32  C   LIG    1       -1.750  -6.932  -0.787  0.00  0.00    +0.070 A 
ENDBRANCH  20  31
ENDBRANCH  19  23
ENDBRANCH   1  19
TORSDOF 6
