REMARK  Name = ZINCrD00000737DD.0
REMARK                            x       y       z     vdW  Elec       q    Type
REMARK                         _______ _______ _______ _____ _____    ______ ____
ROOT
ATOM      1  N   LIG    1       -7.598   7.811  -1.319  0.00  0.00    -0.680 N 
ATOM      2  H   LIG    1       -6.980   8.151  -0.653  0.00  0.00    +0.400 HD
ATOM      3  C   LIG    1       -7.688   6.485  -1.541  0.00  0.00    +0.710 C 
ATOM      4  N   LIG    1       -6.980   5.625  -0.782  0.00  0.00    -0.630 N 
ATOM      5  C   LIG    1       -6.017   6.115   0.215  0.00  0.00    +0.280 C 
ATOM      6  C   LIG    1       -4.679   5.402  -0.009  0.00  0.00    +0.190 C 
ATOM      7  N   LIG    1       -4.896   3.949  -0.001  0.00  0.00    -0.490 N 
ATOM      8  C   LIG    1       -5.769   3.535  -1.107  0.00  0.00    +0.200 C 
ATOM      9  C   LIG    1       -7.151   4.172  -0.928  0.00  0.00    +0.320 C 
ATOM     10  O   LIG    1       -8.409   6.064  -2.425  0.00  0.00    -0.560 OA
ENDROOT
BRANCH   1  16
ATOM     11  C   LIG    1       -8.725   9.938  -1.518  0.00  0.00    -0.130 A 
ATOM     12  C   LIG    1       -9.508  10.814  -2.244  0.00  0.00    +0.060 A 
ATOM     13  C   LIG    1       -9.972  10.453  -3.496  0.00  0.00    -0.020 A 
ATOM     14  C   LIG    1       -9.650   9.218  -4.027  0.00  0.00    +0.030 A 
ATOM     15  C   LIG    1       -8.863   8.340  -3.307  0.00  0.00    +0.030 A 
ATOM     16  C   LIG    1       -8.395   8.699  -2.050  0.00  0.00    +0.170 A 
BRANCH  11  17
ATOM     17  C   LIG    1       -8.225  10.330  -0.151  0.00  0.00    +0.230 C 
BRANCH  17  19
ATOM     18  C   LIG    1       -8.274  12.110   1.453  0.00  0.00    +0.200 C 
ATOM     19  O   LIG    1       -8.695  11.640   0.171  0.00  0.00    -0.380 OA
ENDBRANCH  17  19
ENDBRANCH  11  17
ENDBRANCH   1  16
BRANCH   7  20
ATOM     20  C   LIG    1       -3.687   3.266  -0.038  0.00  0.00    +0.150 A 
ATOM     21  C   LIG    1       -3.677   1.873  -0.038  0.00  0.00    -0.020 A 
ATOM     22  C   LIG    1       -2.491   1.197  -0.074  0.00  0.00    +0.110 A 
ATOM     23  C   LIG    1       -1.283   1.906  -0.112  0.00  0.00    -0.200 A 
ATOM     24  C   LIG    1       -1.298   3.307  -0.107  0.00  0.00    +0.090 A 
ATOM     25  C   LIG    1       -2.489   3.975  -0.075  0.00  0.00    -0.060 A 
BRANCH  23  26
ATOM     26  C   LIG    1       -0.006   1.184  -0.151  0.00  0.00    +0.400 C 
ATOM     27  O   LIG    1        0.005  -0.029  -0.150  0.00  0.00    -0.460 OA
ATOM     28  C   LIG    1        1.291   1.949  -0.198  0.00  0.00    +0.080 C 
ENDBRANCH  23  26
ENDBRANCH   7  20
TORSDOF 5
