REMARK  Name = ZINCqH0000008AdK.0
REMARK                            x       y       z     vdW  Elec       q    Type
REMARK                         _______ _______ _______ _____ _____    ______ ____
ROOT
ATOM      1  C   LIG    1       -0.662   3.759   0.029  0.00  0.00    -0.240 A 
ATOM      2  C   LIG    1        0.699   4.093   0.018  0.00  0.00    +0.360 A 
ATOM      3  N   LIG    1        1.629   3.168   0.004  0.00  0.00    -0.500 NA
ATOM      4  C   LIG    1        1.330   1.873  -0.001  0.00  0.00    +0.340 A 
ATOM      5  C   LIG    1       -0.018   1.456   0.010  0.00  0.00    -0.240 A 
ATOM      6  C   LIG    1        0.002  -0.004   0.002  0.00  0.00    +0.310 A 
ATOM      7  N   LIG    1        1.248  -0.381  -0.012  0.00  0.00    -0.230 NA
ATOM      8  N   LIG    1        2.089   0.737  -0.014  0.00  0.00    -0.380 N 
ATOM      9  C   LIG    1       -1.033   2.414   0.030  0.00  0.00    +0.240 A 
ENDROOT
BRANCH   1  12
ATOM     10  N   LIG    1       -1.325   6.115   0.049  0.00  0.00    -0.720 N 
ATOM     11  H   LIG    1       -0.384   6.353   0.041  0.00  0.00    +0.400 HD
ATOM     12  C   LIG    1       -1.692   4.818   0.045  0.00  0.00    +0.570 C 
ATOM     13  O   LIG    1       -2.870   4.520   0.055  0.00  0.00    -0.540 OA
BRANCH  10  20
ATOM     14  C   LIG    1       -1.338   8.176  -1.986  0.00  0.00    +0.020 C 
ATOM     15  C   LIG    1       -1.770   8.446  -0.543  0.00  0.00    -0.010 C 
ATOM     16  C   LIG    1       -0.559   8.899   0.275  0.00  0.00    +0.010 C 
ATOM     17  C   LIG    1       -0.991   9.169   1.718  0.00  0.00    +0.000 C 
ATOM     18  C   LIG    1       -1.567   7.888   2.326  0.00  0.00    +0.000 C 
ATOM     19  C   LIG    1       -2.778   7.435   1.508  0.00  0.00    +0.010 C 
ATOM     20  C   LIG    1       -2.346   7.165   0.065  0.00  0.00    +0.240 C 
ENDBRANCH  10  20
ENDBRANCH   1  12
BRANCH   8  21
ATOM     21  C   LIG    1        3.553   0.696  -0.028  0.00  0.00    +0.400 C 
BRANCH  21  22
ATOM     22  C   LIG    1        4.042   0.689  -1.453  0.00  0.00    -0.120 A 
ATOM     23  C   LIG    1        4.238  -0.510  -2.111  0.00  0.00    +0.030 A 
ATOM     24  C   LIG    1        4.682  -0.516  -3.421  0.00  0.00    +0.010 A 
ATOM     25  C   LIG    1        4.940   0.678  -4.068  0.00  0.00    +0.010 A 
ATOM     26  C   LIG    1        4.749   1.877  -3.408  0.00  0.00    +0.000 A 
ATOM     27  C   LIG    1        4.300   1.883  -2.100  0.00  0.00    +0.040 A 
ENDBRANCH  21  22
ENDBRANCH   8  21
TORSDOF 4
