REMARK  Name = ZINCvU0000000FVN.0
REMARK                            x       y       z     vdW  Elec       q    Type
REMARK                         _______ _______ _______ _____ _____    ______ ____
ROOT
ATOM      1  N   LIG    1       -0.011   0.966   0.007  0.00  0.00    -0.730 N 
ATOM      2  H   LIG    1        0.002  -0.004   0.002  0.00  0.00    +0.400 HD
ATOM      3  C   LIG    1        1.147   1.655   0.000  0.00  0.00    +0.520 C 
ATOM      4  O   LIG    1        1.130   2.868   0.007  0.00  0.00    -0.520 OA
ENDROOT
BRANCH   1   5
ATOM      5  C   LIG    1       -1.290   1.681   0.017  0.00  0.00    +0.390 C 
BRANCH   5   8
ATOM      6  C   LIG    1       -2.632   0.476   2.548  0.00  0.00    +0.130 C 
ATOM      7  C   LIG    1       -2.993   0.174   1.116  0.00  0.00    -0.140 A 
ATOM      8  C   LIG    1       -2.422   0.686   0.017  0.00  0.00    +0.010 A 
ATOM      9  O   LIG    1       -3.009   0.189  -1.085  0.00  0.00    -0.180 OA
ATOM     10  C   LIG    1       -3.986  -0.681  -0.758  0.00  0.00    +0.080 A 
ATOM     11  C   LIG    1       -4.869  -1.449  -1.506  0.00  0.00    +0.040 A 
ATOM     12  C   LIG    1       -5.785  -2.260  -0.871  0.00  0.00    +0.090 A 
ATOM     13  C   LIG    1       -5.838  -2.319   0.515  0.00  0.00    -0.110 A 
ATOM     14  C   LIG    1       -4.970  -1.565   1.276  0.00  0.00    +0.110 A 
ATOM     15 BR   LIG    1       -7.104  -3.439   1.363  0.00  0.00    -0.040 Br
ATOM     16  C   LIG    1       -4.039  -0.741   0.644  0.00  0.00    -0.130 A 
ENDBRANCH   5   8
ENDBRANCH   1   5
BRANCH   3  17
ATOM     17  C   LIG    1        2.462   0.920  -0.017  0.00  0.00    +0.060 C 
BRANCH  17  18
ATOM     18  C   LIG    1        3.611   1.930  -0.022  0.00  0.00    -0.040 C 
ATOM     19  C   LIG    1        3.530   2.802   1.233  0.00  0.00    +0.020 C 
ATOM     20  C   LIG    1        3.506   2.815  -1.266  0.00  0.00    +0.020 C 
BRANCH  18  21
ATOM     21  C   LIG    1        4.946   1.183  -0.039  0.00  0.00    +0.030 C 
BRANCH  21  22
ATOM     22  C   LIG    1        6.096   2.193  -0.044  0.00  0.00    +0.180 C 
BRANCH  22  23
ATOM     23  N   LIG    1        7.378   1.476  -0.060  0.00  0.00    -0.520 NA
ATOM     24  C   LIG    1        7.577   0.726   1.187  0.00  0.00    +0.180 C 
BRANCH  23  25
ATOM     25  C   LIG    1        8.494   2.399  -0.304  0.00  0.00    +0.220 C 
ATOM     26  C   LIG    1        8.300   3.088  -1.657  0.00  0.00    +0.060 C 
BRANCH  25  27
ATOM     27  C   LIG    1        9.790   1.629  -0.314  0.00  0.00    +0.320 A 
ATOM     28  N   LIG    1        9.854   0.490  -0.974  0.00  0.00    -0.490 NA
ATOM     29  C   LIG    1       10.976  -0.211  -1.009  0.00  0.00    +0.320 A 
ATOM     30  C   LIG    1       12.088   0.263  -0.331  0.00  0.00    -0.080 A 
ATOM     31  C   LIG    1       11.980   1.462   0.356  0.00  0.00    +0.320 A 
ATOM     32  N   LIG    1       10.826   2.110   0.342  0.00  0.00    -0.520 NA
ENDBRANCH  25  27
ENDBRANCH  23  25
ENDBRANCH  22  23
ENDBRANCH  21  22
ENDBRANCH  18  21
ENDBRANCH  17  18
ENDBRANCH   3  17
TORSDOF 9
