REMARK  Name = ZINCnE000001GHd3.0
REMARK                            x       y       z     vdW  Elec       q    Type
REMARK                         _______ _______ _______ _____ _____    ______ ____
ROOT
ATOM      1  S   LIG    1        4.112  -1.368  -0.044  0.00  0.00    +2.600 S 
ATOM      2  O   LIG    1        3.705  -1.912  -1.292  0.00  0.00    -1.010 OA
ATOM      3  O   LIG    1        3.730  -1.924   1.207  0.00  0.00    -1.030 OA
ENDROOT
BRANCH   1  10
ATOM      4  C   LIG    1        6.550  -0.823  -1.153  0.00  0.00    +0.250 A 
ATOM      5  C   LIG    1        7.937  -0.806  -1.164  0.00  0.00    -0.090 A 
ATOM      6  C   LIG    1        8.642  -1.308  -0.087  0.00  0.00    +0.130 A 
ATOM      7  C   LIG    1        7.965  -1.829   1.001  0.00  0.00    -0.160 A 
ATOM      8  C   LIG    1        6.581  -1.841   1.016  0.00  0.00    +0.190 A 
ATOM      9 BR   LIG    1        8.932  -2.516   2.474  0.00  0.00    -0.060 Br
ATOM     10  C   LIG    1        5.873  -1.345  -0.061  0.00  0.00    -0.650 A 
BRANCH   4  11
ATOM     11  O   LIG    1        5.855  -0.328  -2.212  0.00  0.00    -0.280 OA
BRANCH  11  13
ATOM     12  C   LIG    1        5.670   0.700  -4.391  0.00  0.00    +0.070 C 
ATOM     13  C   LIG    1        6.618   0.194  -3.302  0.00  0.00    +0.180 C 
ENDBRANCH  11  13
ENDBRANCH   4  11
ENDBRANCH   1  10
BRANCH   1  14
ATOM     14  N   LIG    1        3.601   0.207  -0.031  0.00  0.00    -1.010 NA
BRANCH  14  15
ATOM     15  C   LIG    1        2.240   0.497  -0.017  0.00  0.00    +0.340 A 
ATOM     16  C   LIG    1        1.735   1.777  -0.005  0.00  0.00    -0.380 A 
ATOM     17  S   LIG    1       -0.021   1.701   0.011  0.00  0.00    +0.120 S 
ATOM     18  C   LIG    1        0.002  -0.004   0.002  0.00  0.00    -0.020 A 
ATOM     19  C   LIG    1        1.253  -0.471  -0.012  0.00  0.00    -0.100 A 
BRANCH  16  20
ATOM     20  C   LIG    1        2.505   2.962  -0.006  0.00  0.00    +0.540 C 
ATOM     21  O   LIG    1        3.720   2.898  -0.018  0.00  0.00    -0.500 OA
BRANCH  20  22
ATOM     22  O   LIG    1        1.892   4.165   0.007  0.00  0.00    -0.380 OA
ATOM     23  C   LIG    1        2.732   5.321   0.005  0.00  0.00    +0.230 C 
ENDBRANCH  20  22
ENDBRANCH  16  20
ENDBRANCH  14  15
ENDBRANCH   1  14
TORSDOF 7
