REMARK  Name = ZINCrD0000075QbX.0
REMARK                            x       y       z     vdW  Elec       q    Type
REMARK                         _______ _______ _______ _____ _____    ______ ____
ROOT
ATOM      1  O   LIG    1        0.675  -4.753  -0.206  0.00  0.00    -0.500 OA
ATOM      2  C   LIG    1       -0.290  -4.035  -0.033  0.00  0.00    +0.520 C 
ENDROOT
BRANCH   2   3
ATOM      3  C   LIG    1       -1.646  -4.614  -0.018  0.00  0.00    -0.150 A 
ATOM      4  C   LIG    1       -2.757  -3.791   0.187  0.00  0.00    +0.100 A 
ATOM      5  C   LIG    1       -4.022  -4.334   0.197  0.00  0.00    -0.020 A 
ATOM      6  C   LIG    1       -4.194  -5.703   0.013  0.00  0.00    +0.190 A 
ATOM      7  C   LIG    1       -3.090  -6.526  -0.186  0.00  0.00    +0.000 A 
ATOM      8  C   LIG    1       -1.823  -5.989  -0.202  0.00  0.00    +0.110 A 
BRANCH   6   9
ATOM      9  N   LIG    1       -5.476  -6.250   0.029  0.00  0.00    -0.670 N 
ATOM     10  H   LIG    1       -6.226  -5.739  -0.312  0.00  0.00    +0.420 HD
ATOM     11  C   LIG    1       -5.673  -7.490   0.520  0.00  0.00    +0.540 C 
ATOM     12  O   LIG    1       -4.754  -8.092   1.034  0.00  0.00    -0.510 OA
BRANCH  11  13
ATOM     13  C   LIG    1       -7.035  -8.129   0.429  0.00  0.00    -0.070 C 
ATOM     14  C   LIG    1       -7.806  -8.337   1.734  0.00  0.00    +0.060 C 
ATOM     15  C   LIG    1       -7.195  -9.537   1.006  0.00  0.00    +0.080 C 
ENDBRANCH  11  13
ENDBRANCH   6   9
ENDBRANCH   2   3
BRANCH   2  16
ATOM     16  O   LIG    1       -0.121  -2.710   0.144  0.00  0.00    -0.350 OA
BRANCH  16  17
ATOM     17  C   LIG    1        1.242  -2.209   0.117  0.00  0.00    +0.300 C 
BRANCH  17  18
ATOM     18  C   LIG    1        1.233  -0.718   0.331  0.00  0.00    -0.090 A 
ATOM     19  C   LIG    1        0.037  -0.053   0.513  0.00  0.00    +0.050 A 
ATOM     20  C   LIG    1        0.029   1.317   0.712  0.00  0.00    +0.080 A 
ATOM     21  C   LIG    1        1.220   2.022   0.727  0.00  0.00    +0.040 A 
ATOM     22  C   LIG    1        2.419   1.359   0.543  0.00  0.00    -0.170 A 
ATOM     23  C   LIG    1        3.711   2.138   0.556  0.00  0.00    +0.300 C 
ATOM     24  O   LIG    1        4.807   1.233   0.723  0.00  0.00    -0.380 OA
ATOM     25  C   LIG    1        4.747   0.112  -0.167  0.00  0.00    +0.440 C 
ATOM     26  O   LIG    1        3.602  -0.677   0.169  0.00  0.00    -0.330 OA
ATOM     27  F   LIG    1       -1.143   1.967   0.886  0.00  0.00    -0.130 F 
ATOM     28  C   LIG    1        2.429  -0.012   0.346  0.00  0.00    +0.130 A 
ENDBRANCH  17  18
ENDBRANCH  16  17
ENDBRANCH   2  16
TORSDOF 6
