REMARK  Name = ZINCpk00000KfLn0.0
REMARK                            x       y       z     vdW  Elec       q    Type
REMARK                         _______ _______ _______ _____ _____    ______ ____
ROOT
ATOM      1  N   LIG    1       -2.623  -0.783   3.107  0.00  0.00    -0.500 NA
ATOM      2  C   LIG    1       -2.278   0.106   4.247  0.00  0.00    +0.230 C 
ATOM      3  C   LIG    1       -2.039   1.484   3.644  0.00  0.00    +0.140 C 
ATOM      4  O   LIG    1       -1.050   2.309   4.221  0.00  0.00    -0.360 OA
ATOM      5  C   LIG    1       -0.951   3.556   3.506  0.00  0.00    +0.220 C 
ATOM      6  C   LIG    1       -0.691   3.336   2.019  0.00  0.00    +0.150 C 
ATOM      7  N   LIG    1       -1.636   2.360   1.436  0.00  0.00    -0.510 NA
ATOM      8  C   LIG    1       -1.545   1.130   2.210  0.00  0.00    +0.100 C 
ATOM      9  C   LIG    1       -2.522   0.009   1.849  0.00  0.00    +0.200 C 
ENDROOT
BRANCH   1  10
ATOM     10  C   LIG    1       -3.971  -1.345   3.268  0.00  0.00    +0.340 C 
BRANCH  10  14
ATOM     11  O   LIG    1       -7.596   0.704   0.952  0.00  0.00    -0.470 OA
ATOM     12  C   LIG    1       -6.807   0.720   1.885  0.00  0.00    +0.400 A 
ATOM     13  C   LIG    1       -5.848  -0.311   2.045  0.00  0.00    -0.130 A 
ATOM     14  C   LIG    1       -4.995  -0.255   3.088  0.00  0.00    +0.110 A 
ATOM     15  O   LIG    1       -5.048   0.751   3.969  0.00  0.00    -0.200 OA
ATOM     16  C   LIG    1       -5.934   1.750   3.855  0.00  0.00    +0.180 A 
ATOM     17  C   LIG    1       -6.825   1.774   2.840  0.00  0.00    -0.030 A 
BRANCH  17  18
ATOM     18  O   LIG    1       -7.726   2.788   2.733  0.00  0.00    -0.440 OA
ATOM     19  H   LIG    1       -7.654   3.453   3.433  0.00  0.00    +0.400 HD
ENDBRANCH  17  18
ENDBRANCH  10  14
ENDBRANCH   1  10
BRANCH   7  20
ATOM     20  C   LIG    1       -1.332   2.114   0.020  0.00  0.00    +0.230 C 
BRANCH  20  21
ATOM     21  C   LIG    1       -1.574   3.373  -0.772  0.00  0.00    -0.080 A 
ATOM     22  C   LIG    1       -2.845   3.670  -1.226  0.00  0.00    +0.020 A 
ATOM     23  C   LIG    1       -3.066   4.821  -1.959  0.00  0.00    +0.000 A 
ATOM     24  C   LIG    1       -2.016   5.677  -2.235  0.00  0.00    +0.000 A 
ATOM     25  C   LIG    1       -0.745   5.380  -1.780  0.00  0.00    +0.000 A 
ATOM     26  C   LIG    1       -0.524   4.228  -1.049  0.00  0.00    +0.000 A 
ENDBRANCH  20  21
ENDBRANCH   7  20
TORSDOF 5
