REMARK  Name = ZINCrH00000No4Dz.0
REMARK                            x       y       z     vdW  Elec       q    Type
REMARK                         _______ _______ _______ _____ _____    ______ ____
ROOT
ATOM      1  N   LIG    1       -1.149   2.258   0.171  0.00  0.00    -0.640 N 
ATOM      2  H   LIG    1       -1.073   3.150   0.543  0.00  0.00    +0.410 HD
ATOM      3  C   LIG    1       -2.347   1.803  -0.247  0.00  0.00    +0.510 C 
ATOM      4  O   LIG    1       -2.464   0.653  -0.617  0.00  0.00    -0.490 OA
ENDROOT
BRANCH   1  11
ATOM      5  C   LIG    1       -1.040  -0.733   1.034  0.00  0.00    +0.170 C 
ATOM      6  C   LIG    1        0.075   0.089   0.442  0.00  0.00    +0.110 A 
ATOM      7  N   LIG    1        1.288  -0.333   0.191  0.00  0.00    -0.280 NA
ATOM      8  N   LIG    1        2.022   0.729  -0.353  0.00  0.00    -0.320 N 
ATOM      9  C   LIG    1        1.201   1.812  -0.421  0.00  0.00    +0.080 A 
ATOM     10  C   LIG    1        1.569   3.177  -0.942  0.00  0.00    +0.160 C 
ATOM     11  C   LIG    1       -0.010   1.439   0.066  0.00  0.00    -0.000 A 
BRANCH   8  12
ATOM     12  C   LIG    1        3.363   0.683  -0.756  0.00  0.00    +0.150 A 
ATOM     13  C   LIG    1        3.846  -0.421  -1.446  0.00  0.00    +0.020 A 
ATOM     14  C   LIG    1        5.167  -0.460  -1.847  0.00  0.00    +0.030 A 
ATOM     15  C   LIG    1        6.012   0.594  -1.551  0.00  0.00    +0.010 A 
ATOM     16  C   LIG    1        5.536   1.692  -0.859  0.00  0.00    +0.030 A 
ATOM     17  C   LIG    1        4.214   1.740  -0.461  0.00  0.00    +0.000 A 
ENDBRANCH   8  12
ENDBRANCH   1  11
BRANCH   3  18
ATOM     18  C   LIG    1       -3.542   2.721  -0.254  0.00  0.00    +0.250 C 
BRANCH  18  19
ATOM     19  O   LIG    1       -4.685   2.012  -0.735  0.00  0.00    -0.330 OA
BRANCH  19  20
ATOM     20  C   LIG    1       -5.847   2.697  -0.804  0.00  0.00    +0.510 C 
ATOM     21  O   LIG    1       -5.886   3.865  -0.465  0.00  0.00    -0.520 OA
BRANCH  20  22
ATOM     22  C   LIG    1       -7.016   2.058  -1.270  0.00  0.00    -0.090 C 
ATOM     23  C   LIG    1       -8.185   2.746  -1.340  0.00  0.00    +0.210 C 
BRANCH  23  24
ATOM     24  C   LIG    1       -9.357   2.106  -1.807  0.00  0.00    -0.230 A 
ATOM     25  C   LIG    1      -10.592   2.690  -1.918  0.00  0.00    +0.070 A 
ATOM     26  C   LIG    1      -11.553   1.837  -2.405  0.00  0.00    +0.000 A 
ATOM     27  C   LIG    1      -11.128   0.596  -2.674  0.00  0.00    -0.060 A 
ATOM     28  S   LIG    1       -9.465   0.431  -2.331  0.00  0.00    +0.220 S 
ENDBRANCH  23  24
ENDBRANCH  20  22
ENDBRANCH  19  20
ENDBRANCH  18  19
ENDBRANCH   3  18
TORSDOF 7
