REMARK  Name = ZINCAx0000000bNw.0
REMARK                            x       y       z     vdW  Elec       q    Type
REMARK                         _______ _______ _______ _____ _____    ______ ____
ROOT
ATOM      1  N   LIG    1       -8.538  -0.381   1.588  0.00  0.00    -0.520 NA
ATOM      2  C   LIG    1       -8.630   0.537   2.731  0.00  0.00    +0.180 C 
ATOM      3  C   LIG    1       -7.481   1.549   2.662  0.00  0.00    +0.280 C 
ATOM      4  N   LIG    1       -7.508   2.196   1.342  0.00  0.00    -0.610 N 
ATOM      5  C   LIG    1       -7.556   1.339   0.148  0.00  0.00    +0.300 C 
ATOM      6  C   LIG    1       -7.488   3.539   1.229  0.00  0.00    +0.530 C 
ATOM      7  O   LIG    1       -7.424   4.055   0.133  0.00  0.00    -0.530 OA
ATOM      8  C   LIG    1       -8.701   0.335   0.316  0.00  0.00    +0.170 C 
ENDROOT
BRANCH   6   9
ATOM      9  C   LIG    1       -7.547   4.400   2.464  0.00  0.00    -0.020 C 
ATOM     10  C   LIG    1       -9.005   4.580   2.893  0.00  0.00    +0.040 C 
ATOM     11  C   LIG    1       -9.063   5.427   4.167  0.00  0.00    +0.020 C 
ATOM     12  C   LIG    1       -8.469   6.810   3.883  0.00  0.00    +0.270 C 
ATOM     13  N   LIG    1       -7.117   6.640   3.332  0.00  0.00    -0.610 N 
ATOM     14  C   LIG    1       -6.064   7.269   3.891  0.00  0.00    +0.570 C 
ATOM     15  O   LIG    1       -4.962   7.177   3.384  0.00  0.00    -0.520 OA
ATOM     16  C   LIG    1       -6.935   5.772   2.161  0.00  0.00    +0.320 C 
BRANCH  14  17
ATOM     17  C   LIG    1       -6.248   8.069   5.116  0.00  0.00    -0.120 A 
ATOM     18  C   LIG    1       -7.207   9.071   5.171  0.00  0.00    +0.050 A 
ATOM     19  C   LIG    1       -7.382   9.819   6.328  0.00  0.00    +0.000 A 
ATOM     20  C   LIG    1       -6.624   9.611   7.438  0.00  0.00    +0.050 A 
ATOM     21  C   LIG    1       -5.630   8.618   7.452  0.00  0.00    -0.060 A 
ATOM     22  C   LIG    1       -4.839   8.391   8.591  0.00  0.00    +0.030 A 
ATOM     23  C   LIG    1       -3.886   7.418   8.566  0.00  0.00    +0.020 A 
ATOM     24  C   LIG    1       -3.682   6.643   7.427  0.00  0.00    +0.020 A 
ATOM     25  C   LIG    1       -4.432   6.835   6.306  0.00  0.00    +0.030 A 
ATOM     26  C   LIG    1       -5.420   7.827   6.296  0.00  0.00    -0.020 A 
ENDBRANCH  14  17
ENDBRANCH   6   9
BRANCH   1  27
ATOM     27  C   LIG    1       -9.516  -1.471   1.708  0.00  0.00    +0.230 C 
BRANCH  27  30
ATOM     28  N   LIG    1       -9.930  -3.397   3.204  0.00  0.00    -0.630 N 
ATOM     29  H   LIG    1      -10.704  -3.613   2.660  0.00  0.00    +0.420 HD
ATOM     30  C   LIG    1       -9.166  -2.330   2.896  0.00  0.00    +0.520 C 
ATOM     31  O   LIG    1       -8.199  -2.061   3.576  0.00  0.00    -0.490 OA
BRANCH  28  35
ATOM     32  C   LIG    1       -7.730  -5.338   7.235  0.00  0.00    +0.180 C 
ATOM     33  C   LIG    1       -8.633  -5.040   6.066  0.00  0.00    -0.020 A 
ATOM     34  C   LIG    1       -8.507  -4.021   5.186  0.00  0.00    -0.040 A 
ATOM     35  C   LIG    1       -9.603  -4.196   4.300  0.00  0.00    +0.250 A 
ATOM     36  N   LIG    1      -10.242  -5.259   4.714  0.00  0.00    -0.390 NA
ATOM     37  O   LIG    1       -9.716  -5.738   5.692  0.00  0.00    +0.100 OA
ENDBRANCH  28  35
ENDBRANCH  27  30
ENDBRANCH   1  27
TORSDOF 5
