REMARK  Name = ZINCpe000000Y1to.0
REMARK                            x       y       z     vdW  Elec       q    Type
REMARK                         _______ _______ _______ _____ _____    ______ ____
ROOT
ATOM      1  N   LIG    1       -3.993   1.376   3.694  0.00  0.00    -0.590 N 
ATOM      2  C   LIG    1       -3.376   0.070   3.989  0.00  0.00    +0.280 C 
ATOM      3  C   LIG    1       -2.072   0.050   3.152  0.00  0.00    +0.070 C 
ATOM      4  C   LIG    1       -2.521   0.781   1.859  0.00  0.00    +0.050 C 
ATOM      5  C   LIG    1       -3.509   1.843   2.387  0.00  0.00    +0.330 C 
ENDROOT
BRANCH   1   9
ATOM      6  C   LIG    1       -6.732   5.242   4.383  0.00  0.00    +0.200 C 
ATOM      7  C   LIG    1       -6.215   3.913   4.870  0.00  0.00    +0.400 A 
ATOM      8  N   LIG    1       -5.376   3.241   4.131  0.00  0.00    -0.510 NA
ATOM      9  C   LIG    1       -4.884   2.053   4.516  0.00  0.00    +0.430 A 
ATOM     10  C   LIG    1       -5.261   1.503   5.712  0.00  0.00    -0.070 A 
ATOM     11  C   LIG    1       -6.160   2.219   6.523  0.00  0.00    +0.260 A 
ATOM     12  N   LIG    1       -6.720   2.005   7.699  0.00  0.00    -0.310 NA
ATOM     13  N   LIG    1       -7.490   2.993   7.995  0.00  0.00    -0.240 NA
ATOM     14  C   LIG    1       -7.472   3.887   7.043  0.00  0.00    +0.350 A 
ATOM     15  N   LIG    1       -6.629   3.434   6.072  0.00  0.00    -0.450 N 
ENDBRANCH   1   9
BRANCH   5  16
ATOM     16  C   LIG    1       -2.804   3.165   2.544  0.00  0.00    +0.290 A 
ATOM     17  N   LIG    1       -2.101   3.527   3.569  0.00  0.00    -0.270 NA
ATOM     18  N   LIG    1       -1.615   4.820   3.330  0.00  0.00    -0.550 N 
ATOM     19  H   LIG    1       -1.058   5.344   3.927  0.00  0.00    +0.450 HD
ATOM     20  C   LIG    1       -2.066   5.200   2.116  0.00  0.00    +0.650 A 
ATOM     21  O   LIG    1       -1.848   6.266   1.568  0.00  0.00    -0.550 OA
ATOM     22  N   LIG    1       -2.797   4.182   1.621  0.00  0.00    -0.550 N 
ATOM     23  C   LIG    1       -3.472   4.164   0.321  0.00  0.00    +0.350 C 
ENDBRANCH   5  16
BRANCH   4  24
ATOM     24  C   LIG    1       -1.327   1.447   1.172  0.00  0.00    -0.060 C 
ATOM     25  C   LIG    1       -0.248   0.533   0.588  0.00  0.00    +0.030 C 
ATOM     26  C   LIG    1       -1.202   1.281  -0.345  0.00  0.00    +0.010 C 
ENDBRANCH   4  24
TORSDOF 3
