REMARK  Name = ZINCrH000004rYQf.0
REMARK                            x       y       z     vdW  Elec       q    Type
REMARK                         _______ _______ _______ _____ _____    ______ ____
ROOT
ATOM      1  C   LIG    1        2.420  -0.249   0.079  0.00  0.00    +0.610 C 
ATOM      2  N   LIG    1        2.404   1.095  -0.015  0.00  0.00    -0.660 N 
ATOM      3  H   LIG    1        3.237   1.586  -0.088  0.00  0.00    +0.420 HD
ATOM      4  O   LIG    1        1.374  -0.871   0.086  0.00  0.00    -0.510 OA
ENDROOT
BRANCH   1  12
ATOM      5  C   LIG    1        5.201  -5.044   0.511  0.00  0.00    +0.140 C 
ATOM      6  C   LIG    1        5.920  -3.721   0.443  0.00  0.00    +0.090 A 
ATOM      7  C   LIG    1        7.268  -3.691   0.488  0.00  0.00    +0.020 A 
ATOM      8  C   LIG    1        7.953  -2.465   0.426  0.00  0.00    +0.060 A 
ATOM      9  C   LIG    1        7.252  -1.306   0.321  0.00  0.00    +0.070 A 
ATOM     10  C   LIG    1        5.841  -1.352   0.275  0.00  0.00    +0.240 A 
ATOM     11  N   LIG    1        4.927  -0.402   0.172  0.00  0.00    -0.470 NA
ATOM     12  C   LIG    1        3.705  -0.967   0.174  0.00  0.00    -0.000 A 
ATOM     13  C   LIG    1        3.862  -2.320   0.274  0.00  0.00    +0.190 A 
ATOM     14  N   LIG    1        5.200  -2.564   0.338  0.00  0.00    -0.360 N 
ENDBRANCH   1  12
BRANCH   2  15
ATOM     15  C   LIG    1        1.184   1.783  -0.008  0.00  0.00    +0.120 A 
ATOM     16  C   LIG    1        1.093   3.029   0.604  0.00  0.00    +0.070 A 
ATOM     17  C   LIG    1       -0.107   3.712   0.620  0.00  0.00    -0.040 A 
ATOM     18  C   LIG    1       -1.228   3.164   0.017  0.00  0.00    +0.160 A 
ATOM     19  C   LIG    1       -1.145   1.909  -0.601  0.00  0.00    -0.030 A 
ATOM     20  C   LIG    1        0.070   1.222  -0.610  0.00  0.00    +0.130 A 
BRANCH  19  21
ATOM     21  C   LIG    1       -2.301   1.335  -1.222  0.00  0.00    +0.260 C 
ATOM     22  N   LIG    1       -3.218   0.880  -1.715  0.00  0.00    -0.400 NA
ENDBRANCH  19  21
BRANCH  18  23
ATOM     23  O   LIG    1       -2.406   3.840   0.031  0.00  0.00    -0.290 OA
BRANCH  23  24
ATOM     24  C   LIG    1       -2.416   5.113   0.679  0.00  0.00    +0.250 C 
BRANCH  24  25
ATOM     25  C   LIG    1       -3.819   5.718   0.593  0.00  0.00    +0.460 C 
ATOM     26  F   LIG    1       -4.177   5.876  -0.750  0.00  0.00    -0.170 F 
ATOM     27  F   LIG    1       -3.829   6.965   1.228  0.00  0.00    -0.170 F 
ATOM     28  F   LIG    1       -4.734   4.867   1.223  0.00  0.00    -0.170 F 
ENDBRANCH  24  25
ENDBRANCH  23  24
ENDBRANCH  18  23
ENDBRANCH   2  15
TORSDOF 6
