REMARK  Name = ZINCrD00000l41vK.0
REMARK                            x       y       z     vdW  Elec       q    Type
REMARK                         _______ _______ _______ _____ _____    ______ ____
ROOT
ATOM      1  N   LIG    1       -2.608   0.823   1.592  0.00  0.00    -0.600 N 
ATOM      2  C   LIG    1       -2.267  -0.378   2.101  0.00  0.00    +0.560 C 
ATOM      3  O   LIG    1       -1.785  -1.229   1.379  0.00  0.00    -0.530 OA
ENDROOT
BRANCH   2   4
ATOM      4  C   LIG    1       -2.479  -0.659   3.534  0.00  0.00    -0.140 A 
ATOM      5  C   LIG    1       -3.433   0.063   4.256  0.00  0.00    +0.080 A 
ATOM      6  C   LIG    1       -3.631  -0.206   5.593  0.00  0.00    +0.000 A 
ATOM      7  C   LIG    1       -2.877  -1.187   6.226  0.00  0.00    +0.160 A 
ATOM      8  C   LIG    1       -1.923  -1.904   5.512  0.00  0.00    +0.000 A 
ATOM      9  C   LIG    1       -1.723  -1.645   4.174  0.00  0.00    +0.120 A 
BRANCH   7  10
ATOM     10  N   LIG    1       -3.077  -1.454   7.584  0.00  0.00    -0.420 N 
ATOM     11  C   LIG    1       -3.972  -0.829   8.414  0.00  0.00    +0.130 A 
ATOM     12  C   LIG    1       -3.837  -1.393   9.629  0.00  0.00    +0.160 A 
ATOM     13  N   LIG    1       -2.881  -2.332   9.551  0.00  0.00    -0.480 NA
ATOM     14  C   LIG    1       -2.418  -2.378   8.332  0.00  0.00    +0.400 A 
ENDBRANCH   7  10
ENDBRANCH   2   4
BRANCH   1  16
ATOM     15  C   LIG    1       -4.628   2.018   2.277  0.00  0.00    +0.040 C 
ATOM     16  C   LIG    1       -3.118   1.874   2.475  0.00  0.00    +0.260 C 
ENDBRANCH   1  16
BRANCH   1  17
ATOM     17  C   LIG    1       -2.468   1.077   0.156  0.00  0.00    +0.350 C 
BRANCH  17  18
ATOM     18  C   LIG    1       -1.094   1.629  -0.125  0.00  0.00    -0.110 A 
ATOM     19  C   LIG    1       -0.050   0.770  -0.409  0.00  0.00    +0.050 A 
ATOM     20  C   LIG    1        1.211   1.273  -0.672  0.00  0.00    +0.020 A 
ATOM     21  C   LIG    1        1.431   2.642  -0.646  0.00  0.00    +0.060 A 
ATOM     22  O   LIG    1        2.678   3.123  -0.903  0.00  0.00    -0.310 OA
ATOM     23  C   LIG    1        2.777   4.512  -1.234  0.00  0.00    +0.220 C 
ATOM     24  C   LIG    1        1.930   5.306  -0.230  0.00  0.00    +0.220 C 
ATOM     25  O   LIG    1        0.575   4.853  -0.330  0.00  0.00    -0.310 OA
ATOM     26  C   LIG    1        0.382   3.506  -0.356  0.00  0.00    +0.050 A 
ATOM     27  C   LIG    1       -0.880   2.994  -0.092  0.00  0.00    +0.030 A 
ENDBRANCH  17  18
ENDBRANCH   1  17
TORSDOF 5
