REMARK  Name = ZINCvU000000040J.0
REMARK                            x       y       z     vdW  Elec       q    Type
REMARK                         _______ _______ _______ _____ _____    ______ ____
ROOT
ATOM      1  O   LIG    1       -5.424   2.362   1.959  0.00  0.00    -0.480 OA
ATOM      2  C   LIG    1       -6.344   2.121   1.207  0.00  0.00    +0.530 C 
ATOM      3  N   LIG    1       -7.551   2.683   1.418  0.00  0.00    -0.510 N 
ENDROOT
BRANCH   3   4
ATOM      4  C   LIG    1       -7.740   3.535   2.494  0.00  0.00    +0.320 A 
ATOM      5  N   LIG    1       -8.849   4.125   2.778  0.00  0.00    -0.510 NA
ATOM      6  C   LIG    1       -8.879   4.923   3.864  0.00  0.00    +0.110 A 
ATOM      7  C   LIG    1       -9.959   5.669   4.382  0.00  0.00    +0.050 A 
ATOM      8  C   LIG    1       -9.795   6.438   5.507  0.00  0.00    +0.030 A 
ATOM      9  C   LIG    1       -8.568   6.496   6.151  0.00  0.00    +0.020 A 
ATOM     10  C   LIG    1       -7.500   5.777   5.662  0.00  0.00    +0.070 A 
ATOM     11  C   LIG    1       -7.647   4.991   4.522  0.00  0.00    -0.220 A 
ATOM     12  S   LIG    1       -6.498   3.971   3.659  0.00  0.00    +0.170 S 
ENDBRANCH   3   4
BRANCH   3  13
ATOM     13  C   LIG    1       -8.663   2.392   0.510  0.00  0.00    +0.330 C 
BRANCH  13  14
ATOM     14  C   LIG    1       -9.429   1.168   1.016  0.00  0.00    +0.140 C 
ATOM     15  C   LIG    1      -10.567   0.800   0.031  0.00  0.00    +0.020 C 
ATOM     16  C   LIG    1      -10.748  -0.711   0.342  0.00  0.00    +0.020 C 
ATOM     17  C   LIG    1       -9.306  -1.153   0.672  0.00  0.00    +0.190 C 
ATOM     18  O   LIG    1       -8.569   0.018   1.043  0.00  0.00    -0.380 OA
ENDBRANCH  13  14
ENDBRANCH   3  13
BRANCH   2  19
ATOM     19  C   LIG    1       -6.139   1.194   0.037  0.00  0.00    +0.190 C 
BRANCH  19  20
ATOM     20  C   LIG    1       -4.713   0.706   0.027  0.00  0.00    +0.080 A 
ATOM     21  C   LIG    1       -4.408  -0.596   0.018  0.00  0.00    -0.050 A 
ATOM     22  S   LIG    1       -2.652  -0.750   0.002  0.00  0.00    +0.110 S 
ATOM     23  C   LIG    1       -2.502   1.005   0.019  0.00  0.00    +0.110 A 
ATOM     24  N   LIG    1       -3.693   1.533   0.027  0.00  0.00    -0.440 NA
BRANCH  23  25
ATOM     25  C   LIG    1       -1.230   1.758   0.017  0.00  0.00    +0.000 A 
ATOM     26  C   LIG    1       -0.013   1.076   0.008  0.00  0.00    +0.020 A 
ATOM     27  C   LIG    1        1.172   1.783   0.000  0.00  0.00    +0.050 A 
ATOM     28  C   LIG    1        1.157   3.166   0.008  0.00  0.00    +0.000 A 
ATOM     29  C   LIG    1       -0.048   3.850   0.023  0.00  0.00    +0.100 A 
ATOM     30  F   LIG    1       -0.056   5.201   0.031  0.00  0.00    -0.130 F 
ATOM     31  C   LIG    1       -1.241   3.153   0.031  0.00  0.00    +0.040 A 
ENDBRANCH  23  25
ENDBRANCH  19  20
ENDBRANCH   2  19
TORSDOF 6
