REMARK  Name = ZINCvU00000006UF.0
REMARK                            x       y       z     vdW  Elec       q    Type
REMARK                         _______ _______ _______ _____ _____    ______ ____
ROOT
ATOM      1  C   LIG    1        1.634   2.160  -0.707  0.00  0.00    +0.150 A 
ATOM      2  N   LIG    1        2.482   1.272  -0.236  0.00  0.00    -0.290 NA
ATOM      3  N   LIG    1        3.673   1.753  -0.244  0.00  0.00    -0.250 NA
ATOM      4  C   LIG    1        3.660   2.976  -0.720  0.00  0.00    +0.220 A 
ATOM      5  N   LIG    1        2.355   3.272  -1.037  0.00  0.00    -0.440 N 
ENDROOT
BRANCH   4   6
ATOM      6  C   LIG    1        4.829   3.865  -0.890  0.00  0.00    -0.010 A 
ATOM      7  C   LIG    1        5.023   4.546  -2.092  0.00  0.00    +0.040 A 
ATOM      8  C   LIG    1        6.112   5.380  -2.242  0.00  0.00    +0.030 A 
ATOM      9  C   LIG    1        7.019   5.532  -1.208  0.00  0.00    +0.050 A 
ATOM     10  C   LIG    1        6.837   4.856  -0.015  0.00  0.00    +0.030 A 
ATOM     11  C   LIG    1        5.747   4.023   0.151  0.00  0.00    -0.000 A 
ATOM     12 CL   LIG    1        5.520   3.175   1.649  0.00  0.00    -0.040 Cl
ENDBRANCH   4   6
BRANCH   5  13
ATOM     13  C   LIG    1        1.843   4.521  -1.606  0.00  0.00    +0.230 C 
ATOM     14  C   LIG    1        0.819   5.160  -0.646  0.00  0.00    +0.020 C 
ATOM     15  C   LIG    1       -0.255   5.765  -1.583  0.00  0.00    +0.030 C 
ATOM     16  C   LIG    1       -0.359   4.708  -2.711  0.00  0.00    +0.040 C 
ATOM     17  C   LIG    1        1.094   4.234  -2.920  0.00  0.00    +0.020 C 
ENDBRANCH   5  13
BRANCH   1  18
ATOM     18  S   LIG    1       -0.106   1.950  -0.887  0.00  0.00    +0.090 S 
BRANCH  18  19
ATOM     19  C   LIG    1       -0.286   0.262  -0.259  0.00  0.00    +0.000 C 
ATOM     20  C   LIG    1        0.445  -0.708  -1.188  0.00  0.00    +0.090 C 
BRANCH  19  23
ATOM     21  N   LIG    1       -2.176  -1.044   0.658  0.00  0.00    -0.630 N 
ATOM     22  H   LIG    1       -1.536  -1.542   1.189  0.00  0.00    +0.410 HD
ATOM     23  C   LIG    1       -1.748  -0.100  -0.203  0.00  0.00    +0.530 C 
ATOM     24  O   LIG    1       -2.539   0.459  -0.933  0.00  0.00    -0.500 OA
BRANCH  21  32
ATOM     25  C   LIG    1       -4.424   1.072   0.245  0.00  0.00    +0.160 C 
ATOM     26  C   LIG    1       -4.591  -0.381   0.609  0.00  0.00    +0.090 A 
ATOM     27  N   LIG    1       -5.729  -0.995   0.808  0.00  0.00    -0.290 NA
ATOM     28  N   LIG    1       -5.459  -2.331   1.130  0.00  0.00    -0.370 N 
ATOM     29  C   LIG    1       -4.112  -2.501   1.111  0.00  0.00    +0.060 A 
ATOM     30  C   LIG    1       -3.372  -3.782   1.398  0.00  0.00    +0.150 C 
ATOM     31  C   LIG    1       -6.454  -3.362   1.433  0.00  0.00    +0.360 C 
ATOM     32  C   LIG    1       -3.553  -1.307   0.787  0.00  0.00    -0.010 A 
ENDBRANCH  21  32
ENDBRANCH  19  23
ENDBRANCH  18  19
ENDBRANCH   1  18
TORSDOF 6
