REMARK  Name = ZINCrD000000CY0g.0
REMARK                            x       y       z     vdW  Elec       q    Type
REMARK                         _______ _______ _______ _____ _____    ______ ____
ROOT
ATOM      1  N   LIG    1        1.784   2.300  -1.157  0.00  0.00    -0.720 N 
ATOM      2  H   LIG    1        1.346   1.791  -1.858  0.00  0.00    +0.410 HD
ENDROOT
BRANCH   1   5
ATOM      3  O   LIG    1        2.996   1.166   1.475  0.00  0.00    -0.490 OA
ATOM      4  C   LIG    1        1.882   1.144   0.997  0.00  0.00    +0.500 C 
ATOM      5  C   LIG    1        1.255   2.272   0.208  0.00  0.00    +0.250 C 
ATOM      6  C   LIG    1       -0.254   1.935   0.197  0.00  0.00    +0.070 C 
ATOM      7  C   LIG    1       -0.236   0.403   0.394  0.00  0.00    +0.260 C 
ATOM      8  N   LIG    1        1.024   0.113   1.090  0.00  0.00    -0.560 N 
BRANCH   8   9
ATOM      9  C   LIG    1        1.297  -1.083   1.764  0.00  0.00    +0.170 A 
ATOM     10  C   LIG    1        2.563  -1.314   2.286  0.00  0.00    +0.020 A 
ATOM     11  C   LIG    1        2.828  -2.493   2.955  0.00  0.00    +0.060 A 
ATOM     12  C   LIG    1        1.837  -3.448   3.096  0.00  0.00    -0.060 A 
ATOM     13  C   LIG    1        0.576  -3.223   2.571  0.00  0.00    +0.060 A 
ATOM     14 CL   LIG    1        2.175  -4.931   3.932  0.00  0.00    -0.070 Cl
ATOM     15  C   LIG    1        0.304  -2.044   1.905  0.00  0.00    -0.020 A 
ENDBRANCH   8   9
ENDBRANCH   1   5
BRANCH   1  16
ATOM     16  C   LIG    1        2.919   3.059  -1.451  0.00  0.00    +0.230 A 
ATOM     17  C   LIG    1        3.611   3.700  -0.431  0.00  0.00    -0.060 A 
ATOM     18  C   LIG    1        4.734   4.449  -0.725  0.00  0.00    +0.050 A 
ATOM     19  C   LIG    1        5.169   4.561  -2.033  0.00  0.00    -0.050 A 
ATOM     20  C   LIG    1        4.482   3.925  -3.051  0.00  0.00    +0.050 A 
ATOM     21  C   LIG    1        3.362   3.170  -2.763  0.00  0.00    -0.150 A 
BRANCH  21  22
ATOM     22  C   LIG    1        2.618   2.472  -3.872  0.00  0.00    +0.230 C 
BRANCH  22  23
ATOM     23  N   LIG    1        2.899   1.031  -3.819  0.00  0.00    -0.530 NA
ATOM     24  C   LIG    1        4.274   0.747  -4.256  0.00  0.00    +0.150 C 
ATOM     25  C   LIG    1        4.543  -0.755  -4.129  0.00  0.00    +0.220 C 
ATOM     26  O   LIG    1        3.572  -1.475  -4.893  0.00  0.00    -0.380 OA
ATOM     27  C   LIG    1        2.223  -1.222  -4.494  0.00  0.00    +0.220 C 
ATOM     28  C   LIG    1        1.929   0.275  -4.625  0.00  0.00    +0.150 C 
ENDBRANCH  22  23
ENDBRANCH  21  22
ENDBRANCH   1  16
TORSDOF 5
