REMARK  Name = ZINCkj000005gIrs.0
REMARK                            x       y       z     vdW  Elec       q    Type
REMARK                         _______ _______ _______ _____ _____    ______ ____
ROOT
ATOM      1  C   LIG    1       -0.017   1.378   0.010  0.00  0.00    -0.170 A 
ATOM      2  C   LIG    1        0.002  -0.004   0.002  0.00  0.00    +0.060 A 
ATOM      3  C   LIG    1        1.209  -0.679  -0.014  0.00  0.00    +0.030 A 
ATOM      4  C   LIG    1        2.396   0.028  -0.022  0.00  0.00    +0.160 A 
ATOM      5  C   LIG    1        2.377   1.411  -0.014  0.00  0.00    -0.670 A 
ATOM      6  C   LIG    1        1.171   2.085   0.002  0.00  0.00    +0.160 A 
ENDROOT
BRANCH   5   7
ATOM      7  S   LIG    1        3.891   2.312  -0.024  0.00  0.00    +2.690 S 
ATOM      8  O   LIG    1        4.881   1.441   0.506  0.00  0.00    -0.940 OA
ATOM      9  O   LIG    1        3.602   3.588   0.530  0.00  0.00    -0.940 OA
BRANCH   7  10
ATOM     10  N   LIG    1        4.296   2.572  -1.609  0.00  0.00    -1.000 NA
ATOM     11  C   LIG    1        5.125   1.597  -2.322  0.00  0.00    +0.320 C 
ATOM     12  C   LIG    1        3.827   3.776  -2.297  0.00  0.00    +0.310 C 
ENDBRANCH   7  10
ENDBRANCH   5   7
BRANCH   1  13
ATOM     13  C   LIG    1       -1.332   2.114   0.020  0.00  0.00    +0.230 C 
ATOM     14  C   LIG    1       -1.893   2.136   1.443  0.00  0.00    +0.100 C 
BRANCH  13  15
ATOM     15  N   LIG    1       -2.281   1.431  -0.870  0.00  0.00    -0.510 N 
ATOM     16  H   LIG    1       -2.486   0.514  -0.503  0.00  0.00    +0.430 HD
ATOM     17  H   LIG    1       -1.877   1.344  -1.790  0.00  0.00    +0.430 HD
BRANCH  15  18
ATOM     18  C   LIG    1       -3.522   2.213  -0.953  0.00  0.00    +0.230 C 
BRANCH  18  19
ATOM     19  C   LIG    1       -4.511   1.503  -1.879  0.00  0.00    +0.200 C 
BRANCH  19  21
ATOM     20  C   LIG    1       -6.687   1.725  -3.088  0.00  0.00    +0.040 C 
ATOM     21  C   LIG    1       -5.753   2.376  -2.066  0.00  0.00    +0.010 C 
ENDBRANCH  19  21
BRANCH  19  22
ATOM     22  O   LIG    1       -4.891   0.252  -1.302  0.00  0.00    -0.550 OA
ATOM     23  H   LIG    1       -5.316   0.331  -0.437  0.00  0.00    +0.390 HD
ENDBRANCH  19  22
ENDBRANCH  18  19
ENDBRANCH  15  18
ENDBRANCH  13  15
ENDBRANCH   1  13
TORSDOF 8
