REMARK  Name = ZINCrD000000BoJB.0
REMARK                            x       y       z     vdW  Elec       q    Type
REMARK                         _______ _______ _______ _____ _____    ______ ____
ROOT
ATOM      1  O   LIG    1       -1.197  -6.528   6.259  0.00  0.00    -0.560 OA
ATOM      2  C   LIG    1       -0.433  -6.904   5.391  0.00  0.00    +0.710 C 
ATOM      3  N   LIG    1       -0.006  -8.183   5.377  0.00  0.00    -0.680 N 
ATOM      4  H   LIG    1        0.536  -8.505   4.640  0.00  0.00    +0.420 HD
ATOM      5  N   LIG    1       -0.013  -6.043   4.443  0.00  0.00    -0.730 N 
ATOM      6  H   LIG    1        0.596  -6.344   3.750  0.00  0.00    +0.400 HD
ENDROOT
BRANCH   3   7
ATOM      7  C   LIG    1       -0.347  -9.046   6.426  0.00  0.00    +0.200 A 
ATOM      8  C   LIG    1       -0.651  -8.533   7.679  0.00  0.00    +0.070 A 
ATOM      9  C   LIG    1       -0.992  -9.386   8.710  0.00  0.00    +0.140 A 
ATOM     10  C   LIG    1       -1.020 -10.752   8.500  0.00  0.00    -0.040 A 
ATOM     11  C   LIG    1       -0.712 -11.270   7.255  0.00  0.00    +0.110 A 
ATOM     12  C   LIG    1       -0.375 -10.421   6.216  0.00  0.00    +0.070 A 
ATOM     13  F   LIG    1       -0.074 -10.926   5.000  0.00  0.00    -0.120 F 
BRANCH  10  14
ATOM     14  N   LIG    1       -1.381 -11.663   9.609  0.00  0.00    +0.030 N 
ATOM     15  O   LIG    1       -1.652 -11.209  10.706  0.00  0.00    -0.150 OA
ATOM     16  O   LIG    1       -1.405 -12.867   9.425  0.00  0.00    -0.160 OA
ENDBRANCH  10  14
ENDBRANCH   3   7
BRANCH   5  17
ATOM     17  C   LIG    1       -0.477  -4.654   4.458  0.00  0.00    +0.340 C 
BRANCH  17  18
ATOM     18  C   LIG    1        0.134  -3.908   3.300  0.00  0.00    -0.100 A 
ATOM     19  C   LIG    1       -0.517  -3.869   2.081  0.00  0.00    +0.030 A 
ATOM     20  C   LIG    1        0.045  -3.184   1.020  0.00  0.00    +0.050 A 
ATOM     21  C   LIG    1        1.257  -2.539   1.176  0.00  0.00    -0.100 A 
ATOM     22  C   LIG    1        1.910  -2.582   2.394  0.00  0.00    +0.030 A 
ATOM     23  C   LIG    1        1.347  -3.262   3.457  0.00  0.00    +0.030 A 
BRANCH  21  24
ATOM     24  C   LIG    1        1.869  -1.793   0.019  0.00  0.00    +0.370 C 
BRANCH  24  25
ATOM     25  N   LIG    1        1.406  -0.404   0.033  0.00  0.00    -0.370 N 
ATOM     26  C   LIG    1        2.190   0.695   0.043  0.00  0.00    +0.220 A 
ATOM     27  C   LIG    1        1.381   1.779   0.055  0.00  0.00    -0.120 A 
ATOM     28  C   LIG    1        0.057   1.328   0.052  0.00  0.00    +0.220 A 
ATOM     29  N   LIG    1        0.070   0.020   0.039  0.00  0.00    -0.290 NA
ENDBRANCH  24  25
ENDBRANCH  21  24
ENDBRANCH  17  18
ENDBRANCH   5  17
TORSDOF 6
