REMARK  Name = ZINCrg00000fSBeO.0
REMARK                            x       y       z     vdW  Elec       q    Type
REMARK                         _______ _______ _______ _____ _____    ______ ____
ROOT
ATOM      1  O   LIG    1       -4.934   1.081  -1.102  0.00  0.00    -0.490 OA
ATOM      2  C   LIG    1       -4.212   0.148  -1.384  0.00  0.00    +0.500 C 
ATOM      3  N   LIG    1       -2.877   0.260  -1.235  0.00  0.00    -0.720 N 
ATOM      4  H   LIG    1       -2.300  -0.487  -1.461  0.00  0.00    +0.400 HD
ENDROOT
BRANCH   3   5
ATOM      5  C   LIG    1       -2.298   1.508  -0.733  0.00  0.00    +0.260 C 
ATOM      6  C   LIG    1       -0.825   1.630  -1.193  0.00  0.00    +0.050 C 
ATOM      7  C   LIG    1       -0.013   1.086   0.008  0.00  0.00    -0.020 C 
ATOM      8  C   LIG    1       -0.802   1.617   1.230  0.00  0.00    +0.020 C 
ATOM      9  C   LIG    1       -2.281   1.500   0.805  0.00  0.00    +0.150 C 
BRANCH   9  10
ATOM     10  O   LIG    1       -3.025   2.611   1.309  0.00  0.00    -0.560 OA
ATOM     11  H   LIG    1       -3.033   2.673   2.274  0.00  0.00    +0.380 HD
ENDBRANCH   9  10
BRANCH   7  12
ATOM     12  C   LIG    1        1.411   1.645  -0.003  0.00  0.00    +0.330 C 
BRANCH  12  13
ATOM     13  N   LIG    1        2.171   1.068   1.109  0.00  0.00    -0.370 N 
ATOM     14  C   LIG    1        3.344   0.407   1.010  0.00  0.00    +0.220 A 
ATOM     15  C   LIG    1        3.716   0.039   2.258  0.00  0.00    -0.120 A 
ATOM     16  C   LIG    1        2.732   0.481   3.149  0.00  0.00    +0.220 A 
ATOM     17  N   LIG    1        1.806   1.098   2.461  0.00  0.00    -0.290 NA
ENDBRANCH  12  13
ENDBRANCH   7  12
ENDBRANCH   3   5
BRANCH   2  18
ATOM     18  C   LIG    1       -4.808  -1.136  -1.900  0.00  0.00    +0.370 C 
BRANCH  18  19
ATOM     19  N   LIG    1       -6.266  -1.005  -1.970  0.00  0.00    -0.280 N 
ATOM     20  C   LIG    1       -7.026  -1.216  -3.068  0.00  0.00    +0.150 A 
ATOM     21  C   LIG    1       -8.315  -0.982  -2.684  0.00  0.00    +0.020 A 
ATOM     22  N   LIG    1       -8.264  -0.645  -1.383  0.00  0.00    -0.250 NA
ATOM     23  N   LIG    1       -7.038  -0.674  -0.996  0.00  0.00    -0.050 NA
BRANCH  21  24
ATOM     24  C   LIG    1       -9.529  -1.080  -3.533  0.00  0.00    -0.010 A 
ATOM     25  C   LIG    1       -9.418  -1.439  -4.875  0.00  0.00    +0.010 A 
ATOM     26  C   LIG    1      -10.550  -1.534  -5.658  0.00  0.00    +0.010 A 
ATOM     27  C   LIG    1      -11.794  -1.263  -5.115  0.00  0.00    +0.010 A 
ATOM     28  C   LIG    1      -11.910  -0.902  -3.785  0.00  0.00    +0.010 A 
ATOM     29  C   LIG    1      -10.784  -0.809  -2.992  0.00  0.00    +0.040 A 
ENDBRANCH  21  24
ENDBRANCH  18  19
ENDBRANCH   2  18
TORSDOF 7
