REMARK  Name = ZINCvU0000000Hex.0
REMARK                            x       y       z     vdW  Elec       q    Type
REMARK                         _______ _______ _______ _____ _____    ______ ____
ROOT
ATOM      1  O   LIG    1       -0.029   0.002   0.326  0.00  0.00    -0.510 OA
ATOM      2  C   LIG    1       -0.027   1.208   0.176  0.00  0.00    +0.560 C 
ATOM      3  N   LIG    1       -1.191   1.870   0.018  0.00  0.00    -0.670 N 
ATOM      4  H   LIG    1       -1.196   2.839  -0.024  0.00  0.00    +0.410 HD
ENDROOT
BRANCH   2   5
ATOM      5  C   LIG    1        1.250   1.948   0.163  0.00  0.00    -0.180 A 
ATOM      6  C   LIG    1        1.254   3.334  -0.014  0.00  0.00    +0.090 A 
ATOM      7  C   LIG    1        2.448   4.022  -0.022  0.00  0.00    -0.080 A 
ATOM      8  C   LIG    1        3.647   3.337   0.136  0.00  0.00    +0.160 A 
ATOM      9  C   LIG    1        3.647   1.958   0.308  0.00  0.00    -0.020 A 
ATOM     10  C   LIG    1        2.458   1.264   0.321  0.00  0.00    +0.140 A 
BRANCH   8  11
ATOM     11  O   LIG    1        4.822   4.017   0.122  0.00  0.00    -0.300 OA
BRANCH  11  12
ATOM     12  C   LIG    1        4.749   5.433  -0.058  0.00  0.00    +0.210 C 
BRANCH  12  13
ATOM     13  C   LIG    1        6.161   6.022  -0.046  0.00  0.00    +0.160 C 
ATOM     14  C   LIG    1        6.112   7.544  -0.330  0.00  0.00    +0.020 C 
ATOM     15  C   LIG    1        7.430   8.012   0.347  0.00  0.00    +0.010 C 
ATOM     16  C   LIG    1        7.538   7.055   1.554  0.00  0.00    +0.190 C 
ATOM     17  O   LIG    1        6.740   5.901   1.264  0.00  0.00    -0.370 OA
ENDBRANCH  12  13
ENDBRANCH  11  12
ENDBRANCH   8  11
ENDBRANCH   2   5
BRANCH   3  18
ATOM     18  C   LIG    1       -2.391   1.159  -0.086  0.00  0.00    +0.150 A 
ATOM     19  C   LIG    1       -3.565   1.699   0.424  0.00  0.00    +0.000 A 
ATOM     20  C   LIG    1       -4.753   1.000   0.324  0.00  0.00    +0.050 A 
ATOM     21  C   LIG    1       -4.782  -0.238  -0.284  0.00  0.00    +0.000 A 
ATOM     22  C   LIG    1       -3.607  -0.790  -0.800  0.00  0.00    -0.010 A 
ATOM     23  C   LIG    1       -2.410  -0.083  -0.703  0.00  0.00    +0.080 A 
BRANCH  22  24
ATOM     24  C   LIG    1       -3.635  -2.117  -1.452  0.00  0.00    +0.320 A 
ATOM     25  N   LIG    1       -2.595  -2.725  -1.968  0.00  0.00    -0.470 NA
ATOM     26  C   LIG    1       -2.975  -3.920  -2.482  0.00  0.00    +0.050 A 
ATOM     27  C   LIG    1       -2.286  -4.948  -3.134  0.00  0.00    +0.070 A 
ATOM     28  C   LIG    1       -2.959  -6.063  -3.548  0.00  0.00    +0.000 A 
ATOM     29  C   LIG    1       -4.324  -6.188  -3.329  0.00  0.00    +0.030 A 
ATOM     30  C   LIG    1       -5.024  -5.187  -2.688  0.00  0.00    +0.010 A 
ATOM     31  C   LIG    1       -4.358  -4.047  -2.260  0.00  0.00    +0.050 A 
ATOM     32  N   LIG    1       -4.750  -2.897  -1.603  0.00  0.00    -0.600 N 
ATOM     33  H   LIG    1       -5.647  -2.682  -1.306  0.00  0.00    +0.420 HD
ENDBRANCH  22  24
ENDBRANCH   3  18
TORSDOF 6
