REMARK  Name = ZINCrg000000oLYb.0
REMARK                            x       y       z     vdW  Elec       q    Type
REMARK                         _______ _______ _______ _____ _____    ______ ____
ROOT
ATOM      1  C   LIG    1       -0.846  -4.520  -0.102  0.00  0.00    +0.570 C 
ATOM      2  N   LIG    1       -1.342  -3.387  -0.637  0.00  0.00    -0.640 N 
ATOM      3  H   LIG    1       -2.239  -3.378  -1.008  0.00  0.00    +0.430 HD
ATOM      4  O   LIG    1        0.277  -4.531   0.363  0.00  0.00    -0.510 OA
ENDROOT
BRANCH   1   8
ATOM      5  C   LIG    1       -3.209  -8.056  -0.039  0.00  0.00    -0.090 A 
ATOM      6  C   LIG    1       -1.920  -8.069   0.495  0.00  0.00    +0.080 A 
ATOM      7  C   LIG    1       -1.154  -6.923   0.475  0.00  0.00    +0.100 A 
ATOM      8  C   LIG    1       -1.668  -5.750  -0.080  0.00  0.00    -0.120 A 
ATOM      9  C   LIG    1       -2.960  -5.736  -0.609  0.00  0.00    +0.050 A 
ATOM     10  C   LIG    1       -3.724  -6.883  -0.593  0.00  0.00    +0.050 A 
BRANCH   5  13
ATOM     11  C   LIG    1       -6.177 -10.417   0.221  0.00  0.00    +0.310 C 
ATOM     12  N   LIG    1       -5.372  -9.199   0.103  0.00  0.00    -0.610 N 
ATOM     13  C   LIG    1       -4.032  -9.286  -0.017  0.00  0.00    +0.550 C 
ATOM     14  O   LIG    1       -3.500 -10.375  -0.106  0.00  0.00    -0.520 OA
ATOM     15  C   LIG    1       -6.022  -7.887   0.116  0.00  0.00    +0.300 C 
ENDBRANCH   5  13
ENDBRANCH   1   8
BRANCH   2  16
ATOM     16  C   LIG    1       -0.573  -2.236  -0.658  0.00  0.00    +0.400 A 
ATOM     17  C   LIG    1       -0.950  -1.000  -1.174  0.00  0.00    -0.220 A 
ATOM     18  C   LIG    1        0.145  -0.119  -0.982  0.00  0.00    +0.320 A 
ATOM     19  N   LIG    1        1.106  -0.789  -0.398  0.00  0.00    -0.310 NA
ATOM     20  N   LIG    1        0.682  -2.104  -0.181  0.00  0.00    -0.440 N 
ATOM     21  H   LIG    1        1.204  -2.805   0.239  0.00  0.00    +0.460 HD
BRANCH  18  22
ATOM     22  N   LIG    1        0.192   1.225  -1.356  0.00  0.00    -0.450 N 
ATOM     23  C   LIG    1       -0.078   1.382  -2.793  0.00  0.00    +0.170 C 
ATOM     24  C   LIG    1       -0.075   2.871  -3.147  0.00  0.00    +0.240 C 
ATOM     25  O   LIG    1        1.178   3.445  -2.766  0.00  0.00    -0.380 OA
ATOM     26  C   LIG    1        1.473   3.311  -1.373  0.00  0.00    +0.230 C 
ATOM     27  C   LIG    1        1.486   1.826  -1.001  0.00  0.00    +0.180 C 
ENDBRANCH  18  22
BRANCH  17  28
ATOM     28  C   LIG    1       -2.205  -0.678  -1.784  0.00  0.00    +0.290 C 
ATOM     29  N   LIG    1       -3.201  -0.424  -2.267  0.00  0.00    -0.420 NA
ENDBRANCH  17  28
ENDBRANCH   2  16
TORSDOF 5
