REMARK  Name = ZINCrD000000CQX3.0
REMARK                            x       y       z     vdW  Elec       q    Type
REMARK                         _______ _______ _______ _____ _____    ______ ____
ROOT
ATOM      1  O   LIG    1       -3.011   2.935   1.544  0.00  0.00    -0.530 OA
ATOM      2  C   LIG    1       -2.235   2.345   0.823  0.00  0.00    +0.520 C 
ATOM      3  C   LIG    1       -2.415   2.145  -0.670  0.00  0.00    +0.080 C 
ATOM      4  C   LIG    1       -1.032   1.701  -1.148  0.00  0.00    -0.090 C 
ATOM      5  C   LIG    1       -0.380   1.131   0.111  0.00  0.00    +0.290 C 
ATOM      6  C   LIG    1       -0.226   2.858  -1.751  0.00  0.00    +0.070 C 
ATOM      7  C   LIG    1       -0.653   2.833  -3.237  0.00  0.00    +0.240 C 
ATOM      8  N   LIG    1       -1.195   1.494  -3.515  0.00  0.00    -0.630 N 
ATOM      9  C   LIG    1       -1.691   1.078  -4.697  0.00  0.00    +0.720 C 
ATOM     10  N   LIG    1       -1.718   1.919  -5.750  0.00  0.00    -0.680 N 
ATOM     11  H   LIG    1       -1.453   2.846  -5.638  0.00  0.00    +0.410 HD
ATOM     12  O   LIG    1       -2.114  -0.056  -4.815  0.00  0.00    -0.560 OA
ATOM     13  C   LIG    1       -1.106   0.679  -2.286  0.00  0.00    +0.310 C 
ATOM     14  N   LIG    1       -1.085   1.772   1.233  0.00  0.00    -0.730 N 
ATOM     15  H   LIG    1       -0.763   1.780   2.148  0.00  0.00    +0.410 HD
ENDROOT
BRANCH  10  16
ATOM     16  C   LIG    1       -2.128   1.457  -7.005  0.00  0.00    +0.200 A 
ATOM     17  C   LIG    1       -2.809   2.306  -7.868  0.00  0.00    -0.020 A 
ATOM     18  C   LIG    1       -3.214   1.854  -9.106  0.00  0.00    +0.090 A 
ATOM     19  C   LIG    1       -2.941   0.543  -9.492  0.00  0.00    -0.100 A 
ATOM     20  C   LIG    1       -2.256  -0.309  -8.624  0.00  0.00    +0.140 A 
ATOM     21  F   LIG    1       -1.990  -1.581  -8.994  0.00  0.00    -0.130 F 
ATOM     22  C   LIG    1       -1.848   0.151  -7.387  0.00  0.00    -0.010 A 
BRANCH  19  23
ATOM     23  C   LIG    1       -3.376   0.055 -10.823  0.00  0.00    -0.020 A 
ATOM     24  C   LIG    1       -2.471  -0.595 -11.660  0.00  0.00    +0.020 A 
ATOM     25  C   LIG    1       -2.881  -1.049 -12.898  0.00  0.00    +0.050 A 
ATOM     26  C   LIG    1       -4.187  -0.860 -13.309  0.00  0.00    -0.010 A 
ATOM     27  C   LIG    1       -5.092  -0.214 -12.482  0.00  0.00    +0.100 A 
ATOM     28  F   LIG    1       -6.367  -0.032 -12.890  0.00  0.00    -0.140 F 
ATOM     29  C   LIG    1       -4.694   0.239 -11.239  0.00  0.00    +0.000 A 
ENDBRANCH  19  23
ENDBRANCH  10  16
TORSDOF 2
