REMARK  Name = ZINCrH000004uqVA.0
REMARK                            x       y       z     vdW  Elec       q    Type
REMARK                         _______ _______ _______ _____ _____    ______ ____
ROOT
ATOM      1  O   LIG    1        4.261   1.622   0.570  0.00  0.00    -0.570 OA
ATOM      2  C   LIG    1        4.453   0.440   0.361  0.00  0.00    +0.700 C 
ATOM      3  N   LIG    1        3.408  -0.385   0.149  0.00  0.00    -0.680 N 
ATOM      4  H   LIG    1        3.556  -1.337   0.037  0.00  0.00    +0.410 HD
ATOM      5  N   LIG    1        5.710  -0.046   0.340  0.00  0.00    -0.740 N 
ATOM      6  H   LIG    1        5.862  -0.989   0.172  0.00  0.00    +0.400 HD
ENDROOT
BRANCH   3   7
ATOM      7  C   LIG    1        2.110   0.131   0.091  0.00  0.00    +0.130 A 
ATOM      8  C   LIG    1        1.794   1.321   0.739  0.00  0.00    +0.080 A 
ATOM      9  C   LIG    1        0.493   1.793   0.653  0.00  0.00    -0.010 A 
ATOM     10  C   LIG    1       -0.445   1.076  -0.067  0.00  0.00    +0.240 A 
ATOM     11  N   LIG    1       -0.122  -0.049  -0.672  0.00  0.00    -0.450 NA
ATOM     12  C   LIG    1        1.109  -0.540  -0.619  0.00  0.00    +0.130 A 
BRANCH  12  13
ATOM     13  C   LIG    1        1.425  -1.810  -1.316  0.00  0.00    -0.040 A 
ATOM     14  C   LIG    1        2.624  -1.944  -2.015  0.00  0.00    +0.000 A 
ATOM     15  C   LIG    1        2.916  -3.129  -2.659  0.00  0.00    +0.010 A 
ATOM     16  C   LIG    1        2.017  -4.180  -2.620  0.00  0.00    +0.020 A 
ATOM     17  C   LIG    1        0.824  -4.051  -1.931  0.00  0.00    +0.010 A 
ATOM     18  C   LIG    1        0.523  -2.872  -1.280  0.00  0.00    +0.050 A 
ENDBRANCH  12  13
ENDBRANCH   3   7
BRANCH   5  19
ATOM     19  C   LIG    1        6.845   0.850   0.569  0.00  0.00    +0.300 C 
BRANCH  19  20
ATOM     20  C   LIG    1        8.149   0.052   0.493  0.00  0.00    -0.020 C 
ATOM     21  C   LIG    1        8.265  -0.903   1.703  0.00  0.00    +0.040 C 
ATOM     22  C   LIG    1        9.768  -0.819   2.067  0.00  0.00    +0.170 C 
ATOM     23  N   LIG    1       10.096   0.610   1.831  0.00  0.00    -0.510 NA
ATOM     24  C   LIG    1        9.360   0.996   0.607  0.00  0.00    +0.200 C 
BRANCH  23  25
ATOM     25  C   LIG    1       11.543   0.796   1.656  0.00  0.00    +0.200 C 
BRANCH  25  26
ATOM     26  C   LIG    1       12.285   0.161   2.833  0.00  0.00    +0.460 C 
ATOM     27  F   LIG    1       11.877   0.769   4.025  0.00  0.00    -0.170 F 
ATOM     28  F   LIG    1       13.663   0.338   2.666  0.00  0.00    -0.180 F 
ATOM     29  F   LIG    1       11.994  -1.207   2.884  0.00  0.00    -0.180 F 
ENDBRANCH  25  26
ENDBRANCH  23  25
ENDBRANCH  19  20
ENDBRANCH   5  19
TORSDOF 6
