REMARK  Name = ZINCpe00000Jn6ZZ.2
REMARK                            x       y       z     vdW  Elec       q    Type
REMARK                         _______ _______ _______ _____ _____    ______ ____
ROOT
ATOM      1  C   LIG    1        4.574   5.645   0.130  0.00  0.00    +0.300 C 
ENDROOT
BRANCH   1   3
ATOM      2  C   LIG    1        4.574   7.592   1.697  0.00  0.00    +0.240 C 
ATOM      3  C   LIG    1        4.598   6.065   1.601  0.00  0.00    -0.010 C 
ATOM      4  C   LIG    1        3.370   5.494   2.316  0.00  0.00    +0.020 C 
ATOM      5  C   LIG    1        3.371   5.968   3.772  0.00  0.00    +0.020 C 
ATOM      6  C   LIG    1        3.383   7.498   3.805  0.00  0.00    +0.180 C 
ATOM      7  N   LIG    1        4.577   7.995   3.110  0.00  0.00    -0.540 NA
ATOM      8  C   LIG    1        4.694   9.453   3.241  0.00  0.00    +0.190 C 
BRANCH   2  14
ATOM      9  C   LIG    1        7.578   6.994   2.374  0.00  0.00    +0.320 C 
ATOM     10  N   LIG    1        7.099   7.888   1.317  0.00  0.00    -0.440 N 
ATOM     11  C   LIG    1        7.863   8.600   0.461  0.00  0.00    +0.380 A 
ATOM     12  N   LIG    1        7.081   9.277  -0.335  0.00  0.00    -0.490 NA
ATOM     13  C   LIG    1        5.803   9.020  -0.022  0.00  0.00    +0.150 A 
ATOM     14  C   LIG    1        5.792   8.157   1.012  0.00  0.00    -0.010 A 
ENDBRANCH   2  14
ENDBRANCH   1   3
BRANCH   1  15
ATOM     15  N   LIG    1        4.712   4.190   0.035  0.00  0.00    -0.590 N 
ATOM     16  C   LIG    1        6.042   3.586  -0.069  0.00  0.00    +0.310 C 
BRANCH  15  17
ATOM     17  C   LIG    1        3.585   3.385   0.043  0.00  0.00    +0.360 A 
ATOM     18  C   LIG    1        3.718   1.996   0.059  0.00  0.00    -0.040 A 
ATOM     19  C   LIG    1        2.564   1.232   0.072  0.00  0.00    +0.140 A 
ATOM     20  C   LIG    1        1.334   1.900   0.060  0.00  0.00    -0.040 A 
ATOM     21  N   LIG    1        1.303   3.228   0.045  0.00  0.00    -0.160 NA
ATOM     22  N   LIG    1        2.375   3.935   0.037  0.00  0.00    -0.300 NA
BRANCH  20  23
ATOM     23  C   LIG    1        0.072   1.130   0.069  0.00  0.00    +0.590 C 
ATOM     24  O   LIG    1        0.102  -0.085   0.082  0.00  0.00    -0.540 OA
ATOM     25  N   LIG    1       -1.112   1.775   0.056  0.00  0.00    -0.840 N 
ATOM     26  H   LIG    1       -1.135   2.744   0.046  0.00  0.00    +0.410 HD
ATOM     27  H   LIG    1       -1.939   1.269   0.058  0.00  0.00    +0.410 HD
ENDBRANCH  20  23
ENDBRANCH  15  17
ENDBRANCH   1  15
TORSDOF 5
