REMARK  Name = ZINCpk000000pADg.0
REMARK                            x       y       z     vdW  Elec       q    Type
REMARK                         _______ _______ _______ _____ _____    ______ ____
ROOT
ATOM      1  C   LIG    1       -1.330   1.944   0.019  0.00  0.00    +0.240 C 
ATOM      2  C   LIG    1       -1.401   2.852  -1.230  0.00  0.00    +0.170 C 
ATOM      3  S   LIG    1       -3.188   2.737  -1.659  0.00  0.00    -0.240 S 
ATOM      4  C   LIG    1       -3.352   1.007  -1.054  0.00  0.00    +0.400 C 
ATOM      5  N   LIG    1       -2.409   0.971   0.077  0.00  0.00    -0.980 NA
ENDROOT
BRANCH   1   8
ATOM      6  N   LIG    1        1.143   1.898   0.001  0.00  0.00    -0.720 N 
ATOM      7  H   LIG    1        1.130   2.868   0.007  0.00  0.00    +0.400 HD
ATOM      8  C   LIG    1       -0.014   1.209   0.009  0.00  0.00    +0.500 C 
ATOM      9  O   LIG    1        0.002  -0.004   0.002  0.00  0.00    -0.500 OA
BRANCH   6  10
ATOM     10  C   LIG    1        2.422   1.183  -0.015  0.00  0.00    +0.230 C 
ATOM     11  C   LIG    1        2.819   0.817   1.417  0.00  0.00    +0.030 C 
BRANCH  10  13
ATOM     12  C   LIG    1        3.165   2.343  -2.099  0.00  0.00    +0.020 C 
ATOM     13  C   LIG    1        3.499   2.078  -0.630  0.00  0.00    +0.020 C 
ENDBRANCH  10  13
ENDBRANCH   6  10
ENDBRANCH   1   8
BRANCH   5  14
ATOM     14  S   LIG    1       -2.571  -0.102   1.329  0.00  0.00    +2.700 S 
ATOM     15  O   LIG    1       -1.280  -0.245   1.904  0.00  0.00    -0.910 OA
ATOM     16  O   LIG    1       -3.323  -1.197   0.824  0.00  0.00    -0.940 OA
BRANCH  14  17
ATOM     17  C   LIG    1       -3.578   0.671   2.551  0.00  0.00    -0.660 A 
ATOM     18  C   LIG    1       -2.990   1.425   3.551  0.00  0.00    +0.120 A 
ATOM     19  C   LIG    1       -3.772   2.036   4.509  0.00  0.00    +0.070 A 
ATOM     20  C   LIG    1       -5.160   1.884   4.473  0.00  0.00    -0.070 A 
ATOM     21  C   LIG    1       -5.746   1.117   3.464  0.00  0.00    +0.080 A 
ATOM     22  C   LIG    1       -4.952   0.515   2.510  0.00  0.00    +0.120 A 
BRANCH  20  23
ATOM     23  C   LIG    1       -6.004   2.531   5.498  0.00  0.00    +0.500 C 
ATOM     24  O   LIG    1       -7.210   2.397   5.465  0.00  0.00    -0.490 OA
BRANCH  23  25
ATOM     25  O   LIG    1       -5.435   3.271   6.471  0.00  0.00    -0.350 OA
ATOM     26  C   LIG    1       -6.325   3.877   7.444  0.00  0.00    +0.290 C 
ENDBRANCH  23  25
ENDBRANCH  20  23
ENDBRANCH  14  17
ENDBRANCH   5  14
TORSDOF 7
