REMARK  Name = ZINCqH0000006VBI.1
REMARK                            x       y       z     vdW  Elec       q    Type
REMARK                         _______ _______ _______ _____ _____    ______ ____
ROOT
ATOM      1  N   LIG    1        2.289  -2.654  -0.924  0.00  0.00    -0.680 NA
ATOM      2  H   LIG    1        2.428  -2.007  -1.687  0.00  0.00    +0.350 HD
ENDROOT
BRANCH   1   3
ATOM      3  C   LIG    1        1.230  -2.184  -0.021  0.00  0.00    +0.200 C 
ATOM      4  C   LIG    1        1.501  -2.698   1.394  0.00  0.00    +0.060 C 
BRANCH   3   7
ATOM      5  C   LIG    1       -0.017   1.383   0.010  0.00  0.00    +0.140 A 
ATOM      6  C   LIG    1        0.002  -0.004   0.002  0.00  0.00    +0.060 A 
ATOM      7  C   LIG    1        1.208  -0.677  -0.013  0.00  0.00    -0.050 A 
ATOM      8  C   LIG    1        2.396   0.030  -0.020  0.00  0.00    +0.090 A 
ATOM      9  C   LIG    1        2.380   1.413  -0.012  0.00  0.00    -0.000 A 
ATOM     10  C   LIG    1        1.177   2.091   0.002  0.00  0.00    +0.010 A 
BRANCH   9  11
ATOM     11  N   LIG    1        3.654   2.167  -0.019  0.00  0.00    +0.030 N 
ATOM     12  O   LIG    1        3.640   3.385  -0.012  0.00  0.00    -0.160 OA
ATOM     13  O   LIG    1        4.715   1.570  -0.032  0.00  0.00    -0.150 OA
ENDBRANCH   9  11
BRANCH   5  15
ATOM     14  C   LIG    1       -1.145   3.475   0.026  0.00  0.00    +0.250 C 
ATOM     15  O   LIG    1       -1.202   2.047   0.019  0.00  0.00    -0.300 OA
ENDBRANCH   5  15
ENDBRANCH   3   7
ENDBRANCH   1   3
BRANCH   1  16
ATOM     16  C   LIG    1        1.993  -4.003  -1.425  0.00  0.00    +0.240 C 
BRANCH  16  17
ATOM     17  C   LIG    1        3.099  -4.450  -2.346  0.00  0.00    -0.120 A 
ATOM     18  C   LIG    1        2.932  -4.369  -3.716  0.00  0.00    +0.060 A 
ATOM     19  C   LIG    1        3.944  -4.777  -4.565  0.00  0.00    -0.080 A 
ATOM     20  C   LIG    1        5.129  -5.270  -4.043  0.00  0.00    +0.120 A 
ATOM     21  C   LIG    1        5.297  -5.353  -2.664  0.00  0.00    +0.060 A 
ATOM     22  C   LIG    1        4.282  -4.936  -1.819  0.00  0.00    -0.030 A 
ATOM     23  C   LIG    1        4.463  -5.017  -0.325  0.00  0.00    +0.110 C 
BRANCH  21  24
ATOM     24  O   LIG    1        6.459  -5.836  -2.147  0.00  0.00    -0.320 OA
ATOM     25  C   LIG    1        7.497  -4.889  -1.889  0.00  0.00    +0.220 C 
ENDBRANCH  21  24
BRANCH  20  26
ATOM     26  O   LIG    1        6.125  -5.673  -4.877  0.00  0.00    -0.310 OA
ATOM     27  C   LIG    1        5.881  -5.560  -6.281  0.00  0.00    +0.240 C 
ENDBRANCH  20  26
ENDBRANCH  16  17
ENDBRANCH   1  16
TORSDOF 8
