REMARK  Name = ZINCqH0000037u9d.0
REMARK                            x       y       z     vdW  Elec       q    Type
REMARK                         _______ _______ _______ _____ _____    ______ ____
ROOT
ATOM      1  N   LIG    1        2.849   8.111   0.020  0.00  0.00    -0.700 N 
ATOM      2  H   LIG    1        1.940   7.773   0.027  0.00  0.00    +0.420 HD
ATOM      3  C   LIG    1        3.888   7.253   0.005  0.00  0.00    +0.600 C 
ATOM      4  O   LIG    1        5.028   7.678  -0.004  0.00  0.00    -0.530 OA
ENDROOT
BRANCH   1  15
ATOM      5  C   LIG    1        2.244  11.610   1.240  0.00  0.00    +0.060 C 
ATOM      6  C   LIG    1        1.842  10.325   0.513  0.00  0.00    +0.200 C 
ATOM      7  O   LIG    1        1.156  10.627  -0.714  0.00  0.00    -0.290 OA
ATOM      8  C   LIG    1        2.063  10.712  -1.726  0.00  0.00    +0.150 A 
ATOM      9  C   LIG    1        1.946  11.301  -2.982  0.00  0.00    -0.040 A 
ATOM     10  C   LIG    1        3.001  11.251  -3.873  0.00  0.00    +0.140 A 
ATOM     11  C   LIG    1        4.181  10.617  -3.525  0.00  0.00    -0.050 A 
ATOM     12  C   LIG    1        4.304  10.033  -2.277  0.00  0.00    +0.120 A 
ATOM     13  F   LIG    1        2.880  11.825  -5.091  0.00  0.00    -0.130 F 
ATOM     14  C   LIG    1        3.255  10.084  -1.386  0.00  0.00    -0.200 A 
ATOM     15  C   LIG    1        3.093   9.556   0.026  0.00  0.00    +0.280 C 
ENDBRANCH   1  15
BRANCH   3  16
ATOM     16  C   LIG    1        3.644   5.800  -0.001  0.00  0.00    +0.000 A 
ATOM     17  C   LIG    1        4.655   4.886  -0.016  0.00  0.00    -0.020 A 
ATOM     18  S   LIG    1        3.983   3.314  -0.019  0.00  0.00    +0.250 S 
ATOM     19  C   LIG    1        2.357   3.986   0.001  0.00  0.00    +0.070 A 
ATOM     20  N   LIG    1        2.424   5.283   0.002  0.00  0.00    -0.400 NA
BRANCH  19  21
ATOM     21  C   LIG    1        1.107   3.197   0.009  0.00  0.00    +0.170 A 
ATOM     22  N   LIG    1       -0.065   3.819   0.023  0.00  0.00    -0.420 NA
ATOM     23  C   LIG    1       -1.201   3.152   0.030  0.00  0.00    +0.270 A 
ATOM     24  C   LIG    1       -1.214   1.769   0.017  0.00  0.00    +0.020 A 
ATOM     25  C   LIG    1       -0.013   1.076   0.008  0.00  0.00    +0.060 A 
ATOM     26  C   LIG    1        1.169   1.801   0.001  0.00  0.00    +0.060 A 
ATOM     27  F   LIG    1        2.362   1.167  -0.014  0.00  0.00    -0.120 F 
ENDBRANCH  19  21
ENDBRANCH   3  16
TORSDOF 3
