REMARK  Name = ZINCrD000000fSyW.0
REMARK                            x       y       z     vdW  Elec       q    Type
REMARK                         _______ _______ _______ _____ _____    ______ ____
ROOT
ATOM      1  C   LIG    1       -1.302   3.624  -0.026  0.00  0.00    +0.530 C 
ATOM      2  N   LIG    1       -2.433   4.309  -0.289  0.00  0.00    -0.610 N 
ATOM      3  C   LIG    1       -3.717   3.609  -0.424  0.00  0.00    +0.280 C 
ATOM      4  C   LIG    1       -4.731   4.251   0.528  0.00  0.00    -0.020 C 
ATOM      5  C   LIG    1       -4.804   5.754   0.251  0.00  0.00    +0.170 C 
ATOM      6  C   LIG    1       -3.435   6.388   0.501  0.00  0.00    -0.060 C 
ATOM      7  C   LIG    1       -3.011   6.139   1.951  0.00  0.00    +0.020 C 
ATOM      8  C   LIG    1       -4.003   6.831   2.890  0.00  0.00    +0.210 C 
ATOM      9  O   LIG    1       -4.051   8.226   2.586  0.00  0.00    -0.380 OA
ATOM     10  C   LIG    1       -4.489   8.520   1.258  0.00  0.00    +0.210 C 
ATOM     11  C   LIG    1       -3.516   7.897   0.253  0.00  0.00    +0.030 C 
ATOM     12  C   LIG    1       -2.405   5.770  -0.441  0.00  0.00    +0.300 C 
ATOM     13  O   LIG    1       -0.259   4.219   0.147  0.00  0.00    -0.530 OA
ENDROOT
BRANCH   1  15
ATOM     14  C   LIG    1       -2.137   1.690   1.282  0.00  0.00    +0.070 C 
ATOM     15  C   LIG    1       -1.333   2.120   0.053  0.00  0.00    -0.040 C 
ATOM     16  C   LIG    1        0.096   1.585   0.166  0.00  0.00    +0.070 C 
BRANCH  15  17
ATOM     17  C   LIG    1       -1.980   1.565  -1.190  0.00  0.00    -0.050 A 
ATOM     18  C   LIG    1       -2.227   2.392  -2.269  0.00  0.00    +0.020 A 
ATOM     19  C   LIG    1       -2.827   1.885  -3.406  0.00  0.00    +0.080 A 
ATOM     20  C   LIG    1       -3.178   0.549  -3.465  0.00  0.00    -0.180 A 
ATOM     21  C   LIG    1       -2.930  -0.279  -2.386  0.00  0.00    +0.070 A 
ATOM     22  C   LIG    1       -2.332   0.229  -1.248  0.00  0.00    +0.030 A 
BRANCH  20  23
ATOM     23  C   LIG    1       -3.831  -0.005  -4.705  0.00  0.00    +0.510 C 
ATOM     24  F   LIG    1       -3.489  -1.353  -4.850  0.00  0.00    -0.180 F 
ATOM     25  F   LIG    1       -3.390   0.711  -5.824  0.00  0.00    -0.180 F 
ATOM     26  F   LIG    1       -5.221   0.115  -4.593  0.00  0.00    -0.180 F 
ENDBRANCH  20  23
ENDBRANCH  15  17
ENDBRANCH   1  15
BRANCH   5  27
ATOM     27  O   LIG    1       -5.186   5.969  -1.109  0.00  0.00    -0.560 OA
ATOM     28  H   LIG    1       -6.047   5.594  -1.340  0.00  0.00    +0.380 HD
ENDBRANCH   5  27
TORSDOF 4
