REMARK  Name = ZINCqH0000007l4q.0
REMARK                            x       y       z     vdW  Elec       q    Type
REMARK                         _______ _______ _______ _____ _____    ______ ____
ROOT
ATOM      1  N   LIG    1       -3.205  -4.434  -1.368  0.00  0.00    -0.720 N 
ATOM      2  H   LIG    1       -3.409  -3.797  -2.070  0.00  0.00    +0.400 HD
ATOM      3  C   LIG    1       -3.184  -5.754  -1.641  0.00  0.00    +0.520 C 
ATOM      4  O   LIG    1       -2.929  -6.551  -0.762  0.00  0.00    -0.510 OA
ENDROOT
BRANCH   1   5
ATOM      5  C   LIG    1       -2.922  -3.962  -0.010  0.00  0.00    +0.340 C 
BRANCH   5  10
ATOM      6  C   LIG    1       -1.939  -0.313   0.017  0.00  0.00    +0.090 A 
ATOM      7  C   LIG    1       -3.176   0.307   0.103  0.00  0.00    -0.030 A 
ATOM      8  C   LIG    1       -4.329  -0.454   0.143  0.00  0.00    -0.040 A 
ATOM      9  C   LIG    1       -4.248  -1.838   0.108  0.00  0.00    +0.110 A 
ATOM     10  C   LIG    1       -3.010  -2.458   0.028  0.00  0.00    -0.100 A 
ATOM     11  C   LIG    1       -1.858  -1.698  -0.018  0.00  0.00    +0.050 A 
BRANCH   6  13
ATOM     12  C   LIG    1       -0.963   1.855   0.013  0.00  0.00    +0.240 C 
ATOM     13  O   LIG    1       -0.805   0.435  -0.028  0.00  0.00    -0.320 OA
ENDBRANCH   6  13
BRANCH   9  14
ATOM     14  O   LIG    1       -5.382  -2.587   0.152  0.00  0.00    -0.310 OA
ATOM     15  C   LIG    1       -6.622  -1.881   0.235  0.00  0.00    +0.250 C 
ENDBRANCH   9  14
ENDBRANCH   5  10
ENDBRANCH   1   5
BRANCH   3  16
ATOM     16  C   LIG    1       -3.475  -6.239  -3.037  0.00  0.00    +0.200 C 
BRANCH  16  17
ATOM     17  O   LIG    1       -3.392  -7.666  -3.073  0.00  0.00    -0.340 OA
BRANCH  17  18
ATOM     18  C   LIG    1       -3.653  -8.231  -4.359  0.00  0.00    +0.150 C 
ATOM     19  C   LIG    1       -5.149  -8.523  -4.494  0.00  0.00    -0.010 C 
ATOM     20  C   LIG    1       -5.575  -9.511  -3.406  0.00  0.00    -0.030 C 
ATOM     21  C   LIG    1       -4.786 -10.812  -3.561  0.00  0.00    +0.010 C 
ATOM     22  C   LIG    1       -3.290 -10.520  -3.426  0.00  0.00    +0.020 C 
ATOM     23  C   LIG    1       -5.296  -8.905  -2.029  0.00  0.00    +0.020 C 
ATOM     24  C   LIG    1       -2.863  -9.532  -4.514  0.00  0.00    +0.010 C 
BRANCH  24  25
ATOM     25  C   LIG    1       -1.367  -9.240  -4.379  0.00  0.00    -0.010 C 
ATOM     26  C   LIG    1       -0.941  -8.252  -5.467  0.00  0.00    +0.000 C 
ATOM     27  C   LIG    1       -0.578 -10.542  -4.534  0.00  0.00    +0.010 C 
ENDBRANCH  24  25
ENDBRANCH  17  18
ENDBRANCH  16  17
ENDBRANCH   3  16
TORSDOF 8
