REMARK  Name = ZINCnE00000dSTOd.0
REMARK                            x       y       z     vdW  Elec       q    Type
REMARK                         _______ _______ _______ _____ _____    ______ ____
ROOT
ATOM      1  N   LIG    1        3.194  -0.160   1.308  0.00  0.00    -0.720 N 
ATOM      2  H   LIG    1        3.530  -0.558   0.490  0.00  0.00    +0.400 HD
ATOM      3  C   LIG    1        2.094   0.617   1.277  0.00  0.00    +0.550 C 
ATOM      4  O   LIG    1        1.723   1.184   2.284  0.00  0.00    -0.500 OA
ENDROOT
BRANCH   3   5
ATOM      5  C   LIG    1        1.324   0.783  -0.008  0.00  0.00    -0.080 C 
ATOM      6  C   LIG    1        2.046   1.443  -1.184  0.00  0.00    +0.130 C 
ATOM      7  C   LIG    1        0.954   2.206  -0.431  0.00  0.00    +0.030 C 
ATOM      8 CL   LIG    1       -0.626   2.441  -1.269  0.00  0.00    -0.080 Cl
ATOM      9 CL   LIG    1        1.472   3.556   0.645  0.00  0.00    -0.070 Cl
BRANCH   5  10
ATOM     10  C   LIG    1        0.340  -0.315  -0.323  0.00  0.00    -0.060 A 
ATOM     11  C   LIG    1        0.214  -0.779  -1.618  0.00  0.00    +0.020 A 
ATOM     12  C   LIG    1       -0.684  -1.790  -1.906  0.00  0.00    +0.010 A 
ATOM     13  C   LIG    1       -1.464  -2.328  -0.900  0.00  0.00    +0.020 A 
ATOM     14  C   LIG    1       -1.342  -1.860   0.395  0.00  0.00    +0.020 A 
ATOM     15  C   LIG    1       -0.440  -0.854   0.684  0.00  0.00    +0.040 A 
ENDBRANCH   5  10
ENDBRANCH   3   5
BRANCH   1  16
ATOM     16  C   LIG    1        3.884  -0.403   2.577  0.00  0.00    +0.280 C 
BRANCH  16  17
ATOM     17  C   LIG    1        5.092  -1.310   2.336  0.00  0.00    +0.100 C 
BRANCH  17  18
ATOM     18  S   LIG    1        5.946  -1.612   3.908  0.00  0.00    -0.120 S 
BRANCH  18  19
ATOM     19  S   LIG    1        4.630  -2.809   4.926  0.00  0.00    -0.170 S 
BRANCH  19  20
ATOM     20  C   LIG    1        5.036  -4.470   4.319  0.00  0.00    +0.150 C 
BRANCH  20  21
ATOM     21  C   LIG    1        6.404  -4.889   4.859  0.00  0.00    -0.040 C 
BRANCH  21  23
ATOM     22  O   LIG    1        5.960  -6.862   3.632  0.00  0.00    -0.700 OA
ATOM     23  C   LIG    1        6.742  -6.269   4.356  0.00  0.00    +0.500 C 
ATOM     24  O   LIG    1        7.797  -6.792   4.672  0.00  0.00    -0.700 OA
ENDBRANCH  21  23
ENDBRANCH  20  21
ENDBRANCH  19  20
ENDBRANCH  18  19
ENDBRANCH  17  18
ENDBRANCH  16  17
ENDBRANCH   1  16
TORSDOF 9
