REMARK  Name = ZINCpe000000Vhx2.0
REMARK                            x       y       z     vdW  Elec       q    Type
REMARK                         _______ _______ _______ _____ _____    ______ ____
ROOT
ATOM      1  C   LIG    1        6.807   1.298  -1.493  0.00  0.00    +0.060 C 
ENDROOT
BRANCH   1   2
ATOM      2  C   LIG    1        7.264   1.075  -2.936  0.00  0.00    +0.060 C 
BRANCH   2   5
ATOM      3  N   LIG    1        9.362   0.516  -4.122  0.00  0.00    -0.720 N 
ATOM      4  H   LIG    1        8.865   0.552  -4.954  0.00  0.00    +0.410 HD
ATOM      5  C   LIG    1        8.736   0.753  -2.951  0.00  0.00    +0.520 C 
ATOM      6  O   LIG    1        9.358   0.707  -1.911  0.00  0.00    -0.530 OA
BRANCH   3   7
ATOM      7  C   LIG    1       10.793   0.203  -4.137  0.00  0.00    +0.290 C 
BRANCH   7   8
ATOM      8  C   LIG    1       10.991  -1.294  -3.896  0.00  0.00    -0.010 C 
ATOM      9  C   LIG    1       12.486  -1.601  -3.788  0.00  0.00    +0.040 C 
ATOM     10  C   LIG    1       10.392  -2.082  -5.064  0.00  0.00    +0.030 C 
ENDBRANCH   7   8
BRANCH   7  11
ATOM     11  C   LIG    1       11.375   0.578  -5.476  0.00  0.00    +0.460 C 
ATOM     12  O   LIG    1       10.667   1.057  -6.329  0.00  0.00    -0.500 OA
BRANCH  11  14
ATOM     13  C   LIG    1       13.171   0.764  -7.031  0.00  0.00    +0.280 C 
ATOM     14  O   LIG    1       12.680   0.380  -5.720  0.00  0.00    -0.350 OA
ENDBRANCH  11  14
ENDBRANCH   7  11
ENDBRANCH   3   7
ENDBRANCH   2   5
ENDBRANCH   1   2
BRANCH   1  15
ATOM     15  C   LIG    1        5.312   1.625  -1.477  0.00  0.00    +0.000 C 
BRANCH  15  16
ATOM     16  C   LIG    1        4.854   1.849  -0.034  0.00  0.00    +0.310 C 
BRANCH  16  17
ATOM     17  N   LIG    1        3.423   2.161  -0.019  0.00  0.00    -0.470 N 
ATOM     18  C   LIG    1        2.870   3.407  -0.007  0.00  0.00    +0.470 A 
ATOM     19  N   LIG    1        1.571   3.317   0.005  0.00  0.00    -0.460 NA
ATOM     20  C   LIG    1        1.210   2.011   0.001  0.00  0.00    -0.110 A 
ATOM     21  C   LIG    1       -0.016   1.325   0.009  0.00  0.00    +0.510 A 
ATOM     22  N   LIG    1        0.002  -0.004   0.002  0.00  0.00    -0.590 NA
ATOM     23  C   LIG    1        1.141  -0.672  -0.012  0.00  0.00    +0.560 A 
ATOM     24  N   LIG    1        2.312  -0.072  -0.020  0.00  0.00    -0.560 NA
ATOM     25  C   LIG    1        2.394   1.254  -0.014  0.00  0.00    +0.300 A 
BRANCH  21  26
ATOM     26  N   LIG    1       -1.214   2.017   0.019  0.00  0.00    -0.820 N 
ATOM     27  H   LIG    1       -1.214   2.987   0.024  0.00  0.00    +0.420 HD
ATOM     28  H   LIG    1       -2.054   1.532   0.020  0.00  0.00    +0.410 HD
ENDBRANCH  21  26
ENDBRANCH  16  17
ENDBRANCH  15  16
ENDBRANCH   1  15
TORSDOF 10
