REMARK  Name = ZINCpk000000ntpU.0
REMARK                            x       y       z     vdW  Elec       q    Type
REMARK                         _______ _______ _______ _____ _____    ______ ____
ROOT
ATOM      1  N   LIG    1       -3.595   3.191   0.135  0.00  0.00    -0.600 N 
ATOM      2  C   LIG    1       -2.370   3.897  -0.216  0.00  0.00    +0.260 C 
ATOM      3  C   LIG    1       -1.202   3.422   0.651  0.00  0.00    +0.300 C 
ATOM      4  N   LIG    1       -1.218   1.950   0.677  0.00  0.00    -0.620 N 
ATOM      5  C   LIG    1       -2.409   1.298   1.243  0.00  0.00    +0.320 C 
ATOM      6  C   LIG    1       -0.186   1.229   0.198  0.00  0.00    +0.540 C 
ATOM      7  O   LIG    1        0.818   1.790  -0.189  0.00  0.00    -0.520 OA
ATOM      8  C   LIG    1       -3.637   2.008   0.752  0.00  0.00    +0.510 C 
ATOM      9  O   LIG    1       -4.716   1.482   0.920  0.00  0.00    -0.530 OA
ENDROOT
BRANCH   6  10
ATOM     10  C   LIG    1       -0.280  -0.274   0.136  0.00  0.00    -0.010 C 
ATOM     11  C   LIG    1       -0.988  -0.731  -1.160  0.00  0.00    +0.080 C 
ATOM     12  C   LIG    1       -0.251  -1.990  -1.561  0.00  0.00    +0.520 C 
ATOM     13  N   LIG    1        0.922  -2.067  -0.908  0.00  0.00    -0.620 N 
ATOM     14  O   LIG    1       -0.659  -2.811  -2.356  0.00  0.00    -0.520 OA
ATOM     15  C   LIG    1        1.118  -0.910  -0.027  0.00  0.00    +0.300 C 
BRANCH  13  16
ATOM     16  C   LIG    1        1.880  -3.165  -1.057  0.00  0.00    +0.250 C 
ATOM     17  C   LIG    1        2.333  -3.252  -2.516  0.00  0.00    +0.010 C 
ATOM     18  C   LIG    1        3.334  -4.399  -2.671  0.00  0.00    +0.020 C 
ATOM     19  C   LIG    1        2.669  -5.715  -2.264  0.00  0.00    +0.000 C 
ATOM     20  C   LIG    1        2.216  -5.628  -0.805  0.00  0.00    +0.020 C 
ATOM     21  C   LIG    1        1.215  -4.481  -0.650  0.00  0.00    +0.010 C 
ENDBRANCH  13  16
ENDBRANCH   6  10
BRANCH   1  22
ATOM     22  C   LIG    1       -4.870   3.822  -0.213  0.00  0.00    +0.280 C 
BRANCH  22  24
ATOM     23  C   LIG    1       -6.519   5.577   0.453  0.00  0.00    +0.030 C 
ATOM     24  C   LIG    1       -5.261   4.818   0.880  0.00  0.00    -0.040 C 
ATOM     25  C   LIG    1       -5.539   4.063   2.182  0.00  0.00    +0.020 C 
ENDBRANCH  22  24
ENDBRANCH   1  22
TORSDOF 4
