REMARK  Name = ZINCtV00001bB3sF.0
REMARK                            x       y       z     vdW  Elec       q    Type
REMARK                         _______ _______ _______ _____ _____    ______ ____
ROOT
ATOM      1  C   LIG    1       -2.341   1.027  -2.803  0.00  0.00    -0.190 A 
ATOM      2  C   LIG    1       -2.065   0.587  -1.525  0.00  0.00    +0.300 A 
ATOM      3  N   LIG    1       -1.196   1.440  -0.931  0.00  0.00    -0.460 N 
ATOM      4  C   LIG    1       -0.870   2.474  -1.786  0.00  0.00    +0.090 A 
ATOM      5  C   LIG    1       -0.043   3.585  -1.658  0.00  0.00    +0.000 A 
ATOM      6  C   LIG    1        0.089   4.469  -2.707  0.00  0.00    +0.030 A 
ATOM      7  C   LIG    1       -0.597   4.264  -3.895  0.00  0.00    +0.000 A 
ATOM      8  C   LIG    1       -1.414   3.164  -4.044  0.00  0.00    +0.050 A 
ATOM      9  C   LIG    1       -1.560   2.266  -2.991  0.00  0.00    -0.070 A 
ENDROOT
BRANCH   1  21
ATOM     10  O   LIG    1       -5.066  -1.366  -5.329  0.00  0.00    -0.510 OA
ATOM     11  C   LIG    1       -4.107  -1.775  -4.699  0.00  0.00    +0.560 C 
ATOM     12  N   LIG    1       -3.716  -3.057  -4.601  0.00  0.00    -0.660 N 
ATOM     13  H   LIG    1       -4.167  -3.801  -5.031  0.00  0.00    +0.420 HD
ATOM     14  C   LIG    1       -2.587  -3.183  -3.801  0.00  0.00    +0.140 A 
ATOM     15  C   LIG    1       -1.843  -4.293  -3.416  0.00  0.00    -0.010 A 
ATOM     16  C   LIG    1       -0.743  -4.139  -2.598  0.00  0.00    +0.040 A 
ATOM     17  C   LIG    1       -0.366  -2.884  -2.150  0.00  0.00    -0.010 A 
ATOM     18  C   LIG    1       -1.093  -1.770  -2.521  0.00  0.00    +0.050 A 
ATOM     19  C   LIG    1       -2.203  -1.914  -3.345  0.00  0.00    -0.090 A 
ATOM     20  C   LIG    1       -3.175  -0.955  -3.916  0.00  0.00    -0.200 C 
ATOM     21  C   LIG    1       -3.202   0.415  -3.745  0.00  0.00    +0.230 C 
ENDBRANCH   1  21
BRANCH   3  22
ATOM     22  C   LIG    1       -0.678   1.289   0.430  0.00  0.00    +0.360 C 
BRANCH  22  23
ATOM     23  C   LIG    1       -1.475   2.157   1.370  0.00  0.00    -0.110 A 
ATOM     24  C   LIG    1       -0.982   3.387   1.761  0.00  0.00    +0.070 A 
ATOM     25  C   LIG    1       -1.715   4.186   2.618  0.00  0.00    +0.050 A 
ATOM     26  C   LIG    1       -2.938   3.749   3.094  0.00  0.00    -0.010 A 
ATOM     27  C   LIG    1       -3.430   2.515   2.708  0.00  0.00    +0.050 A 
ATOM     28 CL   LIG    1       -3.856   4.749   4.177  0.00  0.00    -0.050 Cl
ATOM     29  C   LIG    1       -2.698   1.718   1.846  0.00  0.00    -0.010 A 
ATOM     30 CL   LIG    1       -3.314   0.169   1.361  0.00  0.00    -0.050 Cl
ENDBRANCH  22  23
ENDBRANCH   3  22
TORSDOF 3
