REMARK  Name = ZINCtj0000003OML.0
REMARK                            x       y       z     vdW  Elec       q    Type
REMARK                         _______ _______ _______ _____ _____    ______ ____
ROOT
ATOM      1  N   LIG    1        0.555   3.445   0.053  0.00  0.00    -0.470 N 
ATOM      2  C   LIG    1        1.480   3.963   1.071  0.00  0.00    +0.240 C 
ATOM      3  C   LIG    1        1.475   5.493   1.028  0.00  0.00    +0.280 C 
ATOM      4  N   LIG    1        0.114   5.986   1.280  0.00  0.00    -0.390 N 
ATOM      5  C   LIG    1       -0.792   5.479   0.242  0.00  0.00    +0.290 C 
ATOM      6  H   LIG    1       -0.197   5.664   2.185  0.00  0.00    +0.420 HD
ATOM      7  C   LIG    1       -0.806   3.950   0.279  0.00  0.00    +0.260 C 
ENDROOT
BRANCH   1  13
ATOM      8  C   LIG    1        3.446  -1.867  -0.501  0.00  0.00    +0.380 C 
ATOM      9  N   LIG    1        3.011  -0.472  -0.407  0.00  0.00    -0.370 N 
ATOM     10  N   LIG    1        3.835   0.655  -0.518  0.00  0.00    -0.220 NA
ATOM     11  C   LIG    1        3.122   1.736  -0.386  0.00  0.00    +0.290 A 
ATOM     12  C   LIG    1        1.776   1.362  -0.178  0.00  0.00    -0.290 A 
ATOM     13  C   LIG    1        0.573   2.064   0.026  0.00  0.00    +0.430 A 
ATOM     14  N   LIG    1       -0.545   1.365   0.192  0.00  0.00    -0.580 NA
ATOM     15  C   LIG    1       -0.537   0.044   0.167  0.00  0.00    +0.590 A 
ATOM     16  N   LIG    1        0.561  -0.655  -0.020  0.00  0.00    -0.540 NA
ATOM     17  C   LIG    1        1.733  -0.046  -0.196  0.00  0.00    +0.360 A 
ENDBRANCH   1  13
BRANCH   4  18
ATOM     18  C   LIG    1        0.114   7.455   1.257  0.00  0.00    +0.290 C 
BRANCH  18  19
ATOM     19  C   LIG    1        0.960   7.984   2.417  0.00  0.00    +0.070 C 
BRANCH  19  20
ATOM     20  C   LIG    1        0.959   9.491   2.392  0.00  0.00    +0.520 C 
ATOM     21  N   LIG    1        1.643  10.180   3.327  0.00  0.00    -0.660 N 
ATOM     22  H   LIG    1        2.073   9.710   4.059  0.00  0.00    +0.420 HD
ATOM     23  O   LIG    1        0.342  10.083   1.532  0.00  0.00    -0.510 OA
BRANCH  21  24
ATOM     24  C   LIG    1        1.734  11.570   3.241  0.00  0.00    +0.160 A 
ATOM     25  C   LIG    1        1.786  12.187   1.995  0.00  0.00    +0.020 A 
ATOM     26  C   LIG    1        1.869  13.558   1.907  0.00  0.00    +0.090 A 
ATOM     27  C   LIG    1        1.915  14.330   3.072  0.00  0.00    -0.030 A 
ATOM     28  C   LIG    1        1.868  13.707   4.322  0.00  0.00    +0.090 A 
ATOM     29  C   LIG    1        1.778  12.335   4.402  0.00  0.00    +0.000 A 
BRANCH  27  30
ATOM     30  C   LIG    1        2.009  15.756   2.984  0.00  0.00    +0.240 C 
ATOM     31  N   LIG    1        2.083  16.888   2.914  0.00  0.00    -0.400 NA
ENDBRANCH  27  30
ENDBRANCH  21  24
ENDBRANCH  19  20
ENDBRANCH  18  19
ENDBRANCH   4  18
TORSDOF 6
