REMARK  Name = ZINCtV000002Fm3O.0
REMARK                            x       y       z     vdW  Elec       q    Type
REMARK                         _______ _______ _______ _____ _____    ______ ____
ROOT
ATOM      1  C   LIG    1        7.981  -1.972  -1.505  0.00  0.00    +0.160 A 
ATOM      2  N   LIG    1        8.503  -2.287  -0.342  0.00  0.00    -0.290 NA
ATOM      3  N   LIG    1        9.592  -2.947  -0.517  0.00  0.00    -0.280 NA
ATOM      4  C   LIG    1        9.829  -3.090  -1.790  0.00  0.00    +0.220 A 
ATOM      5  N   LIG    1        8.808  -2.480  -2.465  0.00  0.00    -0.450 N 
ENDROOT
BRANCH   4   6
ATOM      6  C   LIG    1       11.006  -3.803  -2.404  0.00  0.00    +0.030 C 
ATOM      7  C   LIG    1       11.919  -4.596  -1.468  0.00  0.00    +0.070 C 
ATOM      8  C   LIG    1       12.403  -3.275  -2.072  0.00  0.00    +0.060 C 
ENDBRANCH   4   6
BRANCH   1   9
ATOM      9  S   LIG    1        6.491  -1.071  -1.775  0.00  0.00    +0.030 S 
BRANCH   9  10
ATOM     10  C   LIG    1        5.992  -0.767  -0.062  0.00  0.00    +0.180 C 
BRANCH  10  14
ATOM     11  C   LIG    1        3.621   3.637  -0.013  0.00  0.00    +0.120 C 
ATOM     12  C   LIG    1        3.594   2.130  -0.021  0.00  0.00    -0.010 A 
ATOM     13  C   LIG    1        4.753   1.407  -0.037  0.00  0.00    -0.090 A 
ATOM     14  C   LIG    1        4.703   0.013  -0.045  0.00  0.00    +0.180 A 
ATOM     15  N   LIG    1        3.564  -0.636  -0.037  0.00  0.00    -0.440 NA
ATOM     16  C   LIG    1        2.395   0.011  -0.021  0.00  0.00    +0.130 A 
ATOM     17  C   LIG    1        1.177  -0.691  -0.013  0.00  0.00    +0.050 A 
ATOM     18  C   LIG    1        0.002  -0.004   0.002  0.00  0.00    +0.050 A 
ATOM     19  C   LIG    1       -0.017   1.389   0.010  0.00  0.00    +0.020 A 
ATOM     20  C   LIG    1        1.142   2.103   0.002  0.00  0.00    +0.040 A 
ATOM     21 CL   LIG    1        6.286   2.221  -0.049  0.00  0.00    -0.040 Cl
ATOM     22  C   LIG    1        2.373   1.428  -0.013  0.00  0.00    -0.090 A 
ENDBRANCH  10  14
ENDBRANCH   9  10
ENDBRANCH   1   9
BRANCH   5  23
ATOM     23  C   LIG    1        8.640  -2.387  -3.917  0.00  0.00    +0.370 C 
BRANCH  23  24
ATOM     24  C   LIG    1        9.319  -1.140  -4.423  0.00  0.00    -0.120 A 
ATOM     25  C   LIG    1        8.615   0.047  -4.503  0.00  0.00    +0.040 A 
ATOM     26  C   LIG    1        9.239   1.191  -4.963  0.00  0.00    +0.010 A 
ATOM     27  C   LIG    1       10.565   1.147  -5.352  0.00  0.00    +0.020 A 
ATOM     28  C   LIG    1       11.267  -0.042  -5.277  0.00  0.00    +0.010 A 
ATOM     29  C   LIG    1       10.645  -1.185  -4.813  0.00  0.00    +0.030 A 
ENDBRANCH  23  24
ENDBRANCH   5  23
TORSDOF 6
