REMARK  Name = ZINCqH00000044rx.0
REMARK                            x       y       z     vdW  Elec       q    Type
REMARK                         _______ _______ _______ _____ _____    ______ ____
ROOT
ATOM      1  N   LIG    1       -2.942   2.341   3.290  0.00  0.00    -0.730 N 
ATOM      2  H   LIG    1       -3.674   1.709   3.217  0.00  0.00    +0.400 HD
ATOM      3  C   LIG    1       -2.091   2.510   2.259  0.00  0.00    +0.500 C 
ATOM      4  O   LIG    1       -1.177   3.301   2.350  0.00  0.00    -0.500 OA
ENDROOT
BRANCH   1   5
ATOM      5  C   LIG    1       -2.762   3.114   4.522  0.00  0.00    +0.290 C 
BRANCH   5   6
ATOM      6  C   LIG    1       -4.083   3.234   5.238  0.00  0.00    -0.080 A 
ATOM      7  C   LIG    1       -4.946   2.155   5.282  0.00  0.00    +0.020 A 
ATOM      8  C   LIG    1       -6.155   2.263   5.943  0.00  0.00    +0.040 A 
ATOM      9  C   LIG    1       -6.507   3.453   6.550  0.00  0.00    +0.030 A 
ATOM     10  C   LIG    1       -5.647   4.535   6.501  0.00  0.00    -0.030 A 
ATOM     11 CL   LIG    1       -6.088   6.031   7.264  0.00  0.00    -0.060 Cl
ATOM     12  C   LIG    1       -4.434   4.425   5.845  0.00  0.00    +0.040 A 
ENDBRANCH   5   6
BRANCH   5  14
ATOM     13  C   LIG    1       -0.382   2.390   4.753  0.00  0.00    +0.030 C 
ATOM     14  C   LIG    1       -1.755   2.402   5.428  0.00  0.00    +0.010 C 
ENDBRANCH   5  14
ENDBRANCH   1   5
BRANCH   3  15
ATOM     15  C   LIG    1       -2.277   1.716   0.992  0.00  0.00    +0.320 C 
BRANCH  15  16
ATOM     16  N   LIG    1       -1.232   2.078   0.031  0.00  0.00    -0.540 N 
ATOM     17  C   LIG    1       -1.429   3.089  -0.846  0.00  0.00    +0.530 C 
ATOM     18  C   LIG    1       -0.377   3.396  -1.881  0.00  0.00    +0.040 C 
ATOM     19  C   LIG    1        0.813   4.095  -1.227  0.00  0.00    +0.250 C 
ATOM     20  O   LIG    1        1.156   3.453  -0.001  0.00  0.00    -0.320 OA
ATOM     21  C   LIG    1        1.181   2.094   0.002  0.00  0.00    +0.100 A 
ATOM     22  C   LIG    1        2.387   1.414  -0.008  0.00  0.00    +0.020 A 
ATOM     23  C   LIG    1        2.399   0.031  -0.014  0.00  0.00    +0.020 A 
ATOM     24  C   LIG    1        1.211  -0.676  -0.010  0.00  0.00    +0.020 A 
ATOM     25  C   LIG    1        0.002  -0.004   0.002  0.00  0.00    +0.010 A 
ATOM     26  O   LIG    1       -2.448   3.745  -0.800  0.00  0.00    -0.520 OA
ATOM     27  C   LIG    1       -0.017   1.381   0.010  0.00  0.00    +0.110 A 
ENDBRANCH  15  16
ENDBRANCH   3  15
TORSDOF 5
