REMARK  Name = ZINCvU0000000Jsl.0
REMARK                            x       y       z     vdW  Elec       q    Type
REMARK                         _______ _______ _______ _____ _____    ______ ____
ROOT
ATOM      1  N   LIG    1       -0.064   1.169   1.028  0.00  0.00    -0.660 N 
ATOM      2  H   LIG    1        0.798   1.595   1.155  0.00  0.00    +0.420 HD
ATOM      3  C   LIG    1       -0.131  -0.077   0.518  0.00  0.00    +0.610 C 
ATOM      4  O   LIG    1       -1.203  -0.648   0.447  0.00  0.00    -0.520 OA
ENDROOT
BRANCH   3   5
ATOM      5  C   LIG    1        1.094  -0.748   0.049  0.00  0.00    -0.060 A 
ATOM      6  C   LIG    1        1.170  -1.999  -0.485  0.00  0.00    +0.090 A 
ATOM      7  C   LIG    1        0.031  -2.953  -0.731  0.00  0.00    +0.140 C 
ATOM      8  C   LIG    1        0.561  -4.389  -0.683  0.00  0.00    +0.020 C 
ATOM      9  C   LIG    1        1.040  -4.803  -2.072  0.00  0.00    +0.010 C 
ATOM     10  C   LIG    1        2.178  -3.897  -2.539  0.00  0.00    +0.020 C 
ATOM     11  C   LIG    1        3.025  -3.469  -1.337  0.00  0.00    +0.300 C 
ATOM     12  N   LIG    1        2.478  -2.233  -0.771  0.00  0.00    -0.440 N 
ATOM     13  C   LIG    1        3.178  -1.114  -0.423  0.00  0.00    +0.250 A 
ATOM     14  N   LIG    1        2.341  -0.230   0.065  0.00  0.00    -0.450 NA
BRANCH  13  15
ATOM     15  C   LIG    1        4.638  -0.927  -0.578  0.00  0.00    -0.020 A 
ATOM     16  C   LIG    1        5.500  -2.019  -0.466  0.00  0.00    +0.010 A 
ATOM     17  C   LIG    1        6.859  -1.839  -0.617  0.00  0.00    +0.010 A 
ATOM     18  C   LIG    1        7.370  -0.578  -0.867  0.00  0.00    +0.020 A 
ATOM     19  C   LIG    1        6.521   0.510  -0.973  0.00  0.00    +0.010 A 
ATOM     20  C   LIG    1        5.159   0.342  -0.830  0.00  0.00    +0.050 A 
ENDBRANCH  13  15
ENDBRANCH   3   5
BRANCH   1  24
ATOM     21  C   LIG    1       -3.563   3.198   2.040  0.00  0.00    +0.130 A 
ATOM     22  C   LIG    1       -2.405   3.400   2.779  0.00  0.00    +0.010 A 
ATOM     23  C   LIG    1       -1.246   2.728   2.444  0.00  0.00    +0.010 A 
ATOM     24  C   LIG    1       -1.239   1.850   1.368  0.00  0.00    +0.140 A 
ATOM     25  C   LIG    1       -2.397   1.652   0.625  0.00  0.00    +0.040 A 
ATOM     26  C   LIG    1       -3.556   2.320   0.964  0.00  0.00    +0.040 A 
BRANCH  21  28
ATOM     27  C   LIG    1       -5.936   3.287   2.203  0.00  0.00    +0.510 C 
ATOM     28  N   LIG    1       -4.739   3.879   2.381  0.00  0.00    -0.670 N 
ATOM     29  H   LIG    1       -4.691   4.777   2.744  0.00  0.00    +0.410 HD
ATOM     30  O   LIG    1       -5.994   2.130   1.843  0.00  0.00    -0.510 OA
BRANCH  27  32
ATOM     31  C   LIG    1       -8.413   3.164   2.180  0.00  0.00    +0.040 C 
ATOM     32  C   LIG    1       -7.205   4.062   2.452  0.00  0.00    -0.010 C 
ATOM     33  C   LIG    1       -7.237   4.533   3.908  0.00  0.00    +0.040 C 
ENDBRANCH  27  32
ENDBRANCH  21  28
ENDBRANCH   1  24
TORSDOF 5
