REMARK  Name = ZINCrH000004nhaU.0
REMARK                            x       y       z     vdW  Elec       q    Type
REMARK                         _______ _______ _______ _____ _____    ______ ____
ROOT
ATOM      1  C   LIG    1       -2.459   4.321  -0.150  0.00  0.00    +0.110 A 
ATOM      2  N   LIG    1       -3.558   3.930  -0.760  0.00  0.00    -0.270 NA
ATOM      3  N   LIG    1       -4.631   4.660  -0.235  0.00  0.00    -0.350 N 
ATOM      4  C   LIG    1       -4.148   5.499   0.706  0.00  0.00    +0.240 A 
ATOM      5  C   LIG    1       -2.813   5.311   0.787  0.00  0.00    -0.260 A 
ENDROOT
BRANCH   1  10
ATOM      6  C   LIG    1        0.404   1.964  -0.791  0.00  0.00    +0.130 A 
ATOM      7  C   LIG    1        1.470   2.850  -0.870  0.00  0.00    -0.070 A 
ATOM      8  C   LIG    1        1.258   4.208  -0.715  0.00  0.00    +0.050 A 
ATOM      9  C   LIG    1       -0.015   4.689  -0.482  0.00  0.00    -0.010 A 
ATOM     10  C   LIG    1       -1.090   3.806  -0.401  0.00  0.00    +0.030 A 
ATOM     11  C   LIG    1       -0.877   2.440  -0.562  0.00  0.00    +0.000 A 
BRANCH   6  13
ATOM     12  C   LIG    1        1.962   0.212  -1.184  0.00  0.00    +0.250 C 
ATOM     13  O   LIG    1        0.617   0.631  -0.945  0.00  0.00    -0.320 OA
ENDBRANCH   6  13
ENDBRANCH   1  10
BRANCH   3  14
ATOM     14  C   LIG    1       -6.035   4.534  -0.636  0.00  0.00    +0.180 C 
ATOM     15  C   LIG    1       -6.920   4.494   0.611  0.00  0.00    +0.050 C 
ATOM     16  C   LIG    1       -6.223   3.245  -1.437  0.00  0.00    +0.060 C 
ATOM     17  C   LIG    1       -6.427   5.734  -1.501  0.00  0.00    +0.050 C 
ENDBRANCH   3  14
BRANCH   5  18
ATOM     18  C   LIG    1       -1.869   6.034   1.713  0.00  0.00    +0.300 C 
BRANCH  18  19
ATOM     19  N   LIG    1       -1.633   5.214   2.909  0.00  0.00    -0.520 NA
ATOM     20  C   LIG    1       -0.815   4.036   2.587  0.00  0.00    +0.160 C 
ATOM     21  C   LIG    1       -0.543   3.244   3.869  0.00  0.00    +0.230 C 
ATOM     22  O   LIG    1       -1.788   2.889   4.476  0.00  0.00    -0.370 OA
ATOM     23  C   LIG    1       -2.610   4.013   4.804  0.00  0.00    +0.140 C 
ATOM     24  C   LIG    1       -2.902   4.813   3.532  0.00  0.00    +0.170 C 
BRANCH  23  25
ATOM     25  C   LIG    1       -3.925   3.523   5.415  0.00  0.00    +0.390 C 
ATOM     26  F   LIG    1       -4.593   2.711   4.493  0.00  0.00    -0.200 F 
ATOM     27  F   LIG    1       -4.728   4.623   5.735  0.00  0.00    -0.200 F 
ENDBRANCH  23  25
ENDBRANCH  18  19
ENDBRANCH   5  18
TORSDOF 6
