REMARK  Name = ZINCvU0000000FTL.0
REMARK                            x       y       z     vdW  Elec       q    Type
REMARK                         _______ _______ _______ _____ _____    ______ ____
ROOT
ATOM      1  C   LIG    1        0.082   1.456   0.220  0.00  0.00    +0.070 C 
ENDROOT
BRANCH   1   2
ATOM      2  C   LIG    1        0.127  -0.051   0.234  0.00  0.00    -0.100 A 
ATOM      3  C   LIG    1        0.639  -0.717   1.331  0.00  0.00    +0.040 A 
ATOM      4  C   LIG    1        0.677  -2.098   1.346  0.00  0.00    +0.000 A 
ATOM      5  C   LIG    1        0.210  -2.814   0.259  0.00  0.00    +0.010 A 
ATOM      6  C   LIG    1       -0.297  -2.148  -0.841  0.00  0.00    +0.010 A 
ATOM      7  C   LIG    1       -0.338  -0.766  -0.854  0.00  0.00    +0.060 A 
ENDBRANCH   1   2
BRANCH   1  10
ATOM      8  N   LIG    1       -2.112   1.935   1.257  0.00  0.00    -0.660 N 
ATOM      9  H   LIG    1       -2.533   1.554   0.471  0.00  0.00    +0.410 HD
ATOM     10  C   LIG    1       -0.768   1.943   1.365  0.00  0.00    +0.540 C 
ATOM     11  O   LIG    1       -0.244   2.343   2.383  0.00  0.00    -0.500 OA
BRANCH   8  17
ATOM     12  C   LIG    1       -2.706   3.028   6.014  0.00  0.00    +0.090 C 
ATOM     13  C   LIG    1       -3.211   3.020   4.594  0.00  0.00    -0.070 A 
ATOM     14  C   LIG    1       -4.454   3.550   4.301  0.00  0.00    -0.010 A 
ATOM     15  C   LIG    1       -4.922   3.545   2.999  0.00  0.00    +0.030 A 
ATOM     16  C   LIG    1       -4.148   3.011   1.988  0.00  0.00    -0.120 A 
ATOM     17  C   LIG    1       -2.899   2.478   2.279  0.00  0.00    +0.150 A 
ATOM     18  C   LIG    1       -4.658   3.005   0.570  0.00  0.00    +0.080 C 
ATOM     19  C   LIG    1       -2.435   2.479   3.588  0.00  0.00    +0.020 A 
ENDBRANCH   8  17
ENDBRANCH   1  10
BRANCH   1  20
ATOM     20  S   LIG    1        1.760   2.111   0.393  0.00  0.00    +0.090 S 
BRANCH  20  21
ATOM     21  C   LIG    1        2.473   1.529  -1.110  0.00  0.00    +0.140 A 
ATOM     22  N   LIG    1        1.868   0.822  -2.036  0.00  0.00    -0.280 NA
ATOM     23  N   LIG    1        2.680   0.568  -2.998  0.00  0.00    -0.270 NA
ATOM     24  C   LIG    1        3.854   1.097  -2.746  0.00  0.00    +0.270 A 
ATOM     25  N   LIG    1        3.757   1.735  -1.532  0.00  0.00    -0.460 N 
ATOM     26  C   LIG    1        4.810   2.476  -0.834  0.00  0.00    +0.350 C 
BRANCH  24  27
ATOM     27  C   LIG    1        5.054   1.027  -3.609  0.00  0.00    -0.140 A 
ATOM     28  C   LIG    1        5.116   1.250  -4.949  0.00  0.00    +0.060 A 
ATOM     29  O   LIG    1        6.386   1.086  -5.348  0.00  0.00    -0.170 OA
ATOM     30  C   LIG    1        7.172   0.760  -4.311  0.00  0.00    +0.180 A 
ATOM     31  C   LIG    1        3.955   1.620  -5.836  0.00  0.00    +0.180 C 
ATOM     32  C   LIG    1        6.426   0.708  -3.194  0.00  0.00    -0.050 A 
ENDBRANCH  24  27
ENDBRANCH  20  21
ENDBRANCH   1  20
TORSDOF 6
