REMARK  Name = ZINCrg00000fSvKk.1
REMARK                            x       y       z     vdW  Elec       q    Type
REMARK                         _______ _______ _______ _____ _____    ______ ____
ROOT
ATOM      1  C   LIG    1       -3.886  -3.559   0.326  0.00  0.00    +0.510 C 
ATOM      2  O   LIG    1       -5.065  -3.333   0.141  0.00  0.00    -0.500 OA
ENDROOT
BRANCH   1   6
ATOM      3  C   LIG    1       -2.612  -7.473   1.370  0.00  0.00    -0.070 A 
ATOM      4  C   LIG    1       -3.956  -7.220   1.159  0.00  0.00    +0.030 A 
ATOM      5  C   LIG    1       -4.377  -5.950   0.820  0.00  0.00    +0.090 A 
ATOM      6  C   LIG    1       -3.443  -4.921   0.689  0.00  0.00    -0.120 A 
ATOM      7  C   LIG    1       -2.088  -5.185   0.898  0.00  0.00    +0.090 A 
ATOM      8  C   LIG    1       -1.682  -6.458   1.242  0.00  0.00    +0.030 A 
BRANCH   3   9
ATOM      9  C   LIG    1       -2.160  -8.863   1.740  0.00  0.00    +0.330 C 
BRANCH   9  14
ATOM     10  N   LIG    1       -1.163 -11.592  -0.513  0.00  0.00    -0.870 N 
ATOM     11  H   LIG    1       -0.857 -12.511  -0.450  0.00  0.00    +0.420 HD
ATOM     12  H   LIG    1       -1.271 -11.175  -1.382  0.00  0.00    +0.400 HD
ATOM     13  C   LIG    1       -1.438 -10.896   0.608  0.00  0.00    +0.710 C 
ATOM     14  N   LIG    1       -1.862  -9.620   0.521  0.00  0.00    -0.740 N 
ATOM     15  H   LIG    1       -1.970  -9.203  -0.348  0.00  0.00    +0.400 HD
ATOM     16  O   LIG    1       -1.302 -11.419   1.697  0.00  0.00    -0.590 OA
ENDBRANCH   9  14
ENDBRANCH   3   9
ENDBRANCH   1   6
BRANCH   1  17
ATOM     17  O   LIG    1       -2.983  -2.568   0.201  0.00  0.00    -0.320 OA
BRANCH  17  18
ATOM     18  C   LIG    1       -3.490  -1.255  -0.158  0.00  0.00    +0.340 C 
BRANCH  18  19
ATOM     19  C   LIG    1       -2.343  -0.282  -0.252  0.00  0.00    +0.430 C 
ATOM     20  N   LIG    1       -1.157  -0.719  -0.017  0.00  0.00    -0.520 NA
ATOM     21  C   LIG    1        0.002  -0.004   0.002  0.00  0.00    +0.190 A 
ATOM     22  C   LIG    1        1.238  -0.657  -0.000  0.00  0.00    +0.040 A 
ATOM     23  C   LIG    1        2.404   0.080  -0.003  0.00  0.00    +0.080 A 
ATOM     24  C   LIG    1        2.366   1.462  -0.004  0.00  0.00    +0.000 A 
ATOM     25  C   LIG    1        1.145   2.122   0.003  0.00  0.00    +0.140 A 
ATOM     26  C   LIG    1       -0.017   1.396   0.010  0.00  0.00    -0.700 A 
ATOM     27  S   LIG    1       -1.600   2.186   0.040  0.00  0.00    +2.670 S 
ATOM     28  O   LIG    1       -1.553   3.246  -0.906  0.00  0.00    -0.930 OA
ATOM     29  O   LIG    1       -1.951   2.361   1.405  0.00  0.00    -0.920 OA
ATOM     30  N   LIG    1       -2.624   1.021  -0.583  0.00  0.00    -1.060 N 
ATOM     31  H   LIG    1       -3.378   1.253  -1.148  0.00  0.00    +0.440 HD
ENDBRANCH  18  19
ENDBRANCH  17  18
ENDBRANCH   1  17
TORSDOF 6
