REMARK  Name = ZINCrg000000sVkK.0
REMARK                            x       y       z     vdW  Elec       q    Type
REMARK                         _______ _______ _______ _____ _____    ______ ____
ROOT
ATOM      1  N   LIG    1        3.583   2.138  -0.020  0.00  0.00    -0.660 N 
ATOM      2  H   LIG    1        4.430   1.669   0.051  0.00  0.00    +0.420 HD
ATOM      3  C   LIG    1        3.564   3.482  -0.115  0.00  0.00    +0.490 C 
ATOM      4  O   LIG    1        2.506   4.076  -0.103  0.00  0.00    -0.490 OA
ENDROOT
BRANCH   1  10
ATOM      5  C   LIG    1        2.319   0.157   0.571  0.00  0.00    -0.130 A 
ATOM      6  C   LIG    1        1.126  -0.551   0.563  0.00  0.00    +0.010 A 
ATOM      7  C   LIG    1        0.003  -0.006  -0.032  0.00  0.00    +0.010 A 
ATOM      8  C   LIG    1        0.065   1.243  -0.620  0.00  0.00    +0.030 A 
ATOM      9  C   LIG    1        1.250   1.956  -0.618  0.00  0.00    +0.040 A 
ATOM     10  C   LIG    1        2.381   1.418  -0.024  0.00  0.00    +0.170 A 
BRANCH   5  11
ATOM     11  S   LIG    1        3.752  -0.535   1.327  0.00  0.00    -0.040 S 
BRANCH  11  12
ATOM     12  C   LIG    1        3.160  -2.139   1.933  0.00  0.00    +0.090 C 
BRANCH  12  16
ATOM     13  N   LIG    1        4.080  -4.087   3.149  0.00  0.00    -0.850 N 
ATOM     14  H   LIG    1        4.807  -4.554   3.589  0.00  0.00    +0.410 HD
ATOM     15  H   LIG    1        3.203  -4.498   3.091  0.00  0.00    +0.400 HD
ATOM     16  C   LIG    1        4.289  -2.866   2.617  0.00  0.00    +0.540 C 
ATOM     17  O   LIG    1        5.385  -2.352   2.690  0.00  0.00    -0.520 OA
ENDBRANCH  12  16
ENDBRANCH  11  12
ENDBRANCH   5  11
ENDBRANCH   1  10
BRANCH   3  18
ATOM     18  C   LIG    1        4.856   4.248  -0.236  0.00  0.00    +0.390 C 
BRANCH  18  19
ATOM     19  N   LIG    1        4.568   5.682  -0.323  0.00  0.00    -0.910 N 
ATOM     20  C   LIG    1        4.268   6.380  -1.428  0.00  0.00    +0.550 C 
ATOM     21  C   LIG    1        4.009   7.819  -1.285  0.00  0.00    -0.110 A 
ATOM     22  C   LIG    1        3.676   8.778  -2.256  0.00  0.00    +0.110 A 
ATOM     23  C   LIG    1        3.480  10.092  -1.896  0.00  0.00    +0.070 A 
ATOM     24  C   LIG    1        3.607  10.495  -0.579  0.00  0.00    +0.060 A 
ATOM     25  C   LIG    1        3.937   9.561   0.393  0.00  0.00    +0.160 A 
ATOM     26  C   LIG    1        4.131   8.255   0.040  0.00  0.00    -0.620 A 
ATOM     27  O   LIG    1        4.209   5.838  -2.515  0.00  0.00    -0.460 OA
ATOM     28  S   LIG    1        4.551   6.784   0.933  0.00  0.00    +2.660 S 
ATOM     29  O   LIG    1        5.888   6.930   1.392  0.00  0.00    -0.920 OA
ATOM     30  O   LIG    1        3.449   6.463   1.770  0.00  0.00    -0.900 OA
ENDBRANCH  18  19
ENDBRANCH   3  18
TORSDOF 6
