REMARK  Name = ZINCtj00001UqOrw.0
REMARK                            x       y       z     vdW  Elec       q    Type
REMARK                         _______ _______ _______ _____ _____    ______ ____
ROOT
ATOM      1  C   LIG    1        0.831  -1.840  -1.432  0.00  0.00    +0.440 A 
ATOM      2  C   LIG    1        0.321  -2.751  -0.512  0.00  0.00    -0.120 A 
ATOM      3  C   LIG    1        0.471  -4.105  -0.753  0.00  0.00    +0.230 A 
ATOM      4  C   LIG    1        1.127  -4.504  -1.909  0.00  0.00    -0.780 A 
ATOM      5  C   LIG    1        1.609  -3.546  -2.779  0.00  0.00    +0.440 A 
ATOM      6  N   LIG    1        1.447  -2.261  -2.526  0.00  0.00    -0.540 NA
ENDROOT
BRANCH   4   7
ATOM      7  S   LIG    1        1.344  -6.216  -2.263  0.00  0.00    +2.700 S 
ATOM      8  O   LIG    1        1.272  -6.896  -1.017  0.00  0.00    -0.950 OA
ATOM      9  O   LIG    1        2.462  -6.308  -3.135  0.00  0.00    -0.950 OA
BRANCH   7  10
ATOM     10  N   LIG    1        0.027  -6.706  -3.139  0.00  0.00    -1.120 NA
ATOM     11  H   LIG    1       -0.588  -7.358  -2.768  0.00  0.00    +0.420 HD
BRANCH  10  12
ATOM     12  C   LIG    1       -0.209  -6.156  -4.476  0.00  0.00    +0.270 C 
BRANCH  12  13
ATOM     13  C   LIG    1       -1.239  -7.018  -5.208  0.00  0.00    +0.050 C 
BRANCH  13  14
ATOM     14  C   LIG    1       -1.486  -6.443  -6.604  0.00  0.00    +0.000 C 
ATOM     15  C   LIG    1       -2.171  -5.059  -6.520  0.00  0.00    +0.050 C 
ATOM     16  C   LIG    1       -3.132  -5.049  -7.689  0.00  0.00    +0.510 C 
ATOM     17  N   LIG    1       -3.318  -6.300  -8.145  0.00  0.00    -0.620 N 
ATOM     18  C   LIG    1       -4.183  -6.647  -9.276  0.00  0.00    +0.290 C 
ATOM     19  O   LIG    1       -3.657  -4.057  -8.148  0.00  0.00    -0.530 OA
ATOM     20  C   LIG    1       -2.545  -7.273  -7.365  0.00  0.00    +0.270 C 
ENDBRANCH  13  14
ENDBRANCH  12  13
ENDBRANCH  10  12
ENDBRANCH   7  10
ENDBRANCH   4   7
BRANCH   1  21
ATOM     21  N   LIG    1        0.688  -0.476  -1.203  0.00  0.00    -0.720 N 
ATOM     22  H   LIG    1        1.042   0.162  -1.842  0.00  0.00    +0.420 HD
BRANCH  21  23
ATOM     23  C   LIG    1        0.002  -0.004   0.002  0.00  0.00    +0.280 C 
BRANCH  23  24
ATOM     24  C   LIG    1       -0.019   1.526   0.010  0.00  0.00    +0.260 C 
BRANCH  24  29
ATOM     25  C   LIG    1       -1.636   3.800   4.984  0.00  0.00    +0.050 C 
ATOM     26  C   LIG    1       -0.809   3.361   3.774  0.00  0.00    -0.010 C 
ATOM     27  C   LIG    1       -1.405   3.968   2.500  0.00  0.00    +0.060 C 
ATOM     28  C   LIG    1       -0.621   3.463   1.287  0.00  0.00    +0.250 C 
ATOM     29  N   LIG    1       -0.706   2.000   1.219  0.00  0.00    -0.380 N 
ATOM     30  C   LIG    1       -0.073   1.409   2.404  0.00  0.00    +0.240 C 
ATOM     31  H   LIG    1       -1.675   1.721   1.184  0.00  0.00    +0.430 HD
ATOM     32  C   LIG    1       -0.835   1.834   3.660  0.00  0.00    +0.060 C 
ENDBRANCH  24  29
ENDBRANCH  23  24
ENDBRANCH  21  23
ENDBRANCH   1  21
TORSDOF 9
