REMARK  Name = ZINCqH0000032Xay.0
REMARK                            x       y       z     vdW  Elec       q    Type
REMARK                         _______ _______ _______ _____ _____    ______ ____
ROOT
ATOM      1  C   LIG    1       -0.076   5.774   0.033  0.00  0.00    +0.370 C 
ENDROOT
BRANCH   1   5
ATOM      2  C   LIG    1       -0.018   1.503   0.010  0.00  0.00    -0.070 A 
ATOM      3  C   LIG    1       -1.225   2.178   0.020  0.00  0.00    +0.010 A 
ATOM      4  C   LIG    1       -1.244   3.560   0.032  0.00  0.00    +0.010 A 
ATOM      5  C   LIG    1       -0.056   4.267   0.025  0.00  0.00    -0.100 A 
ATOM      6  C   LIG    1        1.151   3.592   0.010  0.00  0.00    +0.030 A 
ATOM      7  C   LIG    1        1.169   2.210   0.003  0.00  0.00    +0.020 A 
BRANCH   2   8
ATOM      8  C   LIG    1        0.002  -0.004   0.002  0.00  0.00    +0.060 C 
BRANCH   8   9
ATOM      9  C   LIG    1        0.023  -0.522   1.442  0.00  0.00    +0.010 C 
BRANCH   9  11
ATOM     10  C   LIG    1        0.064  -2.569   2.873  0.00  0.00    +0.000 C 
ATOM     11  C   LIG    1        0.043  -2.052   1.433  0.00  0.00    -0.010 C 
ENDBRANCH   9  11
ENDBRANCH   8   9
ENDBRANCH   2   8
ENDBRANCH   1   5
BRANCH   1  12
ATOM     12  C   LIG    1       -0.342   6.280  -1.361  0.00  0.00    -0.190 A 
ATOM     13  C   LIG    1        0.587   6.733  -2.205  0.00  0.00    +0.020 A 
ATOM     14  C   LIG    1        0.105   7.146  -3.435  0.00  0.00    +0.010 A 
ATOM     15  C   LIG    1       -1.215   7.030  -3.590  0.00  0.00    -0.050 A 
ATOM     16  S   LIG    1       -1.923   6.359  -2.127  0.00  0.00    +0.100 S 
ENDBRANCH   1  12
BRANCH   1  17
ATOM     17  N   LIG    1       -1.133   6.243   0.933  0.00  0.00    -0.720 N 
ATOM     18  H   LIG    1       -1.897   5.676   1.121  0.00  0.00    +0.400 HD
ATOM     19  C   LIG    1       -1.044   7.463   1.498  0.00  0.00    +0.530 C 
ATOM     20  O   LIG    1       -0.089   8.173   1.262  0.00  0.00    -0.510 OA
BRANCH  19  21
ATOM     21  C   LIG    1       -2.131   7.946   2.424  0.00  0.00    +0.020 C 
ATOM     22  C   LIG    1       -3.467   8.038   1.665  0.00  0.00    +0.080 C 
ATOM     23  C   LIG    1       -4.465   8.845   2.519  0.00  0.00    -0.310 C 
ATOM     24  S   LIG    1       -3.432   9.968   3.527  0.00  0.00    +2.390 S 
ATOM     25  O   LIG    1       -3.633  11.308   3.099  0.00  0.00    -0.930 OA
ATOM     26  O   LIG    1       -3.576   9.635   4.901  0.00  0.00    -0.930 OA
ATOM     27  C   LIG    1       -1.805   9.376   2.926  0.00  0.00    -0.270 C 
ENDBRANCH  19  21
ENDBRANCH   1  17
TORSDOF 7
