REMARK  Name = ZINCrD00000l5PuT.0
REMARK                            x       y       z     vdW  Elec       q    Type
REMARK                         _______ _______ _______ _____ _____    ______ ____
ROOT
ATOM      1  C   LIG    1        7.592   3.948   6.495  0.00  0.00    +0.090 C 
ATOM      2  C   LIG    1        6.197   3.396   6.354  0.00  0.00    -0.080 A 
ATOM      3  C   LIG    1        5.405   3.219   7.474  0.00  0.00    +0.000 A 
ATOM      4  C   LIG    1        4.131   2.708   7.337  0.00  0.00    -0.070 A 
ATOM      5  C   LIG    1        3.638   2.370   6.084  0.00  0.00    -0.100 A 
ATOM      6  C   LIG    1        4.422   2.554   4.967  0.00  0.00    -0.070 A 
ATOM      7  C   LIG    1        3.945   2.239   3.574  0.00  0.00    +0.070 C 
ATOM      8  C   LIG    1        2.761   1.265   3.610  0.00  0.00    +0.270 C 
ATOM      9  N   LIG    1        1.802   1.768   4.607  0.00  0.00    -0.600 N 
ATOM     10  C   LIG    1        0.567   2.171   4.250  0.00  0.00    +0.570 C 
ATOM     11  O   LIG    1       -0.193   2.618   5.087  0.00  0.00    -0.510 OA
ATOM     12  C   LIG    1        2.242   1.806   6.006  0.00  0.00    +0.270 C 
ATOM     13  C   LIG    1        1.290   2.689   6.815  0.00  0.00    +0.060 C 
ATOM     14  C   LIG    1        3.268   2.514   8.557  0.00  0.00    +0.090 C 
ATOM     15  C   LIG    1        5.707   3.064   5.108  0.00  0.00    -0.010 A 
ENDROOT
BRANCH  10  16
ATOM     16  C   LIG    1        0.135   2.070   2.840  0.00  0.00    -0.150 A 
ATOM     17  C   LIG    1        1.050   2.290   1.809  0.00  0.00    +0.100 A 
ATOM     18  C   LIG    1        0.641   2.193   0.495  0.00  0.00    -0.110 A 
ATOM     19  C   LIG    1       -0.675   1.884   0.198  0.00  0.00    +0.040 A 
ATOM     20  C   LIG    1       -1.586   1.659   1.215  0.00  0.00    -0.680 A 
ATOM     21  C   LIG    1       -1.116   1.787  -1.240  0.00  0.00    +0.110 C 
ATOM     22  C   LIG    1        1.627   2.430  -0.619  0.00  0.00    +0.110 C 
ATOM     23  C   LIG    1       -1.190   1.753   2.533  0.00  0.00    +0.200 A 
BRANCH  20  24
ATOM     24  S   LIG    1       -3.257   1.260   0.826  0.00  0.00    +2.700 S 
ATOM     25  O   LIG    1       -3.938   1.131   2.066  0.00  0.00    -0.960 OA
ATOM     26  O   LIG    1       -3.206   0.223  -0.144  0.00  0.00    -0.950 OA
BRANCH  24  27
ATOM     27  N   LIG    1       -3.912   2.578   0.067  0.00  0.00    -1.250 NA
ATOM     28  H   LIG    1       -4.835   2.557  -0.231  0.00  0.00    +0.420 HD
ATOM     29  H   LIG    1       -3.373   3.371  -0.080  0.00  0.00    +0.420 HD
ENDBRANCH  24  27
ENDBRANCH  20  24
ENDBRANCH  10  16
TORSDOF 3
