REMARK  Name = ZINCnE00000rhoip.0
REMARK                            x       y       z     vdW  Elec       q    Type
REMARK                         _______ _______ _______ _____ _____    ______ ____
ROOT
ATOM      1  N   LIG    1       -2.284  -0.096   0.024  0.00  0.00    -0.120 NA
ATOM      2  N   LIG    1       -1.150  -0.711   0.010  0.00  0.00    -0.260 NA
ENDROOT
BRANCH   2   3
ATOM      3  C   LIG    1        0.002  -0.004   0.002  0.00  0.00    +0.040 A 
ATOM      4  C   LIG    1       -0.017   1.395   0.010  0.00  0.00    +0.150 A 
ATOM      5  C   LIG    1        1.176   2.116   0.002  0.00  0.00    -0.010 A 
ATOM      6  C   LIG    1        2.387   1.498  -0.012  0.00  0.00    +0.050 A 
ATOM      7  C   LIG    1        2.480   0.094  -0.021  0.00  0.00    -0.070 A 
ATOM      8  C   LIG    1        3.727  -0.553  -0.037  0.00  0.00    +0.030 A 
ATOM      9  C   LIG    1        3.780  -1.914  -0.044  0.00  0.00    -0.010 A 
ATOM     10  C   LIG    1        2.615  -2.677  -0.037  0.00  0.00    +0.000 A 
ATOM     11  C   LIG    1        1.388  -2.080  -0.022  0.00  0.00    +0.040 A 
ATOM     12  C   LIG    1        1.298  -0.685  -0.014  0.00  0.00    +0.000 A 
BRANCH   4  13
ATOM     13  O   LIG    1       -1.202   2.053   0.019  0.00  0.00    -0.430 OA
ATOM     14  H   LIG    1       -1.542   2.239   0.905  0.00  0.00    +0.400 HD
ENDBRANCH   4  13
ENDBRANCH   2   3
BRANCH   1  21
ATOM     15  C   LIG    1       -4.689  -0.141   0.054  0.00  0.00    -0.050 A 
ATOM     16  C   LIG    1       -5.870  -0.885   0.056  0.00  0.00    +0.060 A 
ATOM     17  C   LIG    1       -5.815  -2.265   0.048  0.00  0.00    -0.020 A 
ATOM     18  C   LIG    1       -4.593  -2.921   0.032  0.00  0.00    +0.000 A 
ATOM     19  C   LIG    1       -3.414  -2.204   0.024  0.00  0.00    +0.040 A 
ATOM     20 CL   LIG    1       -7.287  -3.186   0.058  0.00  0.00    -0.080 Cl
ATOM     21  C   LIG    1       -3.446  -0.809   0.032  0.00  0.00    +0.060 A 
BRANCH  15  23
ATOM     22  O   LIG    1       -5.821   1.905   0.088  0.00  0.00    -0.690 OA
ATOM     23  C   LIG    1       -4.741   1.331   0.069  0.00  0.00    +0.510 C 
ATOM     24  O   LIG    1       -3.703   1.979   0.062  0.00  0.00    -0.630 OA
ENDBRANCH  15  23
ENDBRANCH   1  21
TORSDOF 4
