REMARK  Name = ZINCqH0000050r0e.0
REMARK                            x       y       z     vdW  Elec       q    Type
REMARK                         _______ _______ _______ _____ _____    ______ ____
ROOT
ATOM      1  C   LIG    1       -0.053   1.429   0.280  0.00  0.00    -0.660 A 
ATOM      2  C   LIG    1        1.182   1.941  -0.076  0.00  0.00    +0.130 A 
ATOM      3  C   LIG    1        2.326   1.198   0.131  0.00  0.00    +0.030 A 
ATOM      4  C   LIG    1        2.235  -0.073   0.701  0.00  0.00    -0.070 A 
ATOM      5  C   LIG    1        0.986  -0.584   1.057  0.00  0.00    +0.070 A 
ATOM      6  C   LIG    1       -0.150   0.170   0.845  0.00  0.00    +0.130 A 
ENDROOT
BRANCH   4   7
ATOM      7  C   LIG    1        3.456  -0.876   0.925  0.00  0.00    +0.560 C 
ATOM      8  N   LIG    1        4.635  -0.261   1.149  0.00  0.00    -0.600 N 
ATOM      9  C   LIG    1        4.701   1.199   1.294  0.00  0.00    +0.270 C 
ATOM     10  C   LIG    1        5.415   1.527   2.615  0.00  0.00    +0.010 C 
ATOM     11  C   LIG    1        6.777   0.830   2.638  0.00  0.00    +0.020 C 
ATOM     12  C   LIG    1        6.579  -0.685   2.561  0.00  0.00    +0.010 C 
ATOM     13  C   LIG    1        5.878  -1.038   1.246  0.00  0.00    +0.280 C 
ATOM     14  O   LIG    1        3.397  -2.090   0.908  0.00  0.00    -0.520 OA
ENDBRANCH   4   7
BRANCH   1  15
ATOM     15  S   LIG    1       -1.509   2.382   0.005  0.00  0.00    +2.690 S 
ATOM     16  O   LIG    1       -2.567   1.452  -0.186  0.00  0.00    -0.940 OA
ATOM     17  O   LIG    1       -1.165   3.374  -0.952  0.00  0.00    -0.950 OA
BRANCH  15  18
ATOM     18  N   LIG    1       -1.843   3.186   1.413  0.00  0.00    -1.050 N 
ATOM     19  H   LIG    1       -1.847   4.156   1.429  0.00  0.00    +0.430 HD
BRANCH  18  24
ATOM     20  C   LIG    1       -2.955   0.271   6.149  0.00  0.00    +0.090 C 
ATOM     21  C   LIG    1       -2.659   1.045   4.890  0.00  0.00    -0.090 A 
ATOM     22  C   LIG    1       -3.269   0.689   3.701  0.00  0.00    +0.040 A 
ATOM     23  C   LIG    1       -3.004   1.400   2.547  0.00  0.00    +0.010 A 
ATOM     24  C   LIG    1       -2.116   2.467   2.580  0.00  0.00    +0.140 A 
ATOM     25  C   LIG    1       -1.505   2.823   3.776  0.00  0.00    +0.010 A 
ATOM     26  C   LIG    1       -1.778   2.111   4.927  0.00  0.00    -0.070 A 
ATOM     27  C   LIG    1       -1.115   2.495   6.225  0.00  0.00    +0.090 C 
ENDBRANCH  18  24
ENDBRANCH  15  18
ENDBRANCH   1  15
TORSDOF 4
