REMARK  Name = ZINCrD000000Aebp.0
REMARK                            x       y       z     vdW  Elec       q    Type
REMARK                         _______ _______ _______ _____ _____    ______ ____
ROOT
ATOM      1  C   LIG    1       -4.499  -3.202   0.028  0.00  0.00    +0.030 C 
ENDROOT
BRANCH   1   3
ATOM      2  O   LIG    1       -2.981  -5.008   0.004  0.00  0.00    -0.530 OA
ATOM      3  C   LIG    1       -4.145  -4.666   0.017  0.00  0.00    +0.510 C 
ATOM      4  N   LIG    1       -5.120  -5.596   0.021  0.00  0.00    -0.730 N 
ATOM      5  H   LIG    1       -6.051  -5.322   0.031  0.00  0.00    +0.400 HD
BRANCH   4   6
ATOM      6  C   LIG    1       -4.776  -7.020   0.010  0.00  0.00    +0.180 C 
ATOM      7  C   LIG    1       -3.966  -7.339  -1.249  0.00  0.00    +0.030 C 
ATOM      8  C   LIG    1       -3.606  -8.826  -1.260  0.00  0.00    -0.010 C 
ATOM      9  C   LIG    1       -2.773  -9.158  -0.021  0.00  0.00    +0.020 C 
ATOM     10  C   LIG    1       -3.583  -8.839   1.238  0.00  0.00    -0.010 C 
ATOM     11  C   LIG    1       -4.864  -9.675   1.246  0.00  0.00    +0.010 C 
ATOM     12  C   LIG    1       -5.697  -9.342   0.006  0.00  0.00    -0.010 C 
ATOM     13  C   LIG    1       -4.888  -9.661  -1.252  0.00  0.00    +0.010 C 
ATOM     14  C   LIG    1       -3.943  -7.352   1.250  0.00  0.00    +0.030 C 
ATOM     15  C   LIG    1       -6.057  -7.855   0.018  0.00  0.00    +0.030 C 
ENDBRANCH   4   6
ENDBRANCH   1   3
BRANCH   1  16
ATOM     16  C   LIG    1       -3.218  -2.366   0.020  0.00  0.00    +0.080 C 
BRANCH  16  17
ATOM     17  C   LIG    1       -3.578  -0.879   0.031  0.00  0.00    +0.120 C 
BRANCH  17  18
ATOM     18  C   LIG    1       -2.315  -0.057   0.024  0.00  0.00    +0.390 A 
ATOM     19  N   LIG    1       -1.175  -0.678   0.010  0.00  0.00    -0.510 NA
ATOM     20  C   LIG    1        0.002  -0.004   0.002  0.00  0.00    +0.150 A 
ATOM     21  C   LIG    1        1.228  -0.671  -0.013  0.00  0.00    +0.030 A 
ATOM     22  C   LIG    1        2.399   0.053  -0.020  0.00  0.00    +0.070 A 
ATOM     23  C   LIG    1        2.377   1.442  -0.011  0.00  0.00    -0.010 A 
ATOM     24  C   LIG    1        1.179   2.123   0.002  0.00  0.00    +0.100 A 
ATOM     25  C   LIG    1       -0.017   1.409   0.010  0.00  0.00    -0.200 A 
ATOM     26  C   LIG    1       -1.325   2.081   0.032  0.00  0.00    +0.550 A 
ATOM     27  O   LIG    1       -1.411   3.295   0.040  0.00  0.00    -0.510 OA
ATOM     28  N   LIG    1       -2.428   1.297   0.033  0.00  0.00    -0.650 N 
ATOM     29  H   LIG    1       -3.308   1.706   0.044  0.00  0.00    +0.420 HD
ENDBRANCH  17  18
ENDBRANCH  16  17
ENDBRANCH   1  16
TORSDOF 5
