REMARK  Name = ZINCpk00000kJibn.0
REMARK                            x       y       z     vdW  Elec       q    Type
REMARK                         _______ _______ _______ _____ _____    ______ ____
ROOT
ATOM      1  C   LIG    1        3.226   5.745   3.356  0.00  0.00    +0.520 C 
ATOM      2  N   LIG    1        2.292   5.122   2.610  0.00  0.00    -0.630 N 
ATOM      3  C   LIG    1        2.075   5.480   1.199  0.00  0.00    +0.300 C 
ATOM      4  C   LIG    1        2.368   4.247   0.342  0.00  0.00    +0.250 C 
ATOM      5  N   LIG    1        1.723   3.066   0.898  0.00  0.00    -0.590 N 
ATOM      6  C   LIG    1        1.337   2.942   2.169  0.00  0.00    +0.510 C 
ATOM      7  O   LIG    1        0.876   1.881   2.533  0.00  0.00    -0.540 OA
ATOM      8  C   LIG    1        1.450   4.056   3.173  0.00  0.00    +0.330 C 
ATOM      9  O   LIG    1        3.907   6.621   2.867  0.00  0.00    -0.510 OA
ENDROOT
BRANCH   5  10
ATOM     10  C   LIG    1        1.477   1.937  -0.002  0.00  0.00    +0.230 C 
ATOM     11  C   LIG    1        2.783   1.495  -0.705  0.00  0.00    -0.000 C 
ATOM     12  C   LIG    1        2.352   1.202  -2.155  0.00  0.00    +0.200 C 
ATOM     13  O   LIG    1        0.932   1.413  -2.229  0.00  0.00    -0.370 OA
ATOM     14  C   LIG    1        0.593   2.367  -1.200  0.00  0.00    +0.210 C 
ENDBRANCH   5  10
BRANCH   1  15
ATOM     15  C   LIG    1        3.423   5.354   4.798  0.00  0.00    +0.140 C 
BRANCH  15  21
ATOM     16  C   LIG    1        4.943  11.340   7.832  0.00  0.00    +0.090 C 
ATOM     17  C   LIG    1        4.749   9.995   7.180  0.00  0.00    -0.070 A 
ATOM     18  C   LIG    1        3.485   9.614   6.753  0.00  0.00    -0.020 A 
ATOM     19  C   LIG    1        3.289   8.399   6.160  0.00  0.00    +0.050 A 
ATOM     20  C   LIG    1        4.369   7.533   5.982  0.00  0.00    -0.090 A 
ATOM     21  C   LIG    1        4.518   6.196   5.402  0.00  0.00    -0.160 A 
ATOM     22  C   LIG    1        5.814   5.865   5.505  0.00  0.00    +0.240 A 
ATOM     23  N   LIG    1        6.508   6.878   6.108  0.00  0.00    -0.590 N 
ATOM     24  H   LIG    1        7.461   6.870   6.291  0.00  0.00    +0.420 HD
ATOM     25  C   LIG    1        5.653   7.912   6.416  0.00  0.00    +0.100 A 
ATOM     26  C   LIG    1        5.828   9.152   7.021  0.00  0.00    -0.010 A 
ENDBRANCH  15  21
ENDBRANCH   1  15
TORSDOF 3
