REMARK  Name = ZINCpk00000SDEZj.0
REMARK                            x       y       z     vdW  Elec       q    Type
REMARK                         _______ _______ _______ _____ _____    ______ ____
ROOT
ATOM      1  N   LIG    1        2.857   4.194  -1.385  0.00  0.00    -0.280 N 
ATOM      2  C   LIG    1        3.128   5.407  -1.919  0.00  0.00    +0.180 A 
ATOM      3  C   LIG    1        3.460   5.183  -3.212  0.00  0.00    -0.060 A 
ATOM      4  N   LIG    1        3.376   3.862  -3.404  0.00  0.00    -0.250 NA
ATOM      5  N   LIG    1        3.022   3.304  -2.300  0.00  0.00    -0.060 NA
ENDROOT
BRANCH   1   6
ATOM      6  C   LIG    1        2.451   3.937  -0.001  0.00  0.00    +0.390 C 
BRANCH   6  11
ATOM      7  C   LIG    1       -1.238   3.133   0.030  0.00  0.00    -0.080 A 
ATOM      8  C   LIG    1       -1.219   1.751   0.017  0.00  0.00    +0.030 A 
ATOM      9  C   LIG    1       -0.013   1.076   0.008  0.00  0.00    +0.010 A 
ATOM     10  C   LIG    1        1.175   1.783   0.000  0.00  0.00    +0.050 A 
ATOM     11  C   LIG    1        1.156   3.166   0.008  0.00  0.00    -0.120 A 
ATOM     12  C   LIG    1       -0.050   3.840   0.022  0.00  0.00    +0.030 A 
BRANCH   7  13
ATOM     13  C   LIG    1       -2.553   3.868   0.047  0.00  0.00    +0.100 C 
BRANCH  13  15
ATOM     14  C   LIG    1       -4.189   3.718  -1.760  0.00  0.00    +0.010 C 
ATOM     15  C   LIG    1       -3.005   4.121  -1.368  0.00  0.00    -0.040 C 
ENDBRANCH  13  15
ENDBRANCH   7  13
ENDBRANCH   6  11
ENDBRANCH   1   6
BRANCH   3  16
ATOM     16  C   LIG    1        3.848   6.220  -4.236  0.00  0.00    +0.460 C 
BRANCH  16  17
ATOM     17  N   LIG    1        5.149   5.873  -4.812  0.00  0.00    -0.290 N 
ATOM     18  C   LIG    1        5.412   5.715  -6.123  0.00  0.00    +0.430 A 
ATOM     19  N   LIG    1        6.679   5.413  -6.240  0.00  0.00    -0.460 NA
ATOM     20  C   LIG    1        7.198   5.377  -4.999  0.00  0.00    +0.150 A 
ATOM     21  N   LIG    1        6.234   5.663  -4.150  0.00  0.00    -0.230 NA
BRANCH  20  22
ATOM     22  C   LIG    1        8.600   5.069  -4.651  0.00  0.00    +0.570 C 
ATOM     23  O   LIG    1        8.951   5.066  -3.487  0.00  0.00    -0.480 OA
BRANCH  22  24
ATOM     24  O   LIG    1        9.490   4.791  -5.623  0.00  0.00    -0.330 OA
ATOM     25  C   LIG    1       10.851   4.498  -5.208  0.00  0.00    +0.290 C 
ENDBRANCH  22  24
ENDBRANCH  20  22
ENDBRANCH  16  17
ENDBRANCH   3  16
TORSDOF 8
