REMARK  Name = ZINCkj00000xti3v.0
REMARK                            x       y       z     vdW  Elec       q    Type
REMARK                         _______ _______ _______ _____ _____    ______ ____
ROOT
ATOM      1  N   LIG    1        1.831  -1.275  -0.964  0.00  0.00    -0.390 N 
ATOM      2  C   LIG    1        1.634  -1.740   0.433  0.00  0.00    +0.270 C 
ATOM      3  C   LIG    1        0.938  -0.534   1.113  0.00  0.00    +0.080 C 
ATOM      4  C   LIG    1        0.002  -0.004   0.002  0.00  0.00    +0.000 C 
ATOM      5  C   LIG    1        0.607  -0.523  -1.315  0.00  0.00    +0.280 C 
ATOM      6  H   LIG    1        2.638  -0.672  -1.021  0.00  0.00    +0.430 HD
ENDROOT
BRANCH   1   7
ATOM      7  C   LIG    1        1.994  -2.426  -1.863  0.00  0.00    +0.290 C 
BRANCH   7   8
ATOM      8  C   LIG    1        3.325  -3.119  -1.567  0.00  0.00    +0.070 C 
BRANCH   8  11
ATOM      9  N   LIG    1        4.599  -5.066  -2.410  0.00  0.00    -0.720 N 
ATOM     10  H   LIG    1        5.287  -4.857  -1.759  0.00  0.00    +0.410 HD
ATOM     11  C   LIG    1        3.492  -4.300  -2.489  0.00  0.00    +0.520 C 
ATOM     12  O   LIG    1        2.631  -4.561  -3.302  0.00  0.00    -0.530 OA
BRANCH   9  14
ATOM     13  C   LIG    1        6.093  -6.907  -3.010  0.00  0.00    +0.030 C 
ATOM     14  C   LIG    1        4.761  -6.213  -3.306  0.00  0.00    +0.250 C 
ENDBRANCH   9  14
ENDBRANCH   8  11
ENDBRANCH   7   8
ENDBRANCH   1   7
BRANCH   4  15
ATOM     15  C   LIG    1       -0.019   1.526   0.010  0.00  0.00    +0.280 C 
BRANCH  15  16
ATOM     16  N   LIG    1       -0.704   1.998   1.216  0.00  0.00    -0.730 N 
ATOM     17  H   LIG    1       -1.058   1.359   1.854  0.00  0.00    +0.410 HD
BRANCH  16  18
ATOM     18  C   LIG    1       -0.848   3.362   1.444  0.00  0.00    +0.390 A 
ATOM     19  C   LIG    1       -0.338   4.272   0.525  0.00  0.00    -0.110 A 
ATOM     20  C   LIG    1       -0.488   5.627   0.765  0.00  0.00    +0.110 A 
ATOM     21  C   LIG    1       -1.146   6.026   1.921  0.00  0.00    -0.080 A 
ATOM     22  C   LIG    1       -1.627   5.067   2.790  0.00  0.00    +0.310 A 
ATOM     23  N   LIG    1       -1.474   3.782   2.533  0.00  0.00    -0.540 NA
ENDBRANCH  16  18
ENDBRANCH  15  16
ENDBRANCH   4  15
TORSDOF 7
