REMARK  Name = ZINCkj00000xti3v.1
REMARK                            x       y       z     vdW  Elec       q    Type
REMARK                         _______ _______ _______ _____ _____    ______ ____
ROOT
ATOM      1  N   LIG    1       -1.960   2.365  -0.676  0.00  0.00    -0.390 N 
ATOM      2  C   LIG    1       -0.799   1.616  -1.205  0.00  0.00    +0.250 C 
ATOM      3  C   LIG    1       -0.013   1.086   0.008  0.00  0.00    +0.080 C 
ATOM      4  C   LIG    1       -0.778   1.605   1.246  0.00  0.00    +0.000 C 
ATOM      5  C   LIG    1       -1.565   2.817   0.682  0.00  0.00    +0.280 C 
ATOM      6  H   LIG    1       -2.767   1.762  -0.622  0.00  0.00    +0.430 HD
ENDROOT
BRANCH   1   7
ATOM      7  C   LIG    1       -2.248   3.523  -1.532  0.00  0.00    +0.290 C 
BRANCH   7   8
ATOM      8  C   LIG    1       -2.719   3.039  -2.905  0.00  0.00    +0.070 C 
BRANCH   8  11
ATOM      9  N   LIG    1       -3.447   4.042  -5.046  0.00  0.00    -0.720 N 
ATOM     10  H   LIG    1       -3.568   3.143  -5.389  0.00  0.00    +0.410 HD
ATOM     11  C   LIG    1       -3.015   4.228  -3.783  0.00  0.00    +0.520 C 
ATOM     12  O   LIG    1       -2.864   5.352  -3.353  0.00  0.00    -0.530 OA
BRANCH   9  14
ATOM     13  C   LIG    1       -4.206   4.713  -7.272  0.00  0.00    +0.030 C 
ATOM     14  C   LIG    1       -3.735   5.198  -5.899  0.00  0.00    +0.250 C 
ENDBRANCH   9  14
ENDBRANCH   8  11
ENDBRANCH   7   8
ENDBRANCH   1   7
BRANCH   4  15
ATOM     15  C   LIG    1        0.197   2.051   2.338  0.00  0.00    +0.290 C 
BRANCH  15  16
ATOM     16  N   LIG    1        0.925   0.887   2.848  0.00  0.00    -0.730 N 
ATOM     17  H   LIG    1        0.745   0.005   2.485  0.00  0.00    +0.410 HD
BRANCH  16  18
ATOM     18  C   LIG    1        1.872   1.045   3.853  0.00  0.00    +0.390 A 
ATOM     19  C   LIG    1        2.128   2.312   4.365  0.00  0.00    -0.110 A 
ATOM     20  C   LIG    1        3.070   2.454   5.369  0.00  0.00    +0.110 A 
ATOM     21  C   LIG    1        3.734   1.321   5.820  0.00  0.00    -0.080 A 
ATOM     22  C   LIG    1        3.434   0.095   5.262  0.00  0.00    +0.310 A 
ATOM     23  N   LIG    1        2.527  -0.012   4.309  0.00  0.00    -0.540 NA
ENDBRANCH  16  18
ENDBRANCH  15  16
ENDBRANCH   4  15
TORSDOF 7
