REMARK  Name = ZINCvU0000000F3G.0
REMARK                            x       y       z     vdW  Elec       q    Type
REMARK                         _______ _______ _______ _____ _____    ______ ____
ROOT
ATOM      1  C   LIG    1        0.877  -6.258   0.202  0.00  0.00    +0.210 A 
ATOM      2  N   LIG    1       -0.328  -6.782   0.284  0.00  0.00    -0.450 NA
ATOM      3  C   LIG    1       -1.433  -6.034   0.281  0.00  0.00    +0.130 A 
ATOM      4  C   LIG    1       -2.708  -6.622   0.370  0.00  0.00    +0.050 A 
ATOM      5  C   LIG    1       -3.817  -5.833   0.364  0.00  0.00    +0.030 A 
ATOM      6  C   LIG    1       -3.713  -4.447   0.271  0.00  0.00    +0.020 A 
ATOM      7  C   LIG    1       -2.494  -3.842   0.184  0.00  0.00    +0.060 A 
ATOM      8  C   LIG    1       -1.333  -4.623   0.187  0.00  0.00    -0.070 A 
ATOM      9  C   LIG    1       -0.004  -4.018   0.094  0.00  0.00    -0.070 A 
ATOM     10  C   LIG    1        1.087  -4.874   0.099  0.00  0.00    +0.020 A 
ENDROOT
BRANCH   1  14
ATOM     11  C   LIG    1        4.248  -8.849   0.231  0.00  0.00    +0.150 A 
ATOM     12  C   LIG    1        2.967  -9.378   0.316  0.00  0.00    -0.020 A 
ATOM     13  C   LIG    1        1.872  -8.541   0.307  0.00  0.00    +0.110 A 
ATOM     14  C   LIG    1        2.052  -7.161   0.212  0.00  0.00    -0.100 A 
ATOM     15  C   LIG    1        3.340  -6.633   0.121  0.00  0.00    +0.070 A 
ATOM     16  C   LIG    1        4.431  -7.476   0.137  0.00  0.00    -0.080 A 
BRANCH  11  18
ATOM     17  C   LIG    1        6.614  -9.066   0.150  0.00  0.00    +0.240 C 
ATOM     18  O   LIG    1        5.325  -9.677   0.241  0.00  0.00    -0.310 OA
ENDBRANCH  11  18
ENDBRANCH   1  14
BRANCH   9  19
ATOM     19  C   LIG    1        0.168  -2.552  -0.006  0.00  0.00    +0.570 C 
ATOM     20  N   LIG    1        1.395  -2.030  -0.203  0.00  0.00    -0.660 N 
ATOM     21  H   LIG    1        2.154  -2.616  -0.346  0.00  0.00    +0.410 HD
ATOM     22  O   LIG    1       -0.797  -1.819   0.089  0.00  0.00    -0.500 OA
BRANCH  20  23
ATOM     23  C   LIG    1        1.573  -0.643  -0.203  0.00  0.00    +0.160 A 
ATOM     24  C   LIG    1        2.739  -0.092   0.313  0.00  0.00    -0.020 A 
ATOM     25  C   LIG    1        2.915   1.279   0.314  0.00  0.00    +0.050 A 
ATOM     26  C   LIG    1        1.933   2.105  -0.197  0.00  0.00    +0.010 A 
ATOM     27  C   LIG    1        0.764   1.559  -0.715  0.00  0.00    +0.160 A 
ATOM     28  C   LIG    1        0.584   0.184  -0.717  0.00  0.00    +0.000 A 
BRANCH  27  29
ATOM     29  N   LIG    1       -0.230   2.397  -1.233  0.00  0.00    -0.670 N 
ATOM     30  H   LIG    1       -0.754   2.112  -1.998  0.00  0.00    +0.410 HD
ATOM     31  C   LIG    1       -0.459   3.599  -0.669  0.00  0.00    +0.510 C 
ATOM     32  O   LIG    1        0.250   3.991   0.234  0.00  0.00    -0.520 OA
ATOM     33  C   LIG    1       -1.596   4.458  -1.161  0.00  0.00    +0.110 C 
ENDBRANCH  27  29
ENDBRANCH  20  23
ENDBRANCH   9  19
TORSDOF 5
