REMARK  Name = ZINCvU00000008Zz.0
REMARK                            x       y       z     vdW  Elec       q    Type
REMARK                         _______ _______ _______ _____ _____    ______ ____
ROOT
ATOM      1  C   LIG    1       -1.358  -0.581   0.535  0.00  0.00    +0.560 C 
ATOM      2  N   LIG    1       -1.346  -1.922   0.673  0.00  0.00    -0.610 N 
ATOM      3  H   LIG    1       -0.501  -2.398   0.708  0.00  0.00    +0.430 HD
ATOM      4  O   LIG    1       -2.415   0.016   0.492  0.00  0.00    -0.470 OA
ENDROOT
BRANCH   1  13
ATOM      5  C   LIG    1       -2.330   1.665  -1.528  0.00  0.00    +0.210 C 
ATOM      6  C   LIG    1       -0.890   2.021  -1.262  0.00  0.00    +0.150 A 
ATOM      7  N   LIG    1       -0.238   3.021  -1.772  0.00  0.00    -0.260 NA
ATOM      8  O   LIG    1        1.090   3.021  -1.290  0.00  0.00    -0.070 OA
ATOM      9  C   LIG    1        1.261   1.983  -0.447  0.00  0.00    +0.310 A 
ATOM     10  N   LIG    1        2.296   1.548   0.256  0.00  0.00    -0.450 NA
ATOM     11  C   LIG    1        2.218   0.486   1.028  0.00  0.00    +0.240 A 
ATOM     12  C   LIG    1        1.045  -0.241   1.151  0.00  0.00    -0.010 A 
ATOM     13  C   LIG    1       -0.083   0.164   0.437  0.00  0.00    +0.000 A 
ATOM     14  C   LIG    1        0.031   1.305  -0.381  0.00  0.00    -0.210 A 
BRANCH  11  15
ATOM     15  C   LIG    1        3.437   0.049   1.800  0.00  0.00    +0.020 C 
ATOM     16  C   LIG    1        3.226  -0.930   2.957  0.00  0.00    +0.040 C 
ATOM     17  C   LIG    1        3.569   0.534   3.245  0.00  0.00    +0.060 C 
ENDBRANCH  11  15
ENDBRANCH   1  13
BRANCH   2  18
ATOM     18  C   LIG    1       -2.541  -2.621   0.766  0.00  0.00    +0.270 A 
ATOM     19  N   LIG    1       -2.650  -3.907   0.895  0.00  0.00    -0.490 NA
ATOM     20  C   LIG    1       -3.877  -4.402   0.973  0.00  0.00    +0.130 A 
ATOM     21  C   LIG    1       -4.870  -3.498   0.896  0.00  0.00    -0.110 A 
ATOM     22  S   LIG    1       -4.148  -1.900   0.719  0.00  0.00    +0.210 S 
BRANCH  20  23
ATOM     23  C   LIG    1       -4.137  -5.854   1.126  0.00  0.00    -0.050 A 
ATOM     24  C   LIG    1       -5.447  -6.325   1.203  0.00  0.00    +0.070 A 
ATOM     25  C   LIG    1       -5.686  -7.676   1.340  0.00  0.00    -0.050 A 
ATOM     26  C   LIG    1       -4.623  -8.566   1.414  0.00  0.00    +0.110 A 
ATOM     27  C   LIG    1       -3.318  -8.100   1.344  0.00  0.00    +0.000 A 
ATOM     28  C   LIG    1       -3.072  -6.751   1.201  0.00  0.00    +0.090 A 
BRANCH  26  29
ATOM     29  O   LIG    1       -4.862  -9.897   1.556  0.00  0.00    -0.320 OA
BRANCH  29  30
ATOM     30  C   LIG    1       -6.229 -10.308   1.621  0.00  0.00    +0.590 C 
ATOM     31  F   LIG    1       -6.886  -9.931   0.445  0.00  0.00    -0.200 F 
ATOM     32  F   LIG    1       -6.847  -9.696   2.717  0.00  0.00    -0.200 F 
ENDBRANCH  29  30
ENDBRANCH  26  29
ENDBRANCH  20  23
ENDBRANCH   2  18
TORSDOF 6
