REMARK  Name = ZINCvU000000095v.0
REMARK                            x       y       z     vdW  Elec       q    Type
REMARK                         _______ _______ _______ _____ _____    ______ ____
ROOT
ATOM      1  C   LIG    1        2.385   3.890   0.605  0.00  0.00    +0.520 C 
ATOM      2  O   LIG    1        3.292   3.228   1.066  0.00  0.00    -0.480 OA
ENDROOT
BRANCH   1   3
ATOM      3  C   LIG    1        2.423   5.364   0.699  0.00  0.00    -0.060 A 
ATOM      4  C   LIG    1        3.015   6.131  -0.306  0.00  0.00    -0.070 A 
ATOM      5  C   LIG    1        3.584   5.385  -1.488  0.00  0.00    +0.070 C 
ATOM      6  C   LIG    1        4.752   6.142  -2.118  0.00  0.00    +0.030 C 
ATOM      7  C   LIG    1        4.202   7.043  -3.224  0.00  0.00    +0.020 C 
ATOM      8  C   LIG    1        3.218   8.047  -2.631  0.00  0.00    +0.030 C 
ATOM      9  C   LIG    1        3.695   8.396  -1.219  0.00  0.00    +0.110 C 
ATOM     10  C   LIG    1        3.036   7.511  -0.191  0.00  0.00    +0.170 A 
ATOM     11  N   LIG    1        2.485   8.116   0.846  0.00  0.00    -0.460 NA
ATOM     12  C   LIG    1        1.908   7.451   1.844  0.00  0.00    +0.140 A 
ATOM     13  C   LIG    1        1.341   8.127   2.940  0.00  0.00    +0.060 A 
ATOM     14  C   LIG    1        0.766   7.416   3.948  0.00  0.00    +0.040 A 
ATOM     15  C   LIG    1        0.727   6.024   3.914  0.00  0.00    +0.030 A 
ATOM     16  C   LIG    1        1.264   5.335   2.868  0.00  0.00    +0.010 A 
ATOM     17  C   LIG    1        1.856   6.035   1.809  0.00  0.00    -0.070 A 
ENDBRANCH   1   3
BRANCH   1  18
ATOM     18  O   LIG    1        1.343   3.281   0.006  0.00  0.00    -0.320 OA
BRANCH  18  19
ATOM     19  C   LIG    1        1.371   1.830  -0.051  0.00  0.00    +0.190 C 
ATOM     20  C   LIG    1        2.071   1.384  -1.336  0.00  0.00    +0.080 C 
BRANCH  19  22
ATOM     21  N   LIG    1       -0.270   0.010   0.284  0.00  0.00    -0.550 N 
ATOM     22  C   LIG    1       -0.039   1.299  -0.036  0.00  0.00    +0.520 C 
ATOM     23  O   LIG    1       -0.965   2.030  -0.318  0.00  0.00    -0.480 OA
BRANCH  21  24
ATOM     24  C   LIG    1       -1.584  -0.452   0.420  0.00  0.00    +0.150 A 
ATOM     25  C   LIG    1       -1.831  -1.809   0.575  0.00  0.00    -0.030 A 
ATOM     26  C   LIG    1       -3.129  -2.262   0.714  0.00  0.00    +0.030 A 
ATOM     27  C   LIG    1       -4.182  -1.365   0.688  0.00  0.00    -0.020 A 
ATOM     28  C   LIG    1       -3.939  -0.013   0.528  0.00  0.00    +0.030 A 
ATOM     29  C   LIG    1       -2.643   0.446   0.394  0.00  0.00    +0.010 A 
ENDBRANCH  21  24
BRANCH  21  31
ATOM     30  C   LIG    1        1.173  -0.996   1.983  0.00  0.00    +0.030 C 
ATOM     31  C   LIG    1        0.854  -0.907   0.489  0.00  0.00    +0.280 C 
ENDBRANCH  21  31
ENDBRANCH  19  22
ENDBRANCH  18  19
ENDBRANCH   1  18
TORSDOF 6
