REMARK  Name = ZINCpk00000e9PHx.0
REMARK                            x       y       z     vdW  Elec       q    Type
REMARK                         _______ _______ _______ _____ _____    ______ ____
ROOT
ATOM      1  C   LIG    1       -1.007   2.592   0.050  0.00  0.00    +0.230 C 
ATOM      2  C   LIG    1       -1.823   2.308  -1.215  0.00  0.00    +0.320 C 
ATOM      3  N   LIG    1       -3.074   3.079  -1.147  0.00  0.00    -0.590 N 
ATOM      4  C   LIG    1       -3.892   2.971   0.070  0.00  0.00    +0.300 C 
ATOM      5  C   LIG    1       -2.995   3.229   1.285  0.00  0.00    +0.180 C 
ATOM      6  C   LIG    1       -3.459   3.864  -2.173  0.00  0.00    +0.580 C 
ATOM      7  O   LIG    1       -2.710   4.048  -3.112  0.00  0.00    -0.520 OA
ATOM      8  N   LIG    1       -1.836   2.327   1.234  0.00  0.00    -0.520 NA
ATOM      9  C   LIG    1       -1.041   2.421   2.465  0.00  0.00    +0.200 C 
ENDROOT
BRANCH   6  10
ATOM     10  C   LIG    1       -4.797   4.502  -2.155  0.00  0.00    +0.060 A 
ATOM     11  N   LIG    1       -5.670   4.170  -1.220  0.00  0.00    -0.380 NA
ATOM     12  C   LIG    1       -6.873   4.745  -1.206  0.00  0.00    +0.070 A 
ATOM     13  C   LIG    1       -7.824   4.413  -0.223  0.00  0.00    +0.070 A 
ATOM     14  C   LIG    1       -9.043   5.016  -0.233  0.00  0.00    +0.040 A 
ATOM     15  C   LIG    1       -9.367   5.963  -1.204  0.00  0.00    +0.060 A 
ATOM     16  C   LIG    1       -8.474   6.310  -2.171  0.00  0.00    +0.050 A 
ATOM     17  C   LIG    1       -7.204   5.709  -2.195  0.00  0.00    +0.100 A 
ATOM     18  N   LIG    1       -6.306   6.032  -3.133  0.00  0.00    -0.420 NA
ATOM     19  C   LIG    1       -5.125   5.461  -3.130  0.00  0.00    +0.320 A 
ENDBRANCH   6  10
BRANCH   1  25
ATOM     20  C   LIG    1        1.914   3.434  -0.549  0.00  0.00    +0.330 C 
ATOM     21  N   LIG    1        1.474   2.084  -0.190  0.00  0.00    -0.460 N 
ATOM     22  C   LIG    1        2.269   0.978  -0.062  0.00  0.00    +0.130 A 
ATOM     23  C   LIG    1        1.462  -0.045   0.278  0.00  0.00    +0.140 A 
ATOM     24  N   LIG    1        0.207   0.424   0.356  0.00  0.00    -0.460 NA
ATOM     25  C   LIG    1        0.207   1.699   0.077  0.00  0.00    +0.200 A 
ENDBRANCH   1  25
TORSDOF 2
