REMARK  Name = ZINCkj000005m6rM.0
REMARK                            x       y       z     vdW  Elec       q    Type
REMARK                         _______ _______ _______ _____ _____    ______ ____
ROOT
ATOM      1  O   LIG    1       -1.361  -0.473   1.778  0.00  0.00    -0.510 OA
ATOM      2  C   LIG    1       -1.395   0.717   2.024  0.00  0.00    +0.560 C 
ATOM      3  N   LIG    1       -0.872   1.600   1.151  0.00  0.00    -0.590 N 
ATOM      4  C   LIG    1       -0.192   1.141  -0.030  0.00  0.00    +0.260 C 
ATOM      5  C   LIG    1        1.335   0.960   0.109  0.00  0.00    +0.230 C 
ATOM      6  O   LIG    1        1.915   2.052   0.866  0.00  0.00    -0.360 OA
ATOM      7  C   LIG    1        1.374   3.312   0.599  0.00  0.00    +0.240 C 
ATOM      8  C   LIG    1        0.355   3.579   1.704  0.00  0.00    +0.260 C 
ATOM      9  F   LIG    1        0.806   2.969   2.880  0.00  0.00    -0.190 F 
ATOM     10  F   LIG    1        0.278   4.959   1.918  0.00  0.00    -0.190 F 
ATOM     11  C   LIG    1       -0.990   3.074   1.399  0.00  0.00    +0.290 C 
ENDROOT
BRANCH   2  12
ATOM     12  C   LIG    1       -2.009   1.195   3.281  0.00  0.00    -0.080 A 
ATOM     13  C   LIG    1       -3.062   2.110   3.242  0.00  0.00    +0.070 A 
ATOM     14  C   LIG    1       -3.631   2.552   4.419  0.00  0.00    +0.060 A 
ATOM     15  C   LIG    1       -3.160   2.091   5.635  0.00  0.00    +0.100 A 
ATOM     16  C   LIG    1       -2.116   1.184   5.681  0.00  0.00    -0.130 A 
ATOM     17  C   LIG    1       -1.410   0.522   6.843  0.00  0.00    +0.350 C 
ATOM     18  N   LIG    1       -0.135   0.007   6.295  0.00  0.00    -0.510 N 
ATOM     19  H   LIG    1        0.126  -0.853   6.754  0.00  0.00    +0.450 HD
ATOM     20  H   LIG    1        0.595   0.697   6.390  0.00  0.00    +0.440 HD
ATOM     21  C   LIG    1       -0.436  -0.237   4.866  0.00  0.00    +0.340 C 
ATOM     22  C   LIG    1       -1.542   0.729   4.510  0.00  0.00    -0.090 A 
ENDBRANCH   2  12
TORSDOF 1
