REMARK  Name = ZINCvU00000005RR.0
REMARK                            x       y       z     vdW  Elec       q    Type
REMARK                         _______ _______ _______ _____ _____    ______ ____
ROOT
ATOM      1  C   LIG    1       -0.013   1.086   0.008  0.00  0.00    +0.230 C 
ENDROOT
BRANCH   1   2
ATOM      2  C   LIG    1       -0.742   1.585  -1.213  0.00  0.00    -0.010 A 
ATOM      3  N   LIG    1       -0.512   2.709  -1.822  0.00  0.00    -0.240 NA
ATOM      4  N   LIG    1       -1.210   2.980  -2.839  0.00  0.00    -0.200 NA
ATOM      5  C   LIG    1       -2.113   2.095  -3.174  0.00  0.00    -0.060 A 
ATOM      6  S   LIG    1       -2.012   0.766  -2.018  0.00  0.00    +0.270 S 
BRANCH   5   7
ATOM      7  C   LIG    1       -3.045   2.191  -4.310  0.00  0.00    +0.600 C 
ATOM      8  N   LIG    1       -3.013   3.269  -5.119  0.00  0.00    -0.700 N 
ATOM      9  H   LIG    1       -2.377   3.982  -4.952  0.00  0.00    +0.410 HD
ATOM     10  O   LIG    1       -3.842   1.297  -4.519  0.00  0.00    -0.520 OA
BRANCH   8  11
ATOM     11  C   LIG    1       -3.940   3.364  -6.249  0.00  0.00    +0.330 C 
BRANCH  11  12
ATOM     12  C   LIG    1       -3.701   4.655  -6.988  0.00  0.00    -0.120 A 
ATOM     13  C   LIG    1       -4.394   5.796  -6.629  0.00  0.00    +0.030 A 
ATOM     14  C   LIG    1       -4.171   6.982  -7.303  0.00  0.00    +0.010 A 
ATOM     15  C   LIG    1       -3.262   7.024  -8.344  0.00  0.00    +0.010 A 
ATOM     16  C   LIG    1       -2.572   5.883  -8.706  0.00  0.00    +0.010 A 
ATOM     17  C   LIG    1       -2.791   4.698  -8.028  0.00  0.00    +0.030 A 
ENDBRANCH  11  12
ENDBRANCH   8  11
ENDBRANCH   5   7
ENDBRANCH   1   2
BRANCH   1  18
ATOM     18  S   LIG    1       -0.860   1.669   1.497  0.00  0.00    +0.030 S 
BRANCH  18  23
ATOM     19  N   LIG    1        0.003   1.080   4.083  0.00  0.00    -0.400 N 
ATOM     20  C   LIG    1        1.026   0.377   4.682  0.00  0.00    +0.150 A 
ATOM     21  C   LIG    1        1.777  -0.140   3.694  0.00  0.00    +0.170 A 
ATOM     22  N   LIG    1        1.238   0.223   2.518  0.00  0.00    -0.480 NA
ATOM     23  C   LIG    1        0.174   0.961   2.735  0.00  0.00    +0.190 A 
BRANCH  19  29
ATOM     24  C   LIG    1       -2.340   1.371   4.606  0.00  0.00    -0.050 A 
ATOM     25  C   LIG    1       -3.344   2.062   5.254  0.00  0.00    +0.020 A 
ATOM     26  C   LIG    1       -3.038   3.171   6.022  0.00  0.00    +0.030 A 
ATOM     27  C   LIG    1       -1.726   3.587   6.148  0.00  0.00    +0.020 A 
ATOM     28  C   LIG    1       -0.716   2.896   5.507  0.00  0.00    +0.030 A 
ATOM     29  C   LIG    1       -1.020   1.783   4.735  0.00  0.00    +0.100 A 
BRANCH  24  31
ATOM     30  C   LIG    1       -3.355  -0.891   4.634  0.00  0.00    +0.030 C 
ATOM     31  C   LIG    1       -2.675   0.168   3.763  0.00  0.00    +0.010 C 
ATOM     32  C   LIG    1       -3.619   0.583   2.633  0.00  0.00    +0.040 C 
ENDBRANCH  24  31
ENDBRANCH  19  29
ENDBRANCH  18  23
ENDBRANCH   1  18
TORSDOF 8
