REMARK  Name = ZINCrH000004rp8i.0
REMARK                            x       y       z     vdW  Elec       q    Type
REMARK                         _______ _______ _______ _____ _____    ______ ____
ROOT
ATOM      1  N   LIG    1        4.758  -0.250  -0.262  0.00  0.00    -0.530 N 
ATOM      2  H   LIG    1        3.927  -0.740  -0.155  0.00  0.00    +0.420 HD
ATOM      3  C   LIG    1        5.922  -0.918  -0.386  0.00  0.00    +0.520 C 
ATOM      4  O   LIG    1        6.960  -0.306  -0.519  0.00  0.00    -0.500 OA
ENDROOT
BRANCH   1   8
ATOM      5  N   LIG    1        2.429   1.138  -0.015  0.00  0.00    -0.680 N 
ATOM      6  H   LIG    1        2.442   0.171   0.063  0.00  0.00    +0.400 HD
ATOM      7  C   LIG    1        3.583   1.818  -0.163  0.00  0.00    +0.710 C 
ATOM      8  N   LIG    1        4.747   1.150  -0.287  0.00  0.00    -0.520 N 
ATOM      9  H   LIG    1        5.578   1.640  -0.393  0.00  0.00    +0.450 HD
ATOM     10  O   LIG    1        3.573   3.034  -0.185  0.00  0.00    -0.550 OA
BRANCH   5  15
ATOM     11  C   LIG    1       -2.507   3.930   0.151  0.00  0.00    +0.090 C 
ATOM     12  C   LIG    1       -1.196   3.188   0.107  0.00  0.00    -0.100 A 
ATOM     13  C   LIG    1       -1.126   1.946  -0.497  0.00  0.00    +0.030 A 
ATOM     14  C   LIG    1        0.073   1.262  -0.534  0.00  0.00    -0.010 A 
ATOM     15  C   LIG    1        1.211   1.826   0.026  0.00  0.00    +0.150 A 
ATOM     16  C   LIG    1        1.138   3.076   0.628  0.00  0.00    +0.030 A 
ATOM     17  C   LIG    1       -0.065   3.753   0.667  0.00  0.00    +0.030 A 
ENDBRANCH   5  15
ENDBRANCH   1   8
BRANCH   3  18
ATOM     18  C   LIG    1        5.933  -2.424  -0.359  0.00  0.00    +0.190 C 
ATOM     19  C   LIG    1        5.180  -2.962  -1.577  0.00  0.00    +0.060 C 
BRANCH  18  20
ATOM     20  O   LIG    1        7.284  -2.891  -0.390  0.00  0.00    -0.280 OA
BRANCH  20  21
ATOM     21  C   LIG    1        7.519  -4.131   0.112  0.00  0.00    +0.130 A 
ATOM     22  C   LIG    1        8.774  -4.665   0.030  0.00  0.00    +0.000 A 
ATOM     23  C   LIG    1        9.019  -5.947   0.549  0.00  0.00    -0.010 A 
ATOM     24  C   LIG    1       10.297  -6.527   0.483  0.00  0.00    +0.020 A 
ATOM     25  C   LIG    1       10.499  -7.772   0.997  0.00  0.00    +0.030 A 
ATOM     26  C   LIG    1        9.455  -8.481   1.588  0.00  0.00    -0.010 A 
ATOM     27  C   LIG    1        8.204  -7.950   1.670  0.00  0.00    +0.030 A 
ATOM     28  C   LIG    1        7.958  -6.668   1.151  0.00  0.00    -0.080 A 
ATOM     29  C   LIG    1        6.679  -6.088   1.219  0.00  0.00    +0.070 A 
ATOM     30  C   LIG    1        6.475  -4.843   0.712  0.00  0.00    -0.070 A 
ENDBRANCH  20  21
ENDBRANCH  18  20
ENDBRANCH   3  18
TORSDOF 5
