REMARK  Name = ZINCtV000002AdAN.0
REMARK                            x       y       z     vdW  Elec       q    Type
REMARK                         _______ _______ _______ _____ _____    ______ ____
ROOT
ATOM      1  C   LIG    1        1.204   4.318   2.627  0.00  0.00    +0.560 C 
ATOM      2  N   LIG    1        1.177   3.138   1.976  0.00  0.00    -0.670 N 
ATOM      3  H   LIG    1        1.385   3.100   1.030  0.00  0.00    +0.410 HD
ATOM      4  O   LIG    1        1.038   4.352   3.831  0.00  0.00    -0.500 OA
ENDROOT
BRANCH   1   7
ATOM      5  C   LIG    1        1.679   7.960   1.845  0.00  0.00    +0.120 A 
ATOM      6  C   LIG    1        1.462   6.793   2.550  0.00  0.00    +0.020 A 
ATOM      7  C   LIG    1        1.434   5.568   1.877  0.00  0.00    -0.090 A 
ATOM      8  C   LIG    1        1.630   5.529   0.495  0.00  0.00    +0.040 A 
ATOM      9  C   LIG    1        1.841   6.699  -0.204  0.00  0.00    -0.030 A 
ATOM     10 CL   LIG    1        2.079   6.651  -1.923  0.00  0.00    -0.030 Cl
ATOM     11  C   LIG    1        1.869   7.916   0.465  0.00  0.00    +0.100 A 
BRANCH   5  13
ATOM     12  C   LIG    1        1.505   9.124   3.912  0.00  0.00    +0.250 C 
ATOM     13  O   LIG    1        1.707   9.153   2.498  0.00  0.00    -0.300 OA
ENDBRANCH   5  13
BRANCH  11  14
ATOM     14  O   LIG    1        2.082   9.066  -0.227  0.00  0.00    -0.310 OA
BRANCH  14  15
ATOM     15  C   LIG    1        3.438   9.488  -0.381  0.00  0.00    +0.190 C 
BRANCH  15  16
ATOM     16  C   LIG    1        3.479  10.791  -1.181  0.00  0.00    -0.010 C 
ATOM     17  C   LIG    1        2.972  10.534  -2.602  0.00  0.00    +0.020 C 
ATOM     18  C   LIG    1        4.917  11.310  -1.239  0.00  0.00    +0.040 C 
ENDBRANCH  15  16
ENDBRANCH  14  15
ENDBRANCH  11  14
ENDBRANCH   1   7
BRANCH   2  19
ATOM     19  C   LIG    1        0.848   1.966   2.666  0.00  0.00    +0.130 A 
ATOM     20  C   LIG    1       -0.264   1.224   2.288  0.00  0.00    -0.070 A 
ATOM     21  C   LIG    1       -0.583   0.065   2.967  0.00  0.00    +0.020 A 
ATOM     22  C   LIG    1        0.201  -0.354   4.027  0.00  0.00    +0.010 A 
ATOM     23  C   LIG    1        1.305   0.385   4.409  0.00  0.00    +0.010 A 
ATOM     24  C   LIG    1        1.629   1.545   3.734  0.00  0.00    -0.050 A 
BRANCH  20  25
ATOM     25  C   LIG    1       -1.118   1.681   1.133  0.00  0.00    +0.010 C 
ATOM     26  C   LIG    1       -2.548   1.920   1.619  0.00  0.00    +0.040 C 
ATOM     27  C   LIG    1       -1.122   0.604   0.045  0.00  0.00    +0.040 C 
ENDBRANCH  20  25
BRANCH  24  28
ATOM     28  C   LIG    1        2.833   2.350   4.152  0.00  0.00    +0.030 C 
ATOM     29  C   LIG    1        4.043   1.928   3.316  0.00  0.00    +0.030 C 
ATOM     30  C   LIG    1        3.124   2.101   5.633  0.00  0.00    +0.040 C 
ENDBRANCH  24  28
ENDBRANCH   2  19
TORSDOF 8
