REMARK  Name = ZINCrD00000F5LCc.0
REMARK                            x       y       z     vdW  Elec       q    Type
REMARK                         _______ _______ _______ _____ _____    ______ ____
ROOT
ATOM      1  N   LIG    1       -4.255   1.036   2.547  0.00  0.00    -0.540 N 
ATOM      2  C   LIG    1       -5.304   1.682   2.010  0.00  0.00    +0.540 C 
ATOM      3  C   LIG    1       -6.505   0.849   2.220  0.00  0.00    +0.070 C 
ATOM      4  C   LIG    1       -6.020  -0.345   2.950  0.00  0.00    -0.100 A 
ATOM      5  C   LIG    1       -6.650  -1.484   3.438  0.00  0.00    +0.110 A 
ATOM      6  C   LIG    1       -5.910  -2.448   4.094  0.00  0.00    +0.000 A 
ATOM      7  C   LIG    1       -4.546  -2.281   4.263  0.00  0.00    +0.080 A 
ATOM      8  C   LIG    1       -3.911  -1.153   3.781  0.00  0.00    -0.010 A 
ATOM      9  N   LIG    1       -7.734   1.112   1.848  0.00  0.00    -0.120 NA
ATOM     10  O   LIG    1       -5.270   2.761   1.448  0.00  0.00    -0.500 OA
ATOM     11  C   LIG    1       -4.639  -0.172   3.119  0.00  0.00    +0.160 A 
ENDROOT
BRANCH   9  12
ATOM     12  N   LIG    1       -8.019   2.299   1.160  0.00  0.00    -0.570 N 
ATOM     13  H   LIG    1       -7.307   2.926   0.960  0.00  0.00    +0.410 HD
ATOM     14  C   LIG    1       -9.283   2.569   0.777  0.00  0.00    +0.530 C 
ATOM     15  O   LIG    1      -10.173   1.785   1.028  0.00  0.00    -0.460 OA
BRANCH  14  16
ATOM     16  C   LIG    1       -9.589   3.846   0.038  0.00  0.00    +0.270 C 
BRANCH  16  17
ATOM     17  O   LIG    1      -10.986   3.902  -0.257  0.00  0.00    -0.280 OA
BRANCH  17  18
ATOM     18  C   LIG    1      -11.432   4.998  -0.926  0.00  0.00    +0.130 A 
ATOM     19  C   LIG    1      -10.544   6.000  -1.286  0.00  0.00    -0.060 A 
ATOM     20  C   LIG    1      -10.998   7.111  -1.971  0.00  0.00    +0.070 A 
ATOM     21  C   LIG    1      -12.340   7.229  -2.287  0.00  0.00    -0.070 A 
ATOM     22  C   LIG    1      -13.229   6.232  -1.924  0.00  0.00    +0.070 A 
ATOM     23 CL   LIG    1      -12.910   8.629  -3.142  0.00  0.00    -0.070 Cl
ATOM     24  C   LIG    1      -12.777   5.118  -1.244  0.00  0.00    +0.010 A 
ENDBRANCH  17  18
ENDBRANCH  16  17
ENDBRANCH  14  16
ENDBRANCH   9  12
BRANCH   1  25
ATOM     25  C   LIG    1       -2.880   1.543   2.537  0.00  0.00    +0.300 C 
BRANCH  25  26
ATOM     26  C   LIG    1       -2.164   1.050   1.278  0.00  0.00    +0.000 C 
BRANCH  26  28
ATOM     27  C   LIG    1       -0.013   1.086   0.008  0.00  0.00    +0.020 C 
ATOM     28  C   LIG    1       -0.729   1.579   1.267  0.00  0.00    +0.020 C 
ENDBRANCH  26  28
ENDBRANCH  25  26
ENDBRANCH   1  25
TORSDOF 7
