REMARK  Name = ZINCrH000004v2HK.0
REMARK                            x       y       z     vdW  Elec       q    Type
REMARK                         _______ _______ _______ _____ _____    ______ ____
ROOT
ATOM      1  O   LIG    1       -0.284   4.026   2.586  0.00  0.00    -0.480 OA
ATOM      2  C   LIG    1        0.717   3.949   1.906  0.00  0.00    +0.500 C 
ATOM      3  N   LIG    1        1.932   4.063   2.479  0.00  0.00    -0.670 N 
ATOM      4  H   LIG    1        2.733   3.937   1.946  0.00  0.00    +0.420 HD
ENDROOT
BRANCH   3   5
ATOM      5  C   LIG    1        2.037   4.363   3.844  0.00  0.00    +0.160 A 
ATOM      6  C   LIG    1        1.096   3.869   4.737  0.00  0.00    +0.050 A 
ATOM      7  C   LIG    1        1.209   4.165   6.085  0.00  0.00    +0.100 A 
ATOM      8  C   LIG    1        2.250   4.962   6.539  0.00  0.00    +0.070 A 
ATOM      9  O   LIG    1        2.346   5.252   7.869  0.00  0.00    -0.310 OA
ATOM     10  C   LIG    1        2.671   4.156   8.727  0.00  0.00    +0.230 C 
ATOM     11  C   LIG    1        1.421   3.376   9.102  0.00  0.00    -0.010 C 
ATOM     12  C   LIG    1        0.775   2.706   7.900  0.00  0.00    +0.230 C 
ATOM     13  C   LIG    1        3.187   5.458   5.647  0.00  0.00    +0.060 A 
ATOM     14  O   LIG    1        0.293   3.682   6.974  0.00  0.00    -0.310 OA
ATOM     15  C   LIG    1        3.080   5.159   4.301  0.00  0.00    -0.060 A 
ATOM     16 CL   LIG    1        4.252   5.779   3.180  0.00  0.00    -0.050 Cl
ENDBRANCH   3   5
BRANCH   2  17
ATOM     17  C   LIG    1        0.603   3.727   0.419  0.00  0.00    +0.180 C 
ATOM     18  C   LIG    1        1.201   2.357   0.017  0.00  0.00    +0.100 C 
ATOM     19  C   LIG    1       -0.015   1.450   0.031  0.00  0.00    +0.120 C 
ATOM     20  N   LIG    1       -1.072   2.191   0.034  0.00  0.00    -0.260 NA
ATOM     21  O   LIG    1       -0.775   3.573   0.025  0.00  0.00    -0.150 OA
BRANCH  19  22
ATOM     22  C   LIG    1        0.007  -0.026   0.035  0.00  0.00    -0.020 A 
ATOM     23  C   LIG    1       -1.189  -0.745   0.049  0.00  0.00    +0.050 A 
ATOM     24  C   LIG    1       -1.163  -2.125   0.051  0.00  0.00    +0.050 A 
ATOM     25  C   LIG    1        0.046  -2.797   0.040  0.00  0.00    +0.010 A 
ATOM     26  C   LIG    1        1.238  -2.090   0.027  0.00  0.00    +0.100 A 
ATOM     27  F   LIG    1        2.415  -2.754   0.017  0.00  0.00    -0.130 F 
ATOM     28  C   LIG    1        1.225  -0.709   0.018  0.00  0.00    +0.020 A 
ENDBRANCH  19  22
ENDBRANCH   2  17
TORSDOF 3
