REMARK  Name = ZINCrH000004mFry.0
REMARK                            x       y       z     vdW  Elec       q    Type
REMARK                         _______ _______ _______ _____ _____    ______ ____
ROOT
ATOM      1  C   LIG    1       -2.455   0.882  -0.002  0.00  0.00    -0.120 A 
ATOM      2  C   LIG    1       -2.433  -0.513  -0.020  0.00  0.00    +0.040 A 
ATOM      3  C   LIG    1       -3.617  -1.222  -0.010  0.00  0.00    +0.030 A 
ATOM      4  C   LIG    1       -4.828  -0.555   0.008  0.00  0.00    -0.080 A 
ATOM      5  C   LIG    1       -4.860   0.835   0.021  0.00  0.00    +0.130 A 
ATOM      6  C   LIG    1       -6.116  -1.337   0.014  0.00  0.00    +0.110 C 
ATOM      7  C   LIG    1       -3.677   1.556   0.015  0.00  0.00    +0.100 A 
ENDROOT
BRANCH   1  10
ATOM      8  N   LIG    1       -0.009   0.991  -0.026  0.00  0.00    -0.720 N 
ATOM      9  H   LIG    1        0.008   0.022  -0.034  0.00  0.00    +0.400 HD
ATOM     10  C   LIG    1       -1.188   1.644  -0.009  0.00  0.00    +0.560 C 
ATOM     11  O   LIG    1       -1.210   2.860   0.002  0.00  0.00    -0.530 OA
BRANCH   8  12
ATOM     12  C   LIG    1        1.246   1.746  -0.038  0.00  0.00    +0.330 C 
BRANCH  12  16
ATOM     13  C   LIG    1        4.543  -0.972  -0.109  0.00  0.00    +0.140 A 
ATOM     14  C   LIG    1        3.989  -0.520  -1.298  0.00  0.00    -0.020 A 
ATOM     15  C   LIG    1        2.923   0.358  -1.273  0.00  0.00    +0.070 A 
ATOM     16  C   LIG    1        2.409   0.788  -0.063  0.00  0.00    -0.150 A 
ATOM     17  C   LIG    1        2.962   0.343   1.123  0.00  0.00    +0.070 A 
ATOM     18  C   LIG    1        4.024  -0.540   1.103  0.00  0.00    -0.080 A 
BRANCH  13  20
ATOM     19  C   LIG    1        6.111  -2.259   1.130  0.00  0.00    +0.250 C 
ATOM     20  O   LIG    1        5.592  -1.836  -0.132  0.00  0.00    -0.320 OA
ENDBRANCH  13  20
ENDBRANCH  12  16
ENDBRANCH   8  12
ENDBRANCH   1  10
BRANCH   5  21
ATOM     21  N   LIG    1       -6.088   1.505   0.039  0.00  0.00    -0.660 N 
ATOM     22  H   LIG    1       -6.849   1.136  -0.436  0.00  0.00    +0.420 HD
ATOM     23  C   LIG    1       -6.213   2.664   0.716  0.00  0.00    +0.600 C 
ATOM     24  O   LIG    1       -5.239   3.169   1.243  0.00  0.00    -0.490 OA
BRANCH  23  25
ATOM     25  C   LIG    1       -7.522   3.316   0.819  0.00  0.00    -0.090 A 
ATOM     26  C   LIG    1       -7.787   4.486   1.471  0.00  0.00    +0.050 A 
ATOM     27  C   LIG    1       -9.160   4.733   1.313  0.00  0.00    -0.060 A 
ATOM     28  C   LIG    1       -9.666   3.717   0.581  0.00  0.00    +0.210 A 
ATOM     29  O   LIG    1       -8.675   2.868   0.280  0.00  0.00    -0.170 OA
ENDBRANCH  23  25
ENDBRANCH   5  21
TORSDOF 6
