REMARK  Name = ZINCrD000000Cozu.0
REMARK                            x       y       z     vdW  Elec       q    Type
REMARK                         _______ _______ _______ _____ _____    ______ ____
ROOT
ATOM      1  C   LIG    1        0.130   0.994   4.882  0.00  0.00    -0.140 A 
ATOM      2  C   LIG    1        1.276   0.199   4.815  0.00  0.00    +0.160 A 
ATOM      3  C   LIG    1        1.892  -0.217   5.977  0.00  0.00    +0.020 A 
ATOM      4  C   LIG    1        1.370   0.143   7.208  0.00  0.00    +0.080 A 
ATOM      5  C   LIG    1        0.230   0.927   7.281  0.00  0.00    -0.690 A 
ATOM      6 CL   LIG    1        2.147  -0.391   8.666  0.00  0.00    -0.020 Cl
ATOM      7  C   LIG    1       -0.392   1.354   6.127  0.00  0.00    +0.220 A 
ENDROOT
BRANCH   5   8
ATOM      8  S   LIG    1       -0.426   1.380   8.852  0.00  0.00    +2.710 S 
ATOM      9  O   LIG    1       -1.597   2.142   8.594  0.00  0.00    -0.940 OA
ATOM     10  O   LIG    1        0.666   1.869   9.618  0.00  0.00    -0.930 OA
BRANCH   8  11
ATOM     11  N   LIG    1       -0.930  -0.013   9.593  0.00  0.00    -1.010 NA
ATOM     12  C   LIG    1       -2.274  -0.600   9.492  0.00  0.00    +0.270 C 
ATOM     13  C   LIG    1       -2.285  -1.873  10.364  0.00  0.00    +0.030 C 
ATOM     14  C   LIG    1       -1.124  -1.619  11.362  0.00  0.00    +0.040 C 
ATOM     15  C   LIG    1       -0.106  -0.867  10.469  0.00  0.00    +0.270 C 
ENDBRANCH   8  11
ENDBRANCH   5   8
BRANCH   1  17
ATOM     16  O   LIG    1       -1.532   2.134   3.704  0.00  0.00    -0.490 OA
ATOM     17  C   LIG    1       -0.532   1.447   3.642  0.00  0.00    +0.510 C 
BRANCH  17  18
ATOM     18  O   LIG    1       -0.027   1.098   2.443  0.00  0.00    -0.350 OA
BRANCH  18  19
ATOM     19  C   LIG    1       -0.729   1.579   1.267  0.00  0.00    +0.230 C 
BRANCH  19  20
ATOM     20  C   LIG    1       -0.013   1.086   0.008  0.00  0.00    +0.050 C 
BRANCH  20  21
ATOM     21  C   LIG    1       -0.753   1.593  -1.232  0.00  0.00    +0.090 C 
BRANCH  21  22
ATOM     22  C   LIG    1       -0.047   1.107  -2.471  0.00  0.00    -0.140 A 
ATOM     23  C   LIG    1        0.954   1.868  -3.053  0.00  0.00    +0.060 A 
ATOM     24  C   LIG    1        1.580   1.379  -4.190  0.00  0.00    -0.030 A 
ATOM     25  C   LIG    1        1.178   0.162  -4.708  0.00  0.00    +0.260 A 
ATOM     26  N   LIG    1        0.218  -0.533  -4.131  0.00  0.00    -0.480 NA
ATOM     27  C   LIG    1       -0.395  -0.102  -3.046  0.00  0.00    +0.250 A 
ENDBRANCH  21  22
ENDBRANCH  20  21
ENDBRANCH  19  20
ENDBRANCH  18  19
ENDBRANCH  17  18
ENDBRANCH   1  17
TORSDOF 8
