REMARK  Name = ZINCpe00000RaKQK.0
REMARK                            x       y       z     vdW  Elec       q    Type
REMARK                         _______ _______ _______ _____ _____    ______ ____
ROOT
ATOM      1  C   LIG    1        2.438   0.413   1.274  0.00  0.00    +0.360 C 
ATOM      2  C   LIG    1        0.977   0.462   1.732  0.00  0.00    -0.330 C 
ATOM      3  S   LIG    1       -0.084   0.755   0.286  0.00  0.00    +2.420 S 
ATOM      4  C   LIG    1        0.634   2.284  -0.383  0.00  0.00    -0.340 C 
ATOM      5  C   LIG    1        2.128   2.061  -0.638  0.00  0.00    +0.320 C 
ATOM      6  O   LIG    1        0.123  -0.292  -0.651  0.00  0.00    -0.930 OA
ATOM      7  O   LIG    1       -1.402   1.033   0.739  0.00  0.00    -0.930 OA
ATOM      8  N   LIG    1        2.785   1.671   0.611  0.00  0.00    -0.640 N 
ATOM      9  C   LIG    1        3.717   2.478   1.155  0.00  0.00    +0.700 C 
ATOM     10  N   LIG    1        3.956   3.691   0.617  0.00  0.00    -0.750 N 
ATOM     11  H   LIG    1        3.406   4.014  -0.113  0.00  0.00    +0.390 HD
ATOM     12  O   LIG    1        4.343   2.112   2.131  0.00  0.00    -0.540 OA
ENDROOT
BRANCH   1  16
ATOM     13  C   LIG    1        5.923  -1.415   4.378  0.00  0.00    +0.350 C 
ATOM     14  N   LIG    1        4.851  -0.588   3.818  0.00  0.00    -0.380 N 
ATOM     15  C   LIG    1        4.269  -0.753   2.612  0.00  0.00    +0.230 A 
ATOM     16  C   LIG    1        3.332   0.213   2.471  0.00  0.00    -0.210 A 
ATOM     17  C   LIG    1        3.336   0.990   3.634  0.00  0.00    +0.290 A 
ATOM     18  N   LIG    1        4.246   0.510   4.442  0.00  0.00    -0.310 NA
ENDBRANCH   1  16
BRANCH  10  19
ATOM     19  C   LIG    1        5.047   4.520   1.135  0.00  0.00    +0.280 C 
BRANCH  19  20
ATOM     20  C   LIG    1        5.101   5.836   0.357  0.00  0.00    +0.040 C 
BRANCH  20  21
ATOM     21  C   LIG    1        6.240   6.702   0.898  0.00  0.00    +0.150 C 
ATOM     22  C   LIG    1        6.217   8.067   0.205  0.00  0.00    -0.010 C 
ATOM     23  C   LIG    1        7.396   8.906   0.709  0.00  0.00    +0.010 C 
ATOM     24  C   LIG    1        8.699   8.144   0.448  0.00  0.00    -0.020 C 
ATOM     25  C   LIG    1        8.626   6.776   1.132  0.00  0.00    +0.200 C 
ATOM     26  O   LIG    1        7.491   6.060   0.641  0.00  0.00    -0.380 OA
ENDBRANCH  20  21
ENDBRANCH  19  20
ENDBRANCH  10  19
TORSDOF 4
