REMARK  Name = ZINCqH0000051392.0
REMARK                            x       y       z     vdW  Elec       q    Type
REMARK                         _______ _______ _______ _____ _____    ______ ____
ROOT
ATOM      1  C   LIG    1       -0.025   1.456  -0.373  0.00  0.00    +0.510 C 
ATOM      2  O   LIG    1        1.013   2.066  -0.533  0.00  0.00    -0.490 OA
ENDROOT
BRANCH   1   7
ATOM      3  C   LIG    1        1.230  -2.071  -0.026  0.00  0.00    +0.160 A 
ATOM      4  C   LIG    1        0.038  -2.762   0.156  0.00  0.00    +0.020 A 
ATOM      5  C   LIG    1       -1.166  -2.082   0.167  0.00  0.00    +0.030 A 
ATOM      6  C   LIG    1       -1.192  -0.713   0.000  0.00  0.00    +0.060 A 
ATOM      7  C   LIG    1       -0.000  -0.010  -0.190  0.00  0.00    -0.100 A 
ATOM      8  C   LIG    1        1.215  -0.696  -0.200  0.00  0.00    +0.090 A 
BRANCH   3  13
ATOM      9  N   LIG    1        4.749  -2.802   0.342  0.00  0.00    -0.860 N 
ATOM     10  H   LIG    1        5.550  -2.381   0.691  0.00  0.00    +0.420 HD
ATOM     11  H   LIG    1        4.805  -3.672  -0.083  0.00  0.00    +0.400 HD
ATOM     12  C   LIG    1        3.559  -2.179   0.449  0.00  0.00    +0.700 C 
ATOM     13  N   LIG    1        2.446  -2.764  -0.036  0.00  0.00    -0.690 N 
ATOM     14  H   LIG    1        2.488  -3.666  -0.392  0.00  0.00    +0.410 HD
ATOM     15  O   LIG    1        3.490  -1.089   0.982  0.00  0.00    -0.570 OA
ENDBRANCH   3  13
ENDBRANCH   1   7
BRANCH   1  16
ATOM     16  O   LIG    1       -1.200   2.115  -0.368  0.00  0.00    -0.350 OA
BRANCH  16  17
ATOM     17  C   LIG    1       -1.149   3.554  -0.554  0.00  0.00    +0.350 C 
BRANCH  17  18
ATOM     18  C   LIG    1       -2.547   4.115  -0.520  0.00  0.00    +0.060 A 
ATOM     19  C   LIG    1       -3.620   3.337  -0.347  0.00  0.00    -0.030 A 
ATOM     20  S   LIG    1       -5.054   4.362  -0.365  0.00  0.00    +0.110 S 
ATOM     21  C   LIG    1       -4.034   5.775  -0.620  0.00  0.00    +0.120 A 
ATOM     22  N   LIG    1       -2.788   5.398  -0.665  0.00  0.00    -0.460 NA
BRANCH  21  23
ATOM     23  C   LIG    1       -4.514   7.167  -0.760  0.00  0.00    -0.040 A 
ATOM     24  C   LIG    1       -3.603   8.206  -0.954  0.00  0.00    +0.110 A 
ATOM     25  C   LIG    1       -4.057   9.501  -1.090  0.00  0.00    -0.010 A 
ATOM     26  C   LIG    1       -5.415   9.773  -1.023  0.00  0.00    +0.120 A 
ATOM     27  C   LIG    1       -6.323   8.745  -0.826  0.00  0.00    +0.000 A 
ATOM     28  F   LIG    1       -5.854  11.044  -1.151  0.00  0.00    -0.130 F 
ATOM     29  C   LIG    1       -5.880   7.446  -0.694  0.00  0.00    +0.070 A 
ENDBRANCH  21  23
ENDBRANCH  17  18
ENDBRANCH  16  17
ENDBRANCH   1  16
TORSDOF 6
