REMARK  Name = ZINCvU000000095D.0
REMARK                            x       y       z     vdW  Elec       q    Type
REMARK                         _______ _______ _______ _____ _____    ______ ____
ROOT
ATOM      1  C   LIG    1       -0.394   1.290  -0.431  0.00  0.00    +0.190 A 
ATOM      2  C   LIG    1        0.751   2.062  -0.632  0.00  0.00    +0.050 A 
ATOM      3  C   LIG    1        1.997   1.473  -0.568  0.00  0.00    +0.170 A 
ATOM      4  C   LIG    1        2.114   0.120  -0.305  0.00  0.00    -0.050 A 
ATOM      5  C   LIG    1        0.983  -0.652  -0.106  0.00  0.00    +0.230 A 
ATOM      6  C   LIG    1       -0.269  -0.076  -0.167  0.00  0.00    -0.640 A 
ENDROOT
BRANCH   4   7
ATOM      7  N   LIG    1        3.453  -0.505  -0.238  0.00  0.00    +0.020 N 
ATOM      8  O   LIG    1        4.451   0.172  -0.413  0.00  0.00    -0.140 OA
ATOM      9  O   LIG    1        3.559  -1.696  -0.007  0.00  0.00    -0.140 OA
ENDBRANCH   4   7
BRANCH   6  10
ATOM     10  S   LIG    1       -1.708  -1.061   0.088  0.00  0.00    +2.700 S 
ATOM     11  O   LIG    1       -1.249  -2.369   0.401  0.00  0.00    -0.920 OA
ATOM     12  O   LIG    1       -2.582  -0.783  -0.998  0.00  0.00    -0.910 OA
BRANCH  10  13
ATOM     13  N   LIG    1       -2.458  -0.490   1.449  0.00  0.00    -1.040 N 
ATOM     14  H   LIG    1       -3.320  -0.051   1.380  0.00  0.00    +0.430 HD
BRANCH  13  15
ATOM     15  C   LIG    1       -1.849  -0.641   2.698  0.00  0.00    +0.180 A 
ATOM     16  C   LIG    1       -0.469  -0.552   2.814  0.00  0.00    -0.040 A 
ATOM     17  C   LIG    1        0.130  -0.701   4.050  0.00  0.00    +0.070 A 
ATOM     18  C   LIG    1       -0.643  -0.940   5.171  0.00  0.00    +0.020 A 
ATOM     19  C   LIG    1       -2.019  -1.030   5.060  0.00  0.00    +0.060 A 
ATOM     20  C   LIG    1       -2.625  -0.875   3.828  0.00  0.00    -0.060 A 
ATOM     21 CL   LIG    1       -4.352  -0.980   3.689  0.00  0.00    -0.050 Cl
ENDBRANCH  13  15
ENDBRANCH  10  13
ENDBRANCH   6  10
BRANCH   1  23
ATOM     22  N   LIG    1       -1.740   3.094  -0.644  0.00  0.00    -0.160 NA
ATOM     23  N   LIG    1       -1.634   1.867  -0.499  0.00  0.00    -0.220 NA
BRANCH  22  25
ATOM     24  C   LIG    1       -3.882   3.264  -1.813  0.00  0.00    +0.070 C 
ATOM     25  C   LIG    1       -3.062   3.725  -0.606  0.00  0.00    +0.200 C 
BRANCH  25  26
ATOM     26  C   LIG    1       -2.905   5.223  -0.649  0.00  0.00    -0.050 A 
ATOM     27  C   LIG    1       -1.779   5.784  -1.222  0.00  0.00    +0.050 A 
ATOM     28  C   LIG    1       -1.634   7.159  -1.261  0.00  0.00    +0.030 A 
ATOM     29  C   LIG    1       -2.616   7.973  -0.728  0.00  0.00    +0.030 A 
ATOM     30  C   LIG    1       -3.743   7.413  -0.155  0.00  0.00    +0.050 A 
ATOM     31  C   LIG    1       -3.890   6.038  -0.120  0.00  0.00    -0.080 A 
ATOM     32 BR   LIG    1       -5.434   5.271   0.657  0.00  0.00    -0.040 Br
ENDBRANCH  25  26
ENDBRANCH  22  25
ENDBRANCH   1  23
TORSDOF 7
