REMARK  Name = ZINCrD00000bGMOp.0
REMARK                            x       y       z     vdW  Elec       q    Type
REMARK                         _______ _______ _______ _____ _____    ______ ____
ROOT
ATOM      1  C   LIG    1        0.792  -2.057  -0.981  0.00  0.00    +0.120 A 
ATOM      2  C   LIG    1        0.226  -2.815   0.034  0.00  0.00    +0.110 A 
ATOM      3  C   LIG    1        0.265  -4.195  -0.031  0.00  0.00    -0.180 A 
ATOM      4  C   LIG    1        0.876  -4.825  -1.100  0.00  0.00    +0.100 A 
ATOM      5  C   LIG    1        1.447  -4.077  -2.113  0.00  0.00    +0.020 A 
ATOM      6  C   LIG    1        1.408  -2.692  -2.059  0.00  0.00    +0.160 A 
ENDROOT
BRANCH   1   8
ATOM      7  C   LIG    1        0.833  -0.032   0.271  0.00  0.00    +0.520 C 
ATOM      8  N   LIG    1        0.749  -0.658  -0.920  0.00  0.00    -0.670 N 
ATOM      9  H   LIG    1        0.659  -0.139  -1.735  0.00  0.00    +0.410 HD
ATOM     10  O   LIG    1        0.865  -0.680   1.296  0.00  0.00    -0.510 OA
BRANCH   7  11
ATOM     11  C   LIG    1        0.886   1.473   0.329  0.00  0.00    +0.060 C 
BRANCH  11  12
ATOM     12  C   LIG    1        0.978   1.924   1.788  0.00  0.00    +0.130 C 
BRANCH  12  13
ATOM     13  C   LIG    1        1.032   3.452   1.847  0.00  0.00    +0.030 C 
ATOM     14  N   LIG    1        0.490   4.217   0.721  0.00  0.00    -0.120 NA
ATOM     15  N   LIG    1        1.728   4.171   0.777  0.00  0.00    -0.120 NA
BRANCH  13  16
ATOM     16  C   LIG    1        0.994   4.076   3.244  0.00  0.00    +0.120 C 
BRANCH  16  17
ATOM     17  C   LIG    1        1.056   5.600   3.123  0.00  0.00    +0.160 C 
BRANCH  17  19
ATOM     18  C   LIG    1        0.990   6.679   5.538  0.00  0.00    +0.030 C 
ATOM     19  C   LIG    1        1.019   6.200   4.466  0.00  0.00    -0.200 C 
ENDBRANCH  17  19
ENDBRANCH  16  17
ENDBRANCH  13  16
ENDBRANCH  12  13
ENDBRANCH  11  12
ENDBRANCH   7  11
ENDBRANCH   1   8
BRANCH   3  20
ATOM     20  C   LIG    1       -0.356  -5.017   1.070  0.00  0.00    +0.510 C 
ATOM     21  F   LIG    1       -1.721  -4.723   1.157  0.00  0.00    -0.180 F 
ATOM     22  F   LIG    1        0.266  -4.712   2.286  0.00  0.00    -0.170 F 
ATOM     23  F   LIG    1       -0.188  -6.377   0.788  0.00  0.00    -0.170 F 
ENDBRANCH   3  20
BRANCH   6  24
ATOM     24  N   LIG    1        1.986  -1.934  -3.083  0.00  0.00    -1.060 N 
ATOM     25  H   LIG    1        2.425  -1.093  -2.875  0.00  0.00    +0.430 HD
BRANCH  24  26
ATOM     26  S   LIG    1        1.922  -2.470  -4.648  0.00  0.00    +2.600 S 
ATOM     27  O   LIG    1        2.514  -3.762  -4.600  0.00  0.00    -0.940 OA
ATOM     28  O   LIG    1        2.514  -1.421  -5.402  0.00  0.00    -0.940 OA
ATOM     29  C   LIG    1        0.150  -2.595  -5.011  0.00  0.00    -0.270 C 
ENDBRANCH  24  26
ENDBRANCH   6  24
TORSDOF 10
