REMARK  Name = ZINCrH000004tLPD.0
REMARK                            x       y       z     vdW  Elec       q    Type
REMARK                         _______ _______ _______ _____ _____    ______ ____
ROOT
ATOM      1  O   LIG    1        1.797   1.923   2.516  0.00  0.00    -0.500 OA
ATOM      2  C   LIG    1        2.940   2.196   2.216  0.00  0.00    +0.510 C 
ATOM      3  N   LIG    1        3.779   2.697   3.143  0.00  0.00    -0.720 N 
ATOM      4  H   LIG    1        4.693   2.915   2.903  0.00  0.00    +0.410 HD
ENDROOT
BRANCH   3   5
ATOM      5  C   LIG    1        3.311   2.912   4.515  0.00  0.00    +0.320 C 
BRANCH   5   6
ATOM      6  C   LIG    1        4.434   3.475   5.347  0.00  0.00    +0.520 C 
ATOM      7  N   LIG    1        4.233   3.754   6.650  0.00  0.00    -0.670 N 
ATOM      8  H   LIG    1        3.349   3.655   7.036  0.00  0.00    +0.420 HD
ATOM      9  O   LIG    1        5.519   3.677   4.843  0.00  0.00    -0.510 OA
BRANCH   7  10
ATOM     10  C   LIG    1        5.300   4.188   7.445  0.00  0.00    +0.170 A 
ATOM     11  C   LIG    1        6.291   4.993   6.901  0.00  0.00    +0.030 A 
ATOM     12  C   LIG    1        7.343   5.420   7.688  0.00  0.00    +0.060 A 
ATOM     13  C   LIG    1        7.410   5.046   9.017  0.00  0.00    +0.010 A 
ATOM     14  C   LIG    1        6.424   4.244   9.564  0.00  0.00    +0.070 A 
ATOM     15  C   LIG    1        5.366   3.819   8.783  0.00  0.00    -0.120 A 
ATOM     16 BR   LIG    1        4.015   2.729   9.532  0.00  0.00    -0.040 Br
ENDBRANCH   7  10
ENDBRANCH   5   6
ENDBRANCH   3   5
BRANCH   2  17
ATOM     17  C   LIG    1        3.421   1.974   0.805  0.00  0.00    +0.240 C 
BRANCH  17  18
ATOM     18  N   LIG    1        2.332   1.428  -0.002  0.00  0.00    -0.520 N 
ATOM     19  C   LIG    1        2.776   0.981  -1.287  0.00  0.00    +0.190 C 
ATOM     20  C   LIG    1        2.084  -0.220  -1.904  0.00  0.00    +0.030 C 
ATOM     21  C   LIG    1        0.688   0.172  -2.414  0.00  0.00    +0.000 C 
ATOM     22  C   LIG    1       -0.374  -0.409  -1.437  0.00  0.00    +0.000 C 
ATOM     23  C   LIG    1       -0.017   0.054  -0.018  0.00  0.00    +0.080 C 
ATOM     24  C   LIG    1       -0.029   1.562  -0.002  0.00  0.00    -0.050 A 
ATOM     25  C   LIG    1       -1.205   2.274   0.022  0.00  0.00    +0.010 A 
ATOM     26  C   LIG    1       -1.169   3.659   0.020  0.00  0.00    -0.010 A 
ATOM     27  C   LIG    1        0.042   4.324  -0.003  0.00  0.00    +0.010 A 
ATOM     28  C   LIG    1        1.230   3.611  -0.023  0.00  0.00    -0.050 A 
ATOM     29  C   LIG    1        1.197   2.231  -0.007  0.00  0.00    +0.140 A 
ENDBRANCH  17  18
ENDBRANCH   2  17
TORSDOF 5
