REMARK  Name = ZINCtV00001bB3mm.0
REMARK                            x       y       z     vdW  Elec       q    Type
REMARK                         _______ _______ _______ _____ _____    ______ ____
ROOT
ATOM      1  N   LIG    1       -1.398   1.632  -0.005  0.00  0.00    -0.520 N 
ATOM      2  C   LIG    1       -0.528   2.721  -0.066  0.00  0.00    +0.140 A 
ATOM      3  C   LIG    1       -1.237   3.902  -0.069  0.00  0.00    -0.130 A 
ATOM      4  C   LIG    1       -2.702   3.534  -0.015  0.00  0.00    +0.010 C 
ATOM      5  C   LIG    1       -3.428   4.040  -1.263  0.00  0.00    +0.080 C 
ATOM      6  C   LIG    1       -3.351   4.103   1.248  0.00  0.00    +0.080 C 
ATOM      7  C   LIG    1       -0.569   5.132  -0.120  0.00  0.00    +0.000 A 
ATOM      8  C   LIG    1       -1.272   6.348  -0.131  0.00  0.00    +0.020 A 
ATOM      9  C   LIG    1       -0.587   7.523  -0.181  0.00  0.00    +0.020 A 
ATOM     10  C   LIG    1        0.806   7.540  -0.223  0.00  0.00    +0.000 A 
ATOM     11  C   LIG    1        1.521   6.381  -0.215  0.00  0.00    +0.030 A 
ATOM     12  C   LIG    1        0.849   5.149  -0.163  0.00  0.00    -0.070 A 
ATOM     13  C   LIG    1        1.552   3.932  -0.153  0.00  0.00    +0.070 A 
ATOM     14  C   LIG    1        0.878   2.756  -0.103  0.00  0.00    +0.000 A 
ATOM     15  C   LIG    1       -2.700   2.021   0.024  0.00  0.00    +0.270 C 
ATOM     16  C   LIG    1       -3.786   1.211   0.079  0.00  0.00    -0.230 C 
ENDROOT
BRANCH   1  18
ATOM     17  C   LIG    1       -0.850  -0.290  -1.415  0.00  0.00    +0.030 C 
ATOM     18  C   LIG    1       -0.960   0.234   0.018  0.00  0.00    +0.280 C 
ENDBRANCH   1  18
BRANCH  16  19
ATOM     19  C   LIG    1       -5.075   1.762   0.031  0.00  0.00    +0.400 C 
ATOM     20  O   LIG    1       -5.220   2.969   0.045  0.00  0.00    -0.450 OA
BRANCH  19  21
ATOM     21  C   LIG    1       -6.279   0.859  -0.036  0.00  0.00    +0.200 C 
BRANCH  21  22
ATOM     22  O   LIG    1       -7.467   1.651  -0.075  0.00  0.00    -0.290 OA
BRANCH  22  23
ATOM     23  C   LIG    1       -8.651   0.986  -0.138  0.00  0.00    +0.140 A 
ATOM     24  C   LIG    1       -8.667  -0.401  -0.168  0.00  0.00    -0.060 A 
ATOM     25  C   LIG    1       -9.871  -1.076  -0.227  0.00  0.00    +0.070 A 
ATOM     26  C   LIG    1      -11.060  -0.369  -0.267  0.00  0.00    -0.080 A 
ATOM     27  C   LIG    1      -11.046   1.014  -0.243  0.00  0.00    +0.070 A 
ATOM     28 CL   LIG    1      -12.571  -1.219  -0.348  0.00  0.00    -0.070 Cl
ATOM     29  C   LIG    1       -9.844   1.692  -0.179  0.00  0.00    +0.000 A 
ENDBRANCH  22  23
ENDBRANCH  21  22
ENDBRANCH  19  21
ENDBRANCH  16  19
TORSDOF 5
