REMARK  Name = ZINCpk00000y6z3U.0
REMARK                            x       y       z     vdW  Elec       q    Type
REMARK                         _______ _______ _______ _____ _____    ______ ____
ROOT
ATOM      1  C   LIG    1        0.701   1.226   3.704  0.00  0.00    +0.160 C 
ATOM      2  C   LIG    1        0.860   0.783   2.247  0.00  0.00    +0.160 C 
ATOM      3  N   LIG    1       -0.166   1.441   1.425  0.00  0.00    -0.510 NA
ATOM      4  C   LIG    1       -1.514   1.108   1.909  0.00  0.00    +0.170 C 
ATOM      5  C   LIG    1       -1.649   1.548   3.369  0.00  0.00    +0.230 C 
ATOM      6  O   LIG    1       -0.624   0.923   4.147  0.00  0.00    -0.380 OA
ENDROOT
BRANCH   3   7
ATOM      7  C   LIG    1       -0.013   1.086   0.008  0.00  0.00    +0.170 C 
ATOM      8  C   LIG    1       -1.214   1.609  -0.781  0.00  0.00    +0.070 C 
BRANCH   7   9
ATOM      9  C   LIG    1        0.064  -0.413  -0.129  0.00  0.00    +0.490 C 
ATOM     10  N   LIG    1        0.763  -0.962  -1.142  0.00  0.00    -0.720 N 
ATOM     11  H   LIG    1        1.217  -0.393  -1.783  0.00  0.00    +0.400 HD
ATOM     12  O   LIG    1       -0.502  -1.125   0.673  0.00  0.00    -0.530 OA
BRANCH  10  13
ATOM     13  C   LIG    1        0.838  -2.419  -1.275  0.00  0.00    +0.230 C 
ATOM     14  C   LIG    1        1.972  -2.954  -0.398  0.00  0.00    -0.010 C 
ATOM     15  C   LIG    1        2.050  -4.475  -0.536  0.00  0.00    +0.010 C 
ATOM     16  C   LIG    1        2.320  -4.841  -1.997  0.00  0.00    +0.010 C 
ATOM     17  C   LIG    1        1.186  -4.306  -2.875  0.00  0.00    +0.020 C 
ATOM     18  C   LIG    1        1.108  -2.785  -2.736  0.00  0.00    +0.010 C 
ENDBRANCH  10  13
ENDBRANCH   7   9
ENDBRANCH   3   7
BRANCH   1  19
ATOM     19  C   LIG    1        1.714   0.484   4.577  0.00  0.00    +0.360 C 
BRANCH  19  23
ATOM     20  C   LIG    1        2.544   3.197   8.714  0.00  0.00    +0.190 C 
ATOM     21  C   LIG    1        2.013   2.179   7.738  0.00  0.00    +0.220 A 
ATOM     22  N   LIG    1        2.386   2.056   6.491  0.00  0.00    -0.330 NA
ATOM     23  N   LIG    1        1.643   0.994   5.949  0.00  0.00    -0.380 N 
ATOM     24  C   LIG    1        0.859   0.536   6.939  0.00  0.00    +0.300 A 
ATOM     25  C   LIG    1       -0.117  -0.609   6.838  0.00  0.00    +0.190 C 
ATOM     26  N   LIG    1        1.091   1.256   8.007  0.00  0.00    -0.550 NA
ENDBRANCH  19  23
ENDBRANCH   1  19
TORSDOF 5
