REMARK  Name = ZINCpk000000oeAU.0
REMARK                            x       y       z     vdW  Elec       q    Type
REMARK                         _______ _______ _______ _____ _____    ______ ____
ROOT
ATOM      1  C   LIG    1       -1.643  -1.127   1.914  0.00  0.00    -0.690 A 
ATOM      2  C   LIG    1       -2.254  -0.304   2.842  0.00  0.00    +0.150 A 
ATOM      3  C   LIG    1       -3.570  -0.522   3.201  0.00  0.00    +0.010 A 
ATOM      4  C   LIG    1       -4.276  -1.576   2.636  0.00  0.00    +0.200 A 
ATOM      5  C   LIG    1       -3.658  -2.404   1.709  0.00  0.00    -0.020 A 
ATOM      6  C   LIG    1       -2.344  -2.177   1.350  0.00  0.00    +0.150 A 
ENDROOT
BRANCH   4   7
ATOM      7  N   LIG    1       -5.607  -1.803   3.001  0.00  0.00    -0.660 N 
ATOM      8  H   LIG    1       -5.954  -2.708   3.033  0.00  0.00    +0.420 HD
ATOM      9  C   LIG    1       -6.408  -0.764   3.309  0.00  0.00    +0.590 C 
ATOM     10  O   LIG    1       -6.004   0.375   3.177  0.00  0.00    -0.490 OA
BRANCH   9  11
ATOM     11  C   LIG    1       -7.779  -1.008   3.806  0.00  0.00    +0.020 A 
ATOM     12  N   LIG    1       -8.215  -2.240   3.943  0.00  0.00    -0.170 NA
ATOM     13  N   LIG    1       -9.395  -2.505   4.376  0.00  0.00    -0.430 N 
ATOM     14  H   LIG    1       -9.668  -3.432   4.464  0.00  0.00    +0.450 HD
ATOM     15  C   LIG    1      -10.264  -1.532   4.707  0.00  0.00    +0.480 A 
ATOM     16  C   LIG    1       -9.875  -0.179   4.584  0.00  0.00    +0.000 A 
ATOM     17  O   LIG    1      -11.379  -1.816   5.112  0.00  0.00    -0.510 OA
ATOM     18  C   LIG    1       -8.618   0.085   4.128  0.00  0.00    +0.130 A 
ENDBRANCH   9  11
ENDBRANCH   4   7
BRANCH   1  19
ATOM     19  S   LIG    1        0.034  -0.841   1.455  0.00  0.00    +2.690 S 
ATOM     20  O   LIG    1        0.627  -0.125   2.529  0.00  0.00    -0.950 OA
ATOM     21  O   LIG    1        0.536  -2.082   0.978  0.00  0.00    -0.950 OA
BRANCH  19  22
ATOM     22  N   LIG    1        0.018   0.188   0.158  0.00  0.00    -1.000 NA
ATOM     23  C   LIG    1        0.058   1.636   0.372  0.00  0.00    +0.300 C 
BRANCH  22  24
ATOM     24  C   LIG    1       -0.035  -0.351  -1.204  0.00  0.00    +0.280 C 
BRANCH  24  25
ATOM     25  C   LIG    1        1.384  -0.454  -1.767  0.00  0.00    +0.000 C 
BRANCH  25  27
ATOM     26  C   LIG    1        2.747  -1.120  -3.752  0.00  0.00    +0.020 C 
ATOM     27  C   LIG    1        1.328  -1.017  -3.189  0.00  0.00    +0.010 C 
ENDBRANCH  25  27
ENDBRANCH  24  25
ENDBRANCH  22  24
ENDBRANCH  19  22
ENDBRANCH   1  19
TORSDOF 7
