REMARK  Name = ZINCpe000000WyQc.0
REMARK                            x       y       z     vdW  Elec       q    Type
REMARK                         _______ _______ _______ _____ _____    ______ ____
ROOT
ATOM      1  C   LIG    1       -1.530   5.972   4.577  0.00  0.00    +0.590 C 
ATOM      2  N   LIG    1       -1.116   4.694   4.683  0.00  0.00    -0.610 N 
ATOM      3  C   LIG    1       -1.167   3.996   5.975  0.00  0.00    +0.250 C 
ATOM      4  C   LIG    1       -1.940   2.686   5.798  0.00  0.00    +0.020 C 
ATOM      5  C   LIG    1       -1.305   1.871   4.668  0.00  0.00    +0.030 C 
ATOM      6  C   LIG    1       -1.386   2.661   3.360  0.00  0.00    -0.020 C 
ATOM      7  C   LIG    1       -0.606   3.971   3.510  0.00  0.00    +0.290 C 
ATOM      8  O   LIG    1       -1.477   6.541   3.502  0.00  0.00    -0.520 OA
ENDROOT
BRANCH   1  12
ATOM      9  C   LIG    1       -4.040   9.034   7.665  0.00  0.00    +0.190 A 
ATOM     10  C   LIG    1       -3.200   8.073   7.077  0.00  0.00    -0.140 A 
ATOM     11  C   LIG    1       -2.987   7.658   5.742  0.00  0.00    +0.080 A 
ATOM     12  C   LIG    1       -2.044   6.678   5.757  0.00  0.00    +0.000 A 
ATOM     13  N   LIG    1       -1.652   6.449   7.064  0.00  0.00    -0.580 N 
ATOM     14  H   LIG    1       -0.994   5.797   7.350  0.00  0.00    +0.420 HD
ATOM     15  C   LIG    1       -2.347   7.301   7.890  0.00  0.00    +0.150 A 
ATOM     16  C   LIG    1       -2.346   7.500   9.267  0.00  0.00    -0.060 A 
ATOM     17  C   LIG    1       -3.176   8.446   9.829  0.00  0.00    +0.090 A 
ATOM     18  C   LIG    1       -4.019   9.210   9.035  0.00  0.00    -0.120 A 
BRANCH   9  20
ATOM     19  C   LIG    1       -5.691  10.740   7.562  0.00  0.00    +0.250 C 
ATOM     20  O   LIG    1       -4.867   9.784   6.893  0.00  0.00    -0.310 OA
ENDBRANCH   9  20
ENDBRANCH   1  12
BRANCH   6  21
ATOM     21  C   LIG    1       -0.779   1.833   2.225  0.00  0.00    +0.280 C 
BRANCH  21  22
ATOM     22  N   LIG    1       -0.962   2.538   0.955  0.00  0.00    -1.120 NA
ATOM     23  H   LIG    1       -1.590   3.275   0.895  0.00  0.00    +0.420 HD
BRANCH  22  24
ATOM     24  S   LIG    1       -0.097   2.078  -0.380  0.00  0.00    +2.800 S 
ATOM     25  O   LIG    1       -0.520   2.921  -1.443  0.00  0.00    -0.980 OA
ATOM     26  O   LIG    1        1.257   1.973   0.036  0.00  0.00    -0.980 OA
BRANCH  24  27
ATOM     27  N   LIG    1       -0.585   0.545  -0.776  0.00  0.00    -1.260 NA
ATOM     28  H   LIG    1       -0.191   0.093  -1.538  0.00  0.00    +0.420 HD
ATOM     29  H   LIG    1       -1.264   0.100  -0.245  0.00  0.00    +0.410 HD
ENDBRANCH  24  27
ENDBRANCH  22  24
ENDBRANCH  21  22
ENDBRANCH   6  21
TORSDOF 6
