REMARK  Name = ZINCpe00000gNeRq.0
REMARK                            x       y       z     vdW  Elec       q    Type
REMARK                         _______ _______ _______ _____ _____    ______ ____
ROOT
ATOM      1  O   LIG    1        3.684   6.532  -0.461  0.00  0.00    -0.530 OA
ATOM      2  C   LIG    1        4.393   6.372   0.513  0.00  0.00    +0.560 C 
ATOM      3  N   LIG    1        5.132   5.251   0.632  0.00  0.00    -0.720 N 
ATOM      4  H   LIG    1        5.698   5.123   1.409  0.00  0.00    +0.400 HD
ENDROOT
BRANCH   2   5
ATOM      5  C   LIG    1        4.445   7.405   1.566  0.00  0.00    -0.130 A 
ATOM      6  C   LIG    1        5.259   7.222   2.687  0.00  0.00    +0.070 A 
ATOM      7  C   LIG    1        5.307   8.188   3.669  0.00  0.00    +0.040 A 
ATOM      8  C   LIG    1        4.543   9.341   3.552  0.00  0.00    +0.060 A 
ATOM      9  O   LIG    1        4.421  10.427   4.367  0.00  0.00    -0.300 OA
ATOM     10  C   LIG    1        3.841  11.461   3.550  0.00  0.00    +0.440 C 
ATOM     11  O   LIG    1        3.098  10.735   2.554  0.00  0.00    -0.300 OA
ATOM     12  C   LIG    1        3.732   9.532   2.432  0.00  0.00    +0.030 A 
ATOM     13  C   LIG    1        3.680   8.568   1.445  0.00  0.00    +0.110 A 
ENDBRANCH   2   5
BRANCH   3  14
ATOM     14  C   LIG    1        5.081   4.225  -0.413  0.00  0.00    +0.240 C 
BRANCH  14  15
ATOM     15  C   LIG    1        6.100   3.128  -0.102  0.00  0.00    +0.180 C 
BRANCH  15  16
ATOM     16  N   LIG    1        5.938   2.024  -1.057  0.00  0.00    -0.520 NA
ATOM     17  C   LIG    1        6.002   2.512  -2.442  0.00  0.00    +0.150 C 
ATOM     18  C   LIG    1        5.889   1.324  -3.402  0.00  0.00    +0.220 C 
ATOM     19  O   LIG    1        4.677   0.615  -3.133  0.00  0.00    -0.380 OA
ATOM     20  C   LIG    1        4.581   0.124  -1.793  0.00  0.00    +0.220 C 
ATOM     21  C   LIG    1        4.681   1.300  -0.817  0.00  0.00    +0.150 C 
ENDBRANCH  15  16
BRANCH  15  22
ATOM     22  C   LIG    1        7.515   3.699  -0.217  0.00  0.00    -0.020 C 
ATOM     23  C   LIG    1        7.826   4.651   0.970  0.00  0.00    +0.010 C 
ATOM     24  C   LIG    1        9.366   4.508   1.066  0.00  0.00    +0.200 C 
ATOM     25  O   LIG    1        9.635   3.131   0.760  0.00  0.00    -0.390 OA
ATOM     26  C   LIG    1        8.572   2.589  -0.033  0.00  0.00    +0.220 C 
ENDBRANCH  15  22
ENDBRANCH  14  15
ENDBRANCH   3  14
TORSDOF 5
