REMARK  Name = ZINCrg000000nIyw.0
REMARK                            x       y       z     vdW  Elec       q    Type
REMARK                         _______ _______ _______ _____ _____    ______ ____
ROOT
ATOM      1  C   LIG    1        1.147   1.655   0.000  0.00  0.00    +0.520 C 
ATOM      2  N   LIG    1       -0.011   0.966   0.007  0.00  0.00    -0.720 N 
ATOM      3  H   LIG    1        0.002  -0.004   0.002  0.00  0.00    +0.400 HD
ATOM      4  O   LIG    1        1.130   2.868   0.007  0.00  0.00    -0.540 OA
ENDROOT
BRANCH   1   9
ATOM      5  N   LIG    1        4.883   1.201   0.093  0.00  0.00    -1.000 NA
ATOM      6  C   LIG    1        5.057   0.257   1.205  0.00  0.00    +0.280 C 
ATOM      7  C   LIG    1        3.890  -0.735   1.197  0.00  0.00    +0.020 C 
ATOM      8  C   LIG    1        2.569   0.037   1.229  0.00  0.00    +0.030 C 
ATOM      9  C   LIG    1        2.462   0.920  -0.017  0.00  0.00    -0.010 C 
ATOM     10  C   LIG    1        3.613   1.931  -0.022  0.00  0.00    +0.320 C 
BRANCH   5  11
ATOM     11  S   LIG    1        6.096   1.439  -1.010  0.00  0.00    +2.600 S 
ATOM     12  O   LIG    1        5.421   1.862  -2.187  0.00  0.00    -0.950 OA
ATOM     13  O   LIG    1        6.834   0.225  -0.985  0.00  0.00    -0.950 OA
BRANCH  11  14
ATOM     14  C   LIG    1        7.079   2.796  -0.316  0.00  0.00    -0.370 C 
BRANCH  14  16
ATOM     15  C   LIG    1        9.074   4.258  -0.671  0.00  0.00    +0.030 C 
ATOM     16  C   LIG    1        8.244   3.113  -1.256  0.00  0.00    +0.040 C 
ENDBRANCH  14  16
ENDBRANCH  11  14
ENDBRANCH   5  11
ENDBRANCH   1   9
BRANCH   2  17
ATOM     17  C   LIG    1       -1.290   1.681   0.017  0.00  0.00    +0.230 C 
ATOM     18  C   LIG    1       -1.669   2.030   1.459  0.00  0.00    +0.030 C 
ATOM     19  C   LIG    1       -3.035   2.721   1.468  0.00  0.00    +0.220 C 
ATOM     20  N   LIG    1       -4.042   1.829   0.879  0.00  0.00    -0.460 N 
ATOM     21  C   LIG    1       -3.722   1.520  -0.521  0.00  0.00    +0.230 C 
ATOM     22  C   LIG    1       -2.378   0.791  -0.589  0.00  0.00    +0.030 C 
BRANCH  20  23
ATOM     23  C   LIG    1       -5.310   2.372   0.990  0.00  0.00    +0.490 A 
ATOM     24  N   LIG    1       -6.038   2.543  -0.104  0.00  0.00    -0.550 NA
ATOM     25  C   LIG    1       -7.257   3.053  -0.032  0.00  0.00    +0.340 A 
ATOM     26  C   LIG    1       -7.764   3.421   1.204  0.00  0.00    -0.110 A 
ATOM     27  C   LIG    1       -6.973   3.233   2.327  0.00  0.00    +0.350 A 
ATOM     28  N   LIG    1       -5.766   2.712   2.186  0.00  0.00    -0.530 NA
ENDBRANCH  20  23
ENDBRANCH   2  17
TORSDOF 6
