REMARK  Name = ZINCpe000000WawH.0
REMARK                            x       y       z     vdW  Elec       q    Type
REMARK                         _______ _______ _______ _____ _____    ______ ____
ROOT
ATOM      1  C   LIG    1        3.090   5.214  -3.481  0.00  0.00    +0.260 C 
ATOM      2  C   LIG    1        3.507   3.734  -3.645  0.00  0.00    +0.060 C 
ATOM      3  C   LIG    1        3.712   3.301  -2.175  0.00  0.00    +0.280 C 
ATOM      4  N   LIG    1        2.858   4.194  -1.383  0.00  0.00    -0.600 N 
ATOM      5  C   LIG    1        2.501   5.281  -2.089  0.00  0.00    +0.520 C 
ATOM      6  O   LIG    1        1.808   6.184  -1.671  0.00  0.00    -0.510 OA
ENDROOT
BRANCH   1  11
ATOM      7  C   LIG    1       -1.274   7.397  -6.345  0.00  0.00    +0.160 C 
ATOM      8  C   LIG    1        0.192   7.870  -6.170  0.00  0.00    +0.100 C 
ATOM      9  C   LIG    1        0.976   6.543  -6.220  0.00  0.00    +0.200 C 
ATOM     10  C   LIG    1        2.212   6.601  -5.355  0.00  0.00    +0.530 C 
ATOM     11  N   LIG    1        2.084   5.577  -4.482  0.00  0.00    -0.570 N 
ATOM     12  C   LIG    1        0.913   4.940  -4.645  0.00  0.00    +0.740 C 
ATOM     13  O   LIG    1        0.634   3.878  -4.123  0.00  0.00    -0.520 OA
ATOM     14  O   LIG    1        3.126   7.394  -5.429  0.00  0.00    -0.460 OA
ATOM     15  N   LIG    1        0.093   5.618  -5.454  0.00  0.00    -0.640 N 
ATOM     16  C   LIG    1       -1.267   5.915  -5.913  0.00  0.00    +0.320 C 
BRANCH   7  18
ATOM     17  C   LIG    1       -3.079   7.698  -7.893  0.00  0.00    +0.220 C 
ATOM     18  O   LIG    1       -1.674   7.514  -7.712  0.00  0.00    -0.370 OA
ENDBRANCH   7  18
ENDBRANCH   1  11
BRANCH   4  19
ATOM     19  C   LIG    1        2.451   3.937   0.000  0.00  0.00    +0.350 C 
BRANCH  19  20
ATOM     20  C   LIG    1        1.156   3.165   0.008  0.00  0.00    -0.110 A 
ATOM     21  C   LIG    1        1.175   1.783   0.000  0.00  0.00    +0.020 A 
ATOM     22  C   LIG    1       -0.013   1.076   0.008  0.00  0.00    +0.000 A 
ATOM     23  C   LIG    1       -1.219   1.751   0.017  0.00  0.00    +0.010 A 
ATOM     24  C   LIG    1       -1.238   3.133   0.029  0.00  0.00    +0.000 A 
ATOM     25  C   LIG    1       -0.050   3.840   0.022  0.00  0.00    +0.030 A 
ENDBRANCH  19  20
ENDBRANCH   4  19
TORSDOF 4
