REMARK  Name = ZINCqH0000008iid.0
REMARK                            x       y       z     vdW  Elec       q    Type
REMARK                         _______ _______ _______ _____ _____    ______ ____
ROOT
ATOM      1  C   LIG    1        0.009   7.798  -1.403  0.00  0.00    +0.030 C 
ATOM      2  C   LIG    1       -0.096   6.272  -1.408  0.00  0.00    +0.240 C 
ENDROOT
BRANCH   2   3
ATOM      3  N   LIG    1       -1.349   5.871  -2.053  0.00  0.00    -0.730 N 
ATOM      4  H   LIG    1       -2.136   5.692  -1.515  0.00  0.00    +0.400 HD
ATOM      5  C   LIG    1       -1.407   5.750  -3.394  0.00  0.00    +0.510 C 
ATOM      6  O   LIG    1       -0.423   5.973  -4.066  0.00  0.00    -0.540 OA
BRANCH   5   7
ATOM      7  C   LIG    1       -2.696   5.337  -4.058  0.00  0.00    +0.050 C 
BRANCH   7   8
ATOM      8  C   LIG    1       -2.492   5.276  -5.573  0.00  0.00    +0.130 C 
BRANCH   8   9
ATOM      9  C   LIG    1       -3.781   4.864  -6.237  0.00  0.00    -0.240 A 
ATOM     10  C   LIG    1       -4.164   3.595  -6.511  0.00  0.00    +0.230 A 
ATOM     11  N   LIG    1       -5.376   3.651  -7.102  0.00  0.00    -0.380 N 
ATOM     12  N   LIG    1       -5.745   4.998  -7.203  0.00  0.00    -0.300 NA
ATOM     13  C   LIG    1       -6.164   2.504  -7.563  0.00  0.00    +0.360 C 
ATOM     14  C   LIG    1       -4.788   5.724  -6.684  0.00  0.00    +0.230 A 
ENDBRANCH   8   9
ENDBRANCH   7   8
ENDBRANCH   5   7
ENDBRANCH   2   3
BRANCH   2  15
ATOM     15  C   LIG    1       -0.076   5.755   0.032  0.00  0.00    +0.080 C 
BRANCH  15  16
ATOM     16  C   LIG    1       -0.056   4.248   0.024  0.00  0.00    -0.080 A 
ATOM     17  C   LIG    1        1.153   3.575   0.010  0.00  0.00    +0.010 A 
ATOM     18  C   LIG    1        1.177   2.195   0.003  0.00  0.00    +0.020 A 
ATOM     19  C   LIG    1       -0.018   1.480   0.010  0.00  0.00    -0.050 A 
ATOM     20  C   LIG    1       -1.233   2.162   0.020  0.00  0.00    +0.010 A 
ATOM     21  C   LIG    1       -1.245   3.542   0.033  0.00  0.00    +0.010 A 
BRANCH  19  22
ATOM     22  C   LIG    1        0.002  -0.004   0.002  0.00  0.00    -0.050 A 
ATOM     23  C   LIG    1        1.217  -0.687  -0.019  0.00  0.00    +0.020 A 
ATOM     24  C   LIG    1        1.230  -2.067  -0.022  0.00  0.00    +0.000 A 
ATOM     25  C   LIG    1        0.040  -2.772  -0.014  0.00  0.00    +0.000 A 
ATOM     26  C   LIG    1       -1.169  -2.100   0.002  0.00  0.00    +0.000 A 
ATOM     27  C   LIG    1       -1.194  -0.720   0.010  0.00  0.00    +0.010 A 
ENDBRANCH  19  22
ENDBRANCH  15  16
ENDBRANCH   2  15
TORSDOF 7
