REMARK  Name = ZINCrg000009DEIi.0
REMARK                            x       y       z     vdW  Elec       q    Type
REMARK                         _______ _______ _______ _____ _____    ______ ____
ROOT
ATOM      1  C   LIG    1       -2.521   5.429  -3.727  0.00  0.00    +0.260 C 
ENDROOT
BRANCH   1   3
ATOM      2  C   LIG    1       -1.600   3.619  -2.380  0.00  0.00    +0.520 C 
ATOM      3  N   LIG    1       -1.838   4.938  -2.528  0.00  0.00    -0.720 N 
ATOM      4  H   LIG    1       -1.557   5.561  -1.840  0.00  0.00    +0.410 HD
ATOM      5  O   LIG    1       -1.951   2.840  -3.240  0.00  0.00    -0.520 OA
BRANCH   2  10
ATOM      6  C   LIG    1       -1.091   0.697   2.171  0.00  0.00    +0.550 C 
ATOM      7  N   LIG    1       -0.706   1.562   1.212  0.00  0.00    -0.610 N 
ATOM      8  C   LIG    1       -0.009   1.087   0.010  0.00  0.00    +0.280 C 
ATOM      9  C   LIG    1       -0.754   1.593  -1.229  0.00  0.00    +0.060 C 
ATOM     10  C   LIG    1       -0.897   3.114  -1.147  0.00  0.00    +0.010 C 
ATOM     11  C   LIG    1       -1.714   3.485   0.093  0.00  0.00    +0.030 C 
ATOM     12  C   LIG    1       -0.980   3.000   1.347  0.00  0.00    +0.280 C 
ATOM     13  O   LIG    1       -0.947  -0.499   2.004  0.00  0.00    -0.540 OA
BRANCH   6  15
ATOM     14  C   LIG    1       -1.973   0.353   4.406  0.00  0.00    +0.140 C 
ATOM     15  C   LIG    1       -1.685   1.198   3.420  0.00  0.00    -0.090 C 
ENDBRANCH   6  15
ENDBRANCH   2  10
ENDBRANCH   1   3
BRANCH   1  16
ATOM     16  C   LIG    1       -4.035   5.327  -3.530  0.00  0.00    +0.160 C 
ATOM     17  C   LIG    1       -4.420   3.867  -3.286  0.00  0.00    +0.070 C 
BRANCH  16  18
ATOM     18  O   LIG    1       -4.701   5.806  -4.700  0.00  0.00    -0.550 OA
ATOM     19  H   LIG    1       -4.503   6.728  -4.915  0.00  0.00    +0.380 HD
ENDBRANCH  16  18
ENDBRANCH   1  16
BRANCH   1  20
ATOM     20  C   LIG    1       -2.142   6.868  -3.968  0.00  0.00    +0.460 C 
ATOM     21  O   LIG    1       -1.379   7.425  -3.214  0.00  0.00    -0.490 OA
BRANCH  20  22
ATOM     22  O   LIG    1       -2.651   7.529  -5.019  0.00  0.00    -0.350 OA
BRANCH  22  23
ATOM     23  C   LIG    1       -2.241   8.912  -5.188  0.00  0.00    +0.270 C 
BRANCH  23  24
ATOM     24  C   LIG    1       -2.909   9.487  -6.411  0.00  0.00    -0.110 A 
ATOM     25  C   LIG    1       -2.288   9.400  -7.643  0.00  0.00    +0.030 A 
ATOM     26  C   LIG    1       -2.903   9.923  -8.765  0.00  0.00    +0.010 A 
ATOM     27  C   LIG    1       -4.134  10.543  -8.653  0.00  0.00    +0.030 A 
ATOM     28  C   LIG    1       -4.752  10.635  -7.420  0.00  0.00    +0.010 A 
ATOM     29  C   LIG    1       -4.140  10.107  -6.299  0.00  0.00    +0.040 A 
ENDBRANCH  23  24
ENDBRANCH  22  23
ENDBRANCH  20  22
ENDBRANCH   1  20
TORSDOF 9
