REMARK  Name = ZINCpk000000oRWn.0
REMARK                            x       y       z     vdW  Elec       q    Type
REMARK                         _______ _______ _______ _____ _____    ______ ____
ROOT
ATOM      1  N   LIG    1       -1.191   1.867   0.018  0.00  0.00    -0.720 N 
ATOM      2  H   LIG    1       -1.204   2.837   0.023  0.00  0.00    +0.410 HD
ATOM      3  C   LIG    1       -0.014   1.209   0.009  0.00  0.00    +0.520 C 
ATOM      4  O   LIG    1        0.002  -0.004   0.002  0.00  0.00    -0.510 OA
ENDROOT
BRANCH   3   5
ATOM      5  C   LIG    1        1.280   1.980   0.001  0.00  0.00    +0.030 C 
ATOM      6  C   LIG    1        1.317   2.908   1.231  0.00  0.00    -0.270 C 
ATOM      7  S   LIG    1        2.264   1.921   2.460  0.00  0.00    +2.390 S 
ATOM      8  C   LIG    1        3.372   1.166   1.202  0.00  0.00    -0.270 C 
ATOM      9  O   LIG    1        3.011   2.788   3.302  0.00  0.00    -0.920 OA
ATOM     10  O   LIG    1        1.425   0.922   3.024  0.00  0.00    -0.900 OA
ATOM     11  C   LIG    1        2.442   0.994  -0.016  0.00  0.00    +0.040 C 
BRANCH  11  12
ATOM     12  C   LIG    1        3.256   1.207  -1.294  0.00  0.00    +0.460 C 
ATOM     13  F   LIG    1        2.438   0.992  -2.409  0.00  0.00    -0.170 F 
ATOM     14  F   LIG    1        4.327   0.307  -1.321  0.00  0.00    -0.170 F 
ATOM     15  F   LIG    1        3.746   2.517  -1.322  0.00  0.00    -0.180 F 
ENDBRANCH  11  12
ENDBRANCH   3   5
BRANCH   1  16
ATOM     16  C   LIG    1       -2.449   1.117   0.020  0.00  0.00    +0.310 C 
BRANCH  16  17
ATOM     17  C   LIG    1       -3.626   2.095   0.031  0.00  0.00    -0.070 C 
ATOM     18  C   LIG    1       -3.592   2.948   1.316  0.00  0.00    +0.050 C 
ATOM     19  C   LIG    1       -5.084   3.112   1.701  0.00  0.00    +0.020 C 
ATOM     20  C   LIG    1       -5.684   1.729   1.347  0.00  0.00    +0.020 C 
ATOM     21  C   LIG    1       -4.955   1.321   0.050  0.00  0.00    +0.060 C 
BRANCH  17  22
ATOM     22  C   LIG    1       -3.566   2.987  -1.182  0.00  0.00    +0.470 C 
ATOM     23  O   LIG    1       -4.483   3.001  -1.968  0.00  0.00    -0.490 OA
BRANCH  22  24
ATOM     24  O   LIG    1       -2.493   3.767  -1.390  0.00  0.00    -0.360 OA
BRANCH  24  26
ATOM     25  C   LIG    1       -1.208   5.412  -2.645  0.00  0.00    +0.070 C 
ATOM     26  C   LIG    1       -2.503   4.601  -2.579  0.00  0.00    +0.200 C 
ENDBRANCH  24  26
ENDBRANCH  22  24
ENDBRANCH  17  22
ENDBRANCH  16  17
ENDBRANCH   1  16
TORSDOF 7
