REMARK  Name = ZINCpe000027pHo3.0
REMARK                            x       y       z     vdW  Elec       q    Type
REMARK                         _______ _______ _______ _____ _____    ______ ____
ROOT
ATOM      1  N   LIG    1        1.230   2.976  -0.033  0.00  0.00    -0.510 N 
ATOM      2  C   LIG    1        0.125   3.749  -0.012  0.00  0.00    +0.580 C 
ATOM      3  C   LIG    1       -1.190   3.083   0.023  0.00  0.00    -0.410 C 
ATOM      4  C   LIG    1       -1.196   1.609   0.027  0.00  0.00    +0.570 C 
ATOM      5  N   LIG    1       -0.010   0.967   0.009  0.00  0.00    -0.610 N 
ATOM      6  H   LIG    1        0.004  -0.003   0.015  0.00  0.00    +0.450 HD
ATOM      7  O   LIG    1       -2.242   0.989   0.049  0.00  0.00    -0.510 OA
ATOM      8  C   LIG    1       -2.366   3.809   0.045  0.00  0.00    +0.530 C 
ATOM      9  O   LIG    1        0.211   4.963  -0.022  0.00  0.00    -0.460 OA
ATOM     10  C   LIG    1        1.150   1.638  -0.022  0.00  0.00    +0.550 C 
ATOM     11  S   LIG    1        2.607   0.739  -0.050  0.00  0.00    -0.530 S 
ENDROOT
BRANCH   8  12
ATOM     12  N   LIG    1       -3.553   3.174  -0.049  0.00  0.00    -0.590 N 
ATOM     13  H   LIG    1       -3.586   2.205  -0.053  0.00  0.00    +0.440 HD
BRANCH  12  14
ATOM     14  C   LIG    1       -4.736   3.913  -0.139  0.00  0.00    +0.210 A 
ATOM     15  C   LIG    1       -4.690   5.301  -0.126  0.00  0.00    -0.090 A 
ATOM     16  C   LIG    1       -5.864   6.034  -0.221  0.00  0.00    +0.200 A 
ATOM     17  C   LIG    1       -7.083   5.381  -0.317  0.00  0.00    -0.170 A 
ATOM     18  C   LIG    1       -7.130   3.994  -0.324  0.00  0.00    +0.200 A 
ATOM     19  C   LIG    1       -5.957   3.260  -0.235  0.00  0.00    -0.070 A 
BRANCH  18  20
ATOM     20  O   LIG    1       -8.326   3.356  -0.418  0.00  0.00    -0.310 OA
ATOM     21  C   LIG    1       -9.494   4.174  -0.507  0.00  0.00    +0.250 C 
ENDBRANCH  18  20
BRANCH  16  22
ATOM     22  O   LIG    1       -5.819   7.392  -0.215  0.00  0.00    -0.310 OA
ATOM     23  C   LIG    1       -7.066   8.082  -0.311  0.00  0.00    +0.250 C 
ENDBRANCH  16  22
ENDBRANCH  12  14
ENDBRANCH   8  12
BRANCH   1  24
ATOM     24  C   LIG    1        2.549   3.614  -0.067  0.00  0.00    +0.350 C 
BRANCH  24  25
ATOM     25  C   LIG    1        2.975   3.826  -1.521  0.00  0.00    +0.180 C 
BRANCH  25  27
ATOM     26  C   LIG    1        2.400   5.027  -3.514  0.00  0.00    +0.200 C 
ATOM     27  O   LIG    1        2.088   4.757  -2.146  0.00  0.00    -0.380 OA
ENDBRANCH  25  27
ENDBRANCH  24  25
ENDBRANCH   1  24
TORSDOF 7
