REMARK  Name = ZINCrD0000075sd8.0
REMARK                            x       y       z     vdW  Elec       q    Type
REMARK                         _______ _______ _______ _____ _____    ______ ____
ROOT
ATOM      1  O   LIG    1       -5.086  -3.507  -0.014  0.00  0.00    -0.420 OA
ATOM      2  C   LIG    1       -4.611  -4.622  -0.011  0.00  0.00    +0.400 C 
ENDROOT
BRANCH   2   3
ATOM      3  C   LIG    1       -5.495  -5.799   0.006  0.00  0.00    -0.140 A 
ATOM      4  C   LIG    1       -4.950  -7.087   0.004  0.00  0.00    +0.040 A 
ATOM      5  C   LIG    1       -5.782  -8.187   0.026  0.00  0.00    +0.040 A 
ATOM      6  C   LIG    1       -7.154  -8.022   0.040  0.00  0.00    +0.010 A 
ATOM      7  C   LIG    1       -7.707  -6.747   0.036  0.00  0.00    +0.160 A 
ATOM      8  C   LIG    1       -6.883  -5.634   0.020  0.00  0.00    +0.070 A 
BRANCH   7   9
ATOM      9  N   LIG    1       -9.098  -6.587   0.050  0.00  0.00    -0.560 N 
ATOM     10  C   LIG    1      -10.059  -7.691  -0.059  0.00  0.00    +0.260 C 
ATOM     11  C   LIG    1      -11.405  -7.113   0.437  0.00  0.00    +0.060 C 
ATOM     12  C   LIG    1      -11.223  -5.605   0.149  0.00  0.00    +0.070 C 
ATOM     13  C   LIG    1       -9.724  -5.403   0.159  0.00  0.00    +0.510 C 
ATOM     14  O   LIG    1       -9.168  -4.329   0.252  0.00  0.00    -0.500 OA
ENDBRANCH   7   9
ENDBRANCH   2   3
BRANCH   2  15
ATOM     15  C   LIG    1       -3.115  -4.804  -0.026  0.00  0.00    +0.250 C 
BRANCH  15  16
ATOM     16  O   LIG    1       -2.470  -3.503  -0.042  0.00  0.00    -0.340 OA
BRANCH  16  17
ATOM     17  C   LIG    1       -1.121  -3.489  -0.056  0.00  0.00    +0.530 C 
ATOM     18  O   LIG    1       -0.502  -4.535  -0.056  0.00  0.00    -0.490 OA
BRANCH  17  19
ATOM     19  C   LIG    1       -0.401  -2.209  -0.073  0.00  0.00    +0.030 A 
ATOM     20  C   LIG    1        0.951  -2.066  -0.089  0.00  0.00    +0.070 A 
ATOM     21  C   LIG    1        1.238  -0.680  -0.102  0.00  0.00    -0.130 A 
ATOM     22  C   LIG    1        2.429   0.056  -0.120  0.00  0.00    +0.070 A 
ATOM     23  C   LIG    1        2.385   1.420  -0.129  0.00  0.00    -0.020 A 
ATOM     24  C   LIG    1        1.167   2.088  -0.121  0.00  0.00    +0.050 A 
ATOM     25  C   LIG    1       -0.018   1.388  -0.103  0.00  0.00    +0.000 A 
ATOM     26  C   LIG    1        0.001  -0.004  -0.093  0.00  0.00    +0.120 A 
ATOM     27  N   LIG    1       -0.988  -0.958  -0.075  0.00  0.00    -0.570 N 
ATOM     28  H   LIG    1       -1.942  -0.783  -0.066  0.00  0.00    +0.430 HD
ENDBRANCH  17  19
ENDBRANCH  16  17
ENDBRANCH  15  16
ENDBRANCH   2  15
TORSDOF 6
