REMARK  Name = ZINCqH0000003NJX.0
REMARK                            x       y       z     vdW  Elec       q    Type
REMARK                         _______ _______ _______ _____ _____    ______ ____
ROOT
ATOM      1  C   LIG    1       -0.013   1.086   0.008  0.00  0.00    +0.340 C 
ENDROOT
BRANCH   1   5
ATOM      2  C   LIG    1        3.996   2.565  -0.022  0.00  0.00    +0.140 A 
ATOM      3  C   LIG    1        3.739   1.264   0.384  0.00  0.00    -0.020 A 
ATOM      4  C   LIG    1        2.442   0.788   0.393  0.00  0.00    +0.070 A 
ATOM      5  C   LIG    1        1.401   1.607  -0.003  0.00  0.00    -0.130 A 
ATOM      6  C   LIG    1        1.656   2.903  -0.413  0.00  0.00    +0.050 A 
ATOM      7  C   LIG    1        2.950   3.385  -0.419  0.00  0.00    -0.070 A 
BRANCH   2   8
ATOM      8  O   LIG    1        5.271   3.035  -0.032  0.00  0.00    -0.310 OA
BRANCH   8  10
ATOM      9  C   LIG    1        6.951   4.733  -0.405  0.00  0.00    +0.070 C 
ATOM     10  C   LIG    1        5.462   4.385  -0.462  0.00  0.00    +0.170 C 
ENDBRANCH   8  10
ENDBRANCH   2   8
ENDBRANCH   1   5
BRANCH   1  11
ATOM     11  C   LIG    1       -0.718   1.572   1.248  0.00  0.00    -0.090 A 
ATOM     12  C   LIG    1       -1.223   2.858   1.297  0.00  0.00    +0.020 A 
ATOM     13  C   LIG    1       -1.874   3.302   2.432  0.00  0.00    +0.000 A 
ATOM     14  C   LIG    1       -2.012   2.463   3.523  0.00  0.00    +0.000 A 
ATOM     15  C   LIG    1       -1.502   1.179   3.476  0.00  0.00    +0.000 A 
ATOM     16  C   LIG    1       -0.855   0.734   2.339  0.00  0.00    +0.020 A 
ENDBRANCH   1  11
BRANCH   1  17
ATOM     17  N   LIG    1       -0.721   1.571  -1.179  0.00  0.00    -0.700 N 
ATOM     18  H   LIG    1       -0.433   2.388  -1.615  0.00  0.00    +0.410 HD
ATOM     19  C   LIG    1       -1.773   0.883  -1.664  0.00  0.00    +0.580 C 
ATOM     20  O   LIG    1       -2.134  -0.141  -1.117  0.00  0.00    -0.520 OA
BRANCH  19  21
ATOM     21  C   LIG    1       -2.490   1.373  -2.864  0.00  0.00    +0.020 A 
ATOM     22  C   LIG    1       -3.575   0.660  -3.371  0.00  0.00    +0.300 A 
ATOM     23  N   LIG    1       -4.215   1.105  -4.438  0.00  0.00    -0.440 NA
ATOM     24  C   LIG    1       -3.820   2.217  -5.031  0.00  0.00    +0.110 A 
ATOM     25  C   LIG    1       -2.736   2.927  -4.532  0.00  0.00    +0.230 A 
ATOM     26  C   LIG    1       -4.548   2.718  -6.252  0.00  0.00    +0.160 C 
ATOM     27  N   LIG    1       -2.096   2.493  -3.465  0.00  0.00    -0.410 NA
ENDBRANCH  19  21
ENDBRANCH   1  17
TORSDOF 6
