REMARK  Name = ZINCqH0000008V9u.0
REMARK                            x       y       z     vdW  Elec       q    Type
REMARK                         _______ _______ _______ _____ _____    ______ ____
ROOT
ATOM      1  S   LIG    1       -1.914   4.804  -0.563  0.00  0.00    +2.440 S 
ATOM      2  O   LIG    1       -2.812   5.566   0.232  0.00  0.00    -0.880 OA
ATOM      3  O   LIG    1       -2.397   3.658  -1.250  0.00  0.00    -0.920 OA
ENDROOT
BRANCH   1   5
ATOM      4  C   LIG    1       -0.372   7.015  -1.025  0.00  0.00    +0.120 C 
ATOM      5  C   LIG    1       -1.126   5.909  -1.766  0.00  0.00    -0.460 C 
BRANCH   5   6
ATOM      6  C   LIG    1       -2.181   6.525  -2.649  0.00  0.00    +0.540 C 
ATOM      7  N   LIG    1       -1.858   6.955  -3.885  0.00  0.00    -0.720 N 
ATOM      8  H   LIG    1       -0.947   6.868  -4.206  0.00  0.00    +0.400 HD
ATOM      9  O   LIG    1       -3.320   6.633  -2.248  0.00  0.00    -0.520 OA
BRANCH   7  10
ATOM     10  C   LIG    1       -2.883   7.553  -4.743  0.00  0.00    +0.260 C 
BRANCH  10  11
ATOM     11  C   LIG    1       -2.258   7.953  -6.081  0.00  0.00    -0.020 C 
ATOM     12  C   LIG    1       -1.226   9.059  -5.852  0.00  0.00    +0.010 C 
ATOM     13  C   LIG    1       -0.602   9.459  -7.190  0.00  0.00    +0.000 C 
ATOM     14  C   LIG    1       -1.695   9.968  -8.132  0.00  0.00    +0.000 C 
ATOM     15  C   LIG    1       -2.727   8.862  -8.361  0.00  0.00    +0.000 C 
ATOM     16  C   LIG    1       -3.352   8.462  -7.023  0.00  0.00    +0.030 C 
ENDBRANCH  10  11
ENDBRANCH   7  10
ENDBRANCH   5   6
ENDBRANCH   1   5
BRANCH   1  17
ATOM     17  C   LIG    1       -0.507   4.308   0.469  0.00  0.00    -0.290 C 
BRANCH  17  18
ATOM     18  C   LIG    1       -0.964   3.298   1.490  0.00  0.00    -0.040 A 
ATOM     19  C   LIG    1       -1.097   1.969   1.135  0.00  0.00    +0.040 A 
ATOM     20  C   LIG    1       -1.522   1.044   2.071  0.00  0.00    +0.060 A 
ATOM     21  C   LIG    1       -1.807   1.446   3.361  0.00  0.00    +0.030 A 
ATOM     22  C   LIG    1       -1.668   2.775   3.718  0.00  0.00    +0.080 A 
ATOM     23  C   LIG    1       -1.244   3.700   2.783  0.00  0.00    -0.170 A 
BRANCH  23  24
ATOM     24  C   LIG    1       -1.092   5.149   3.171  0.00  0.00    +0.490 C 
ATOM     25  F   LIG    1        0.232   5.550   2.967  0.00  0.00    -0.180 F 
ATOM     26  F   LIG    1       -1.944   5.933   2.386  0.00  0.00    -0.150 F 
ATOM     27  F   LIG    1       -1.425   5.307   4.521  0.00  0.00    -0.170 F 
ENDBRANCH  23  24
ENDBRANCH  17  18
ENDBRANCH   1  17
TORSDOF 7
