REMARK  Name = ZINCvU00000005tX.0
REMARK                            x       y       z     vdW  Elec       q    Type
REMARK                         _______ _______ _______ _____ _____    ______ ____
ROOT
ATOM      1  C   LIG    1        1.425  -0.827  -0.087  0.00  0.00    +0.120 A 
ATOM      2  C   LIG    1        0.319   0.019  -0.070  0.00  0.00    +0.040 A 
ATOM      3  C   LIG    1        0.479   1.385  -0.141  0.00  0.00    +0.060 A 
ATOM      4  C   LIG    1        1.752   1.933  -0.229  0.00  0.00    +0.050 A 
ATOM      5  O   LIG    1        2.209   3.202  -0.309  0.00  0.00    -0.190 OA
ATOM      6  C   LIG    1        3.550   3.227  -0.375  0.00  0.00    +0.040 A 
ATOM      7  C   LIG    1        4.028   1.972  -0.342  0.00  0.00    -0.180 A 
ATOM      8  C   LIG    1        5.487   1.604  -0.397  0.00  0.00    +0.110 C 
ATOM      9  C   LIG    1        6.277   2.821  -0.896  0.00  0.00    +0.000 C 
ATOM     10  C   LIG    1        5.860   4.057  -0.093  0.00  0.00    +0.040 C 
ATOM     11  C   LIG    1        4.428   4.453  -0.469  0.00  0.00    +0.140 C 
ATOM     12  C   LIG    1        2.872   1.083  -0.245  0.00  0.00    -0.100 A 
ATOM     13  C   LIG    1        2.701  -0.299  -0.174  0.00  0.00    +0.050 A 
ENDROOT
BRANCH   9  14
ATOM     14  C   LIG    1        7.774   2.571  -0.709  0.00  0.00    -0.060 C 
ATOM     15  C   LIG    1        8.560   3.788  -1.202  0.00  0.00    +0.030 C 
ATOM     16  C   LIG    1        8.189   1.336  -1.511  0.00  0.00    +0.030 C 
ATOM     17  C   LIG    1        8.072   2.340   0.774  0.00  0.00    +0.030 C 
ENDBRANCH   9  14
BRANCH   1  18
ATOM     18  N   LIG    1        1.246  -2.213  -0.015  0.00  0.00    -1.050 N 
ATOM     19  H   LIG    1        1.799  -2.743   0.580  0.00  0.00    +0.430 HD
BRANCH  18  20
ATOM     20  S   LIG    1        0.091  -2.948  -0.947  0.00  0.00    +2.700 S 
ATOM     21  O   LIG    1       -1.115  -2.229  -0.732  0.00  0.00    -0.940 OA
ATOM     22  O   LIG    1        0.216  -4.344  -0.713  0.00  0.00    -0.930 OA
BRANCH  20  29
ATOM     23  C   LIG    1        2.565  -4.098  -2.254  0.00  0.00    +0.130 C 
ATOM     24  C   LIG    1        1.687  -3.252  -3.141  0.00  0.00    +0.070 A 
ATOM     25  C   LIG    1        2.032  -3.049  -4.464  0.00  0.00    +0.020 A 
ATOM     26  C   LIG    1        1.230  -2.269  -5.275  0.00  0.00    +0.160 A 
ATOM     27  C   LIG    1        0.080  -1.696  -4.765  0.00  0.00    -0.070 A 
ATOM     28  C   LIG    1       -0.268  -1.904  -3.443  0.00  0.00    +0.220 A 
ATOM     29  C   LIG    1        0.534  -2.684  -2.632  0.00  0.00    -0.690 A 
BRANCH  27  30
ATOM     30  N   LIG    1       -0.779  -0.860  -5.634  0.00  0.00    +0.030 N 
ATOM     31  O   LIG    1       -0.473  -0.677  -6.798  0.00  0.00    -0.150 OA
ATOM     32  O   LIG    1       -1.792  -0.355  -5.184  0.00  0.00    -0.150 OA
ENDBRANCH  27  30
ENDBRANCH  20  29
ENDBRANCH  18  20
ENDBRANCH   1  18
TORSDOF 5
