REMARK  Name = ZINCpk00000y6yZB.0
REMARK                            x       y       z     vdW  Elec       q    Type
REMARK                         _______ _______ _______ _____ _____    ______ ____
ROOT
ATOM      1  C   LIG    1        4.739   9.601   0.618  0.00  0.00    +0.210 C 
ATOM      2  C   LIG    1        3.324   9.889   0.048  0.00  0.00    +0.090 C 
ATOM      3  C   LIG    1        2.672   8.491   0.015  0.00  0.00    +0.260 C 
ATOM      4  N   LIG    1        3.760   7.502   0.005  0.00  0.00    -0.610 N 
ATOM      5  C   LIG    1        3.604   6.163  -0.000  0.00  0.00    +0.540 C 
ATOM      6  O   LIG    1        4.577   5.439  -0.014  0.00  0.00    -0.510 OA
ATOM      7  C   LIG    1        5.049   8.217  -0.004  0.00  0.00    +0.260 C 
ENDROOT
BRANCH   1  10
ATOM      8  N   LIG    1        7.548  11.746  -0.231  0.00  0.00    -0.280 N 
ATOM      9  C   LIG    1        7.068  10.627   0.360  0.00  0.00    +0.160 A 
ATOM     10  C   LIG    1        5.730  10.637   0.153  0.00  0.00    -0.050 A 
ATOM     11  N   LIG    1        5.462  11.743  -0.549  0.00  0.00    -0.250 NA
ATOM     12  N   LIG    1        6.559  12.381  -0.756  0.00  0.00    -0.080 NA
BRANCH   8  14
ATOM     13  C   LIG    1        9.290  12.931   1.012  0.00  0.00    +0.060 C 
ATOM     14  C   LIG    1        8.952  12.162  -0.267  0.00  0.00    +0.250 C 
ATOM     15  C   LIG    1        9.848  10.925  -0.370  0.00  0.00    +0.060 C 
ENDBRANCH   8  14
ENDBRANCH   1  10
BRANCH   1  16
ATOM     16  O   LIG    1        4.710   9.527   2.045  0.00  0.00    -0.530 OA
ATOM     17  H   LIG    1        5.549   9.254   2.441  0.00  0.00    +0.380 HD
ENDBRANCH   1  16
BRANCH   5  18
ATOM     18  C   LIG    1        2.221   5.565   0.010  0.00  0.00    +0.250 C 
BRANCH  18  19
ATOM     19  O   LIG    1        2.318   4.139   0.002  0.00  0.00    -0.290 OA
BRANCH  19  20
ATOM     20  C   LIG    1        1.152   3.442   0.009  0.00  0.00    +0.160 A 
ATOM     21  C   LIG    1       -0.061   4.115   0.025  0.00  0.00    -0.080 A 
ATOM     22  C   LIG    1       -1.246   3.405   0.032  0.00  0.00    +0.090 A 
ATOM     23  C   LIG    1       -1.225   2.023   0.019  0.00  0.00    -0.050 A 
ATOM     24  C   LIG    1       -0.016   1.347   0.009  0.00  0.00    +0.140 A 
ATOM     25  F   LIG    1        0.002  -0.004   0.002  0.00  0.00    -0.130 F 
ATOM     26  C   LIG    1        1.172   2.055   0.002  0.00  0.00    -0.040 A 
ENDBRANCH  19  20
ENDBRANCH  18  19
ENDBRANCH   5  18
TORSDOF 6
