REMARK  Name = ZINCqH0000038H0l.1
REMARK                            x       y       z     vdW  Elec       q    Type
REMARK                         _______ _______ _______ _____ _____    ______ ____
ROOT
ATOM      1  C   LIG    1        0.243  -2.540   2.327  0.00  0.00    +0.200 A 
ATOM      2  C   LIG    1        0.234  -3.925   2.381  0.00  0.00    +0.020 A 
ATOM      3  C   LIG    1        0.738  -4.661   1.324  0.00  0.00    +0.030 A 
ATOM      4  C   LIG    1        1.252  -4.020   0.212  0.00  0.00    -0.010 A 
ATOM      5  C   LIG    1        1.259  -2.638   0.148  0.00  0.00    +0.000 A 
ATOM      6  C   LIG    1        0.761  -1.893   1.206  0.00  0.00    +0.050 A 
ENDROOT
BRANCH   6   7
ATOM      7  N   LIG    1        0.773  -0.495   1.146  0.00  0.00    -0.500 N 
ATOM      8  C   LIG    1       -0.007  -0.010  -0.002  0.00  0.00    +0.170 C 
ATOM      9  C   LIG    1       -0.018   1.521   0.005  0.00  0.00    +0.160 C 
ATOM     10  O   LIG    1        1.329   2.002  -0.015  0.00  0.00    -0.380 OA
ATOM     11  C   LIG    1        2.118   1.549   1.089  0.00  0.00    +0.160 C 
ATOM     12  C   LIG    1        3.543   2.089   0.955  0.00  0.00    +0.050 C 
ATOM     13  C   LIG    1       -0.760   2.032  -1.231  0.00  0.00    +0.050 C 
ATOM     14  C   LIG    1        2.150   0.019   1.093  0.00  0.00    +0.170 C 
ENDBRANCH   6   7
BRANCH   1  17
ATOM     15  N   LIG    1       -0.892  -1.651   5.643  0.00  0.00    -0.620 N 
ATOM     16  C   LIG    1       -0.300  -2.324   4.636  0.00  0.00    +0.700 C 
ATOM     17  N   LIG    1       -0.267  -1.792   3.398  0.00  0.00    -0.670 N 
ATOM     18  H   LIG    1       -0.595  -0.892   3.248  0.00  0.00    +0.410 HD
ATOM     19  O   LIG    1        0.204  -3.411   4.845  0.00  0.00    -0.570 OA
ATOM     20  C   LIG    1       -1.500  -0.342   5.391  0.00  0.00    +0.280 C 
BRANCH  15  21
ATOM     21  C   LIG    1       -0.929  -2.229   6.988  0.00  0.00    +0.410 C 
BRANCH  21  26
ATOM     22  C   LIG    1        3.872  -1.432   9.403  0.00  0.00    +0.180 C 
ATOM     23  C   LIG    1        2.472  -1.440   8.845  0.00  0.00    +0.040 A 
ATOM     24  N   LIG    1        1.577  -0.541   9.082  0.00  0.00    -0.480 NA
ATOM     25  C   LIG    1        0.399  -0.700   8.513  0.00  0.00    +0.220 A 
ATOM     26  C   LIG    1        0.294  -1.796   7.754  0.00  0.00    -0.260 A 
ATOM     27  S   LIG    1        1.836  -2.647   7.814  0.00  0.00    +0.170 S 
ENDBRANCH  21  26
ENDBRANCH  15  21
ENDBRANCH   1  17
TORSDOF 4
