REMARK  Name = ZINCqH0000002DFN.0
REMARK                            x       y       z     vdW  Elec       q    Type
REMARK                         _______ _______ _______ _____ _____    ______ ____
ROOT
ATOM      1  N   LIG    1        2.554   4.252   0.001  0.00  0.00    -0.680 N 
ATOM      2  H   LIG    1        3.395   3.772  -0.057  0.00  0.00    +0.410 HD
ATOM      3  C   LIG    1        1.403   3.574   0.175  0.00  0.00    +0.510 C 
ATOM      4  O   LIG    1        0.363   4.177   0.343  0.00  0.00    -0.510 OA
ENDROOT
BRANCH   1   9
ATOM      5  C   LIG    1        1.446   7.679  -0.785  0.00  0.00    -0.120 A 
ATOM      6  C   LIG    1        2.519   8.418  -0.284  0.00  0.00    +0.030 A 
ATOM      7  C   LIG    1        3.588   7.772   0.303  0.00  0.00    +0.040 A 
ATOM      8  C   LIG    1        3.600   6.393   0.398  0.00  0.00    +0.010 A 
ATOM      9  C   LIG    1        2.537   5.648  -0.098  0.00  0.00    +0.140 A 
ATOM     10  C   LIG    1        1.461   6.287  -0.694  0.00  0.00    +0.090 A 
BRANCH   5  13
ATOM     11  N   LIG    1        0.290   9.714  -1.506  0.00  0.00    -0.730 N 
ATOM     12  H   LIG    1        1.035  10.229  -1.158  0.00  0.00    +0.400 HD
ATOM     13  C   LIG    1        0.300   8.369  -1.415  0.00  0.00    +0.560 C 
ATOM     14  O   LIG    1       -0.633   7.723  -1.850  0.00  0.00    -0.530 OA
BRANCH  11  15
ATOM     15  C   LIG    1       -0.845  10.397  -2.130  0.00  0.00    +0.260 C 
BRANCH  15  17
ATOM     16  C   LIG    1       -1.793  12.622  -2.757  0.00  0.00    +0.030 C 
ATOM     17  C   LIG    1       -0.607  11.908  -2.105  0.00  0.00    +0.000 C 
ENDBRANCH  15  17
ENDBRANCH  11  15
ENDBRANCH   5  13
ENDBRANCH   1   9
BRANCH   3  18
ATOM     18  C   LIG    1        1.406   2.067   0.162  0.00  0.00    +0.070 C 
BRANCH  18  19
ATOM     19  C   LIG    1       -0.018   1.552   0.380  0.00  0.00    +0.070 C 
BRANCH  19  20
ATOM     20  C   LIG    1       -0.015   0.022   0.367  0.00  0.00    +0.200 C 
BRANCH  20  21
ATOM     21  O   LIG    1       -1.345  -0.459   0.571  0.00  0.00    -0.300 OA
BRANCH  21  22
ATOM     22  C   LIG    1       -1.518  -1.807   0.586  0.00  0.00    +0.100 A 
ATOM     23  C   LIG    1       -0.431  -2.649   0.409  0.00  0.00    -0.040 A 
ATOM     24  C   LIG    1       -0.610  -4.020   0.425  0.00  0.00    +0.040 A 
ATOM     25  C   LIG    1       -1.871  -4.552   0.618  0.00  0.00    +0.010 A 
ATOM     26  C   LIG    1       -2.958  -3.716   0.795  0.00  0.00    +0.020 A 
ATOM     27  C   LIG    1       -2.784  -2.344   0.786  0.00  0.00    +0.070 A 
ATOM     28  F   LIG    1       -3.845  -1.527   0.965  0.00  0.00    -0.130 F 
ENDBRANCH  21  22
ENDBRANCH  20  21
ENDBRANCH  19  20
ENDBRANCH  18  19
ENDBRANCH   3  18
TORSDOF 9
