REMARK  Name = ZINCpe000000Y3wN.0
REMARK                            x       y       z     vdW  Elec       q    Type
REMARK                         _______ _______ _______ _____ _____    ______ ____
ROOT
ATOM      1  C   LIG    1       -1.778  -0.945   1.450  0.00  0.00    +0.060 C 
ENDROOT
BRANCH   1   2
ATOM      2  C   LIG    1       -3.068  -1.722   1.458  0.00  0.00    +0.520 C 
ATOM      3  N   LIG    1       -3.688  -1.989   2.625  0.00  0.00    -0.610 N 
ATOM      4  C   LIG    1       -3.117  -1.536   3.903  0.00  0.00    +0.280 C 
ATOM      5  C   LIG    1       -4.213  -0.792   4.683  0.00  0.00    +0.170 C 
ATOM      6  N   LIG    1       -5.394  -1.656   4.803  0.00  0.00    -0.530 NA
ATOM      7  C   LIG    1       -5.969  -1.959   3.485  0.00  0.00    +0.170 C 
ATOM      8  C   LIG    1       -4.948  -2.746   2.655  0.00  0.00    +0.300 C 
ATOM      9  O   LIG    1       -3.550  -2.107   0.414  0.00  0.00    -0.540 OA
BRANCH   6  10
ATOM     10  C   LIG    1       -6.399  -1.054   5.689  0.00  0.00    +0.200 C 
BRANCH  10  11
ATOM     11  C   LIG    1       -5.715  -0.527   6.952  0.00  0.00    +0.160 C 
ATOM     12  C   LIG    1       -6.762   0.100   7.875  0.00  0.00    +0.010 C 
BRANCH  11  13
ATOM     13  O   LIG    1       -5.068  -1.606   7.629  0.00  0.00    -0.550 OA
ATOM     14  H   LIG    1       -4.612  -1.345   8.441  0.00  0.00    +0.370 HD
ENDBRANCH  11  13
ENDBRANCH  10  11
ENDBRANCH   6  10
ENDBRANCH   1   2
BRANCH   1  15
ATOM     15  C   LIG    1       -1.289  -0.781   0.010  0.00  0.00    +0.140 C 
BRANCH  15  26
ATOM     16  C   LIG    1       -1.334   2.131   0.020  0.00  0.00    +0.160 C 
ATOM     17  C   LIG    1       -0.017   1.398   0.010  0.00  0.00    +0.220 A 
ATOM     18  N   LIG    1        1.107   2.075   0.003  0.00  0.00    -0.470 NA
ATOM     19  C   LIG    1        2.289   1.444  -0.012  0.00  0.00    +0.260 A 
ATOM     20  C   LIG    1        3.599   1.903  -0.022  0.00  0.00    -0.110 A 
ATOM     21  C   LIG    1        4.433   0.794  -0.036  0.00  0.00    +0.290 A 
ATOM     22  N   LIG    1        3.696  -0.294  -0.035  0.00  0.00    -0.310 NA
ATOM     23  N   LIG    1        2.346   0.073  -0.020  0.00  0.00    -0.310 N 
ATOM     24  C   LIG    1        1.191  -0.654  -0.013  0.00  0.00    +0.200 A 
ATOM     25  C   LIG    1        1.237  -2.161  -0.021  0.00  0.00    +0.170 C 
ATOM     26  C   LIG    1        0.002  -0.004   0.002  0.00  0.00    -0.200 A 
ENDBRANCH  15  26
ENDBRANCH   1  15
TORSDOF 6
