REMARK  Name = ZINCpe000000Yqmu.1
REMARK                            x       y       z     vdW  Elec       q    Type
REMARK                         _______ _______ _______ _____ _____    ______ ____
ROOT
ATOM      1  N   LIG    1        1.359   2.034   0.000  0.00  0.00    -0.640 NA
ATOM      2  H   LIG    1        1.850   1.767   0.840  0.00  0.00    +0.360 HD
ENDROOT
BRANCH   1   3
ATOM      3  C   LIG    1       -0.019   1.526   0.010  0.00  0.00    +0.120 C 
ATOM      4  C   LIG    1        0.002  -0.004   0.002  0.00  0.00    +0.010 C 
BRANCH   3   5
ATOM      5  C   LIG    1       -0.735   2.019   1.269  0.00  0.00    +0.120 C 
BRANCH   5   6
ATOM      6  C   LIG    1       -2.149   1.498   1.280  0.00  0.00    -0.090 A 
ATOM      7  C   LIG    1       -3.162   2.237   0.700  0.00  0.00    +0.060 A 
ATOM      8  C   LIG    1       -4.458   1.757   0.704  0.00  0.00    -0.010 A 
ATOM      9  C   LIG    1       -4.743   0.541   1.300  0.00  0.00    +0.100 A 
ATOM     10  C   LIG    1       -3.728  -0.197   1.886  0.00  0.00    -0.020 A 
ATOM     11  F   LIG    1       -6.011   0.073   1.310  0.00  0.00    -0.140 F 
ATOM     12  C   LIG    1       -2.432   0.282   1.875  0.00  0.00    +0.040 A 
ENDBRANCH   5   6
ENDBRANCH   3   5
BRANCH   3  13
ATOM     13  C   LIG    1       -0.759   2.033  -1.229  0.00  0.00    +0.180 C 
BRANCH  13  14
ATOM     14  O   LIG    1       -0.678   3.458  -1.282  0.00  0.00    -0.550 OA
ATOM     15  H   LIG    1       -1.126   3.849  -2.045  0.00  0.00    +0.370 HD
ENDBRANCH  13  14
ENDBRANCH   3  13
ENDBRANCH   1   3
BRANCH   1  16
ATOM     16  C   LIG    1        2.079   1.579  -1.197  0.00  0.00    +0.280 C 
BRANCH  16  26
ATOM     17  C   LIG    1        5.132   4.692   2.067  0.00  0.00    +0.370 C 
ATOM     18  N   LIG    1        5.718   4.165   0.831  0.00  0.00    -0.350 N 
ATOM     19  N   LIG    1        7.027   4.384   0.386  0.00  0.00    -0.270 NA
ATOM     20  C   LIG    1        7.210   3.766  -0.748  0.00  0.00    +0.330 A 
ATOM     21  C   LIG    1        6.014   3.111  -1.094  0.00  0.00    -0.350 A 
ATOM     22  C   LIG    1        5.587   2.274  -2.215  0.00  0.00    +0.580 A 
ATOM     23  O   LIG    1        6.348   2.005  -3.128  0.00  0.00    -0.520 OA
ATOM     24  N   LIG    1        4.316   1.809  -2.200  0.00  0.00    -0.650 N 
ATOM     25  H   LIG    1        3.998   1.251  -2.927  0.00  0.00    +0.420 HD
ATOM     26  C   LIG    1        3.486   2.120  -1.173  0.00  0.00    +0.430 A 
ATOM     27  N   LIG    1        3.846   2.866  -0.171  0.00  0.00    -0.500 NA
ATOM     28  C   LIG    1        5.084   3.379  -0.077  0.00  0.00    +0.340 A 
ENDBRANCH  16  26
ENDBRANCH   1  16
TORSDOF 7
