REMARK  Name = ZINC650000003Wp7.0
REMARK                            x       y       z     vdW  Elec       q    Type
REMARK                         _______ _______ _______ _____ _____    ______ ____
ROOT
ATOM      1  C   LIG    1        0.693   3.048   0.012  0.00  0.00    +0.340 A 
ATOM      2  N   LIG    1        1.111   1.804   0.001  0.00  0.00    -0.360 NA
ATOM      3  N   LIG    1       -0.011   0.966   0.007  0.00  0.00    -0.480 N 
ATOM      4  H   LIG    1        0.002  -0.004   0.002  0.00  0.00    +0.440 HD
ATOM      5  C   LIG    1       -1.114   1.744   0.016  0.00  0.00    +0.260 A 
ATOM      6  C   LIG    1       -0.711   3.035   0.025  0.00  0.00    -0.160 A 
ENDROOT
BRANCH   1   7
ATOM      7  N   LIG    1        1.505   4.188   0.010  0.00  0.00    -0.850 N 
ATOM      8  H   LIG    1        1.102   5.070   0.019  0.00  0.00    +0.410 HD
ATOM      9  H   LIG    1        2.470   4.096   0.000  0.00  0.00    +0.400 HD
ENDBRANCH   1   7
TORSDOF 1
