REMARK  Name = ZINCrD000000fRmX.0
REMARK                            x       y       z     vdW  Elec       q    Type
REMARK                         _______ _______ _______ _____ _____    ______ ____
ROOT
ATOM      1  C   LIG    1        3.902   2.661  -1.464  0.00  0.00    +0.210 C 
ENDROOT
BRANCH   1   2
ATOM      2  O   LIG    1        2.871   3.429  -2.088  0.00  0.00    -0.540 OA
ATOM      3  H   LIG    1        2.693   4.274  -1.655  0.00  0.00    +0.380 HD
ENDBRANCH   1   2
BRANCH   1   4
ATOM      4  C   LIG    1        5.208   3.457  -1.474  0.00  0.00    +0.180 C 
BRANCH   4   5
ATOM      5  O   LIG    1        5.641   3.644  -2.822  0.00  0.00    -0.300 OA
BRANCH   5  10
ATOM      6  C   LIG    1        8.460   5.268  -4.477  0.00  0.00    -0.130 A 
ATOM      7  C   LIG    1        9.156   5.757  -3.368  0.00  0.00    +0.030 A 
ATOM      8  C   LIG    1        8.671   5.533  -2.096  0.00  0.00    +0.040 A 
ATOM      9  C   LIG    1        7.493   4.831  -1.914  0.00  0.00    -0.050 A 
ATOM     10  C   LIG    1        6.796   4.337  -3.009  0.00  0.00    +0.120 A 
ATOM     11  C   LIG    1        7.272   4.554  -4.290  0.00  0.00    +0.050 A 
BRANCH   6  13
ATOM     12  C   LIG    1       10.254   6.273  -6.034  0.00  0.00    +0.080 C 
ATOM     13  C   LIG    1        8.974   5.504  -5.836  0.00  0.00    +0.390 C 
ATOM     14  O   LIG    1        8.368   5.078  -6.796  0.00  0.00    -0.450 OA
ENDBRANCH   6  13
ENDBRANCH   5  10
ENDBRANCH   4   5
ENDBRANCH   1   4
BRANCH   1  15
ATOM     15  C   LIG    1        3.503   2.353  -0.019  0.00  0.00    +0.300 C 
BRANCH  15  16
ATOM     16  N   LIG    1        2.319   1.490  -0.012  0.00  0.00    -0.540 N 
ATOM     17  C   LIG    1        1.080   2.048   0.003  0.00  0.00    +0.610 A 
ATOM     18  N   LIG    1       -0.016   1.353   0.009  0.00  0.00    -0.510 NA
ATOM     19  C   LIG    1        0.002  -0.004   0.002  0.00  0.00    +0.170 A 
ATOM     20  C   LIG    1       -1.177  -0.753   0.010  0.00  0.00    -0.020 A 
ATOM     21  C   LIG    1       -1.112  -2.129   0.002  0.00  0.00    +0.100 A 
ATOM     22  C   LIG    1        0.114  -2.783  -0.013  0.00  0.00    -0.050 A 
ATOM     23  C   LIG    1        1.291  -2.065  -0.021  0.00  0.00    +0.130 A 
ATOM     24 CL   LIG    1        0.164  -4.518  -0.022  0.00  0.00    -0.040 Cl
ATOM     25 CL   LIG    1       -2.718   0.047   0.029  0.00  0.00    -0.020 Cl
ATOM     26  C   LIG    1        1.246  -0.672  -0.013  0.00  0.00    -0.180 A 
ATOM     27  C   LIG    1        2.469   0.145  -0.021  0.00  0.00    +0.550 A 
ATOM     28  O   LIG    1        3.573  -0.368  -0.034  0.00  0.00    -0.500 OA
ENDBRANCH  15  16
ENDBRANCH   1  15
TORSDOF 7
