REMARK  Name = ZINCvU0000000FiQ.0
REMARK                            x       y       z     vdW  Elec       q    Type
REMARK                         _______ _______ _______ _____ _____    ______ ____
ROOT
ATOM      1  N   LIG    1        0.566   1.263   0.870  0.00  0.00    -0.740 N 
ATOM      2  H   LIG    1        0.534   0.294   0.886  0.00  0.00    +0.410 HD
ENDROOT
BRANCH   1   3
ATOM      3  C   LIG    1       -0.603   2.005   1.076  0.00  0.00    +0.180 A 
ATOM      4  C   LIG    1       -0.557   3.393   1.058  0.00  0.00    -0.020 A 
ATOM      5  C   LIG    1       -1.712   4.123   1.256  0.00  0.00    -0.030 A 
ATOM      6  C   LIG    1       -2.916   3.472   1.482  0.00  0.00    +0.080 A 
ATOM      7  C   LIG    1       -2.961   2.086   1.505  0.00  0.00    +0.030 A 
ATOM      8  C   LIG    1       -1.808   1.353   1.302  0.00  0.00    -0.010 A 
BRANCH   6   9
ATOM      9  O   LIG    1       -4.052   4.193   1.683  0.00  0.00    -0.310 OA
BRANCH   9  10
ATOM     10  C   LIG    1       -3.932   5.616   1.646  0.00  0.00    +0.350 C 
BRANCH  10  11
ATOM     11  C   LIG    1       -5.282   6.240   1.887  0.00  0.00    +0.170 A 
ATOM     12  N   LIG    1       -6.157   6.553   0.979  0.00  0.00    -0.360 NA
ATOM     13  O   LIG    1       -7.144   7.035   1.495  0.00  0.00    +0.090 OA
ATOM     14  C   LIG    1       -6.983   7.085   2.821  0.00  0.00    +0.220 A 
ATOM     15  N   LIG    1       -5.800   6.581   3.080  0.00  0.00    -0.460 NA
BRANCH  14  16
ATOM     16  C   LIG    1       -7.971   7.618   3.825  0.00  0.00    +0.070 C 
ATOM     17  C   LIG    1       -9.371   7.973   3.320  0.00  0.00    +0.070 C 
ATOM     18  C   LIG    1       -8.389   9.084   3.696  0.00  0.00    +0.070 C 
ENDBRANCH  14  16
ENDBRANCH  10  11
ENDBRANCH   9  10
ENDBRANCH   6   9
ENDBRANCH   1   3
BRANCH   1  19
ATOM     19  C   LIG    1        1.836   1.951   0.625  0.00  0.00    +0.260 C 
BRANCH  19  24
ATOM     20  C   LIG    1        4.392   0.723  -1.873  0.00  0.00    +0.140 A 
ATOM     21  C   LIG    1        4.446  -0.629  -1.567  0.00  0.00    -0.010 A 
ATOM     22  C   LIG    1        3.657  -1.140  -0.555  0.00  0.00    +0.060 A 
ATOM     23  C   LIG    1        2.813  -0.305   0.153  0.00  0.00    -0.010 A 
ATOM     24  C   LIG    1        2.757   1.044  -0.149  0.00  0.00    -0.070 A 
ATOM     25  C   LIG    1        3.541   1.558  -1.163  0.00  0.00    -0.060 A 
BRANCH  20  26
ATOM     26  O   LIG    1        5.167   1.228  -2.869  0.00  0.00    -0.310 OA
BRANCH  26  28
ATOM     27  C   LIG    1        5.805   3.481  -2.269  0.00  0.00    +0.020 C 
ATOM     28  C   LIG    1        4.974   2.603  -3.207  0.00  0.00    +0.150 C 
ATOM     29  C   LIG    1        5.417   2.839  -4.652  0.00  0.00    +0.070 C 
ENDBRANCH  26  28
ENDBRANCH  20  26
ENDBRANCH  19  24
BRANCH  19  30
ATOM     30  C   LIG    1        2.484   2.316   1.962  0.00  0.00    +0.360 C 
ATOM     31  F   LIG    1        2.720   1.151   2.700  0.00  0.00    -0.200 F 
ATOM     32  F   LIG    1        1.629   3.159   2.680  0.00  0.00    -0.190 F 
ENDBRANCH  19  30
ENDBRANCH   1  19
TORSDOF 10
