REMARK  Name = ZINCpk00000ebhu8.2
REMARK                            x       y       z     vdW  Elec       q    Type
REMARK                         _______ _______ _______ _____ _____    ______ ____
ROOT
ATOM      1  C   LIG    1       -6.288  -2.227   0.119  0.00  0.00    +0.330 C 
ATOM      2  N   LIG    1       -4.891  -2.609   0.339  0.00  0.00    -0.450 N 
ATOM      3  C   LIG    1       -4.446  -3.799   0.805  0.00  0.00    +0.390 A 
ATOM      4  N   LIG    1       -3.140  -3.765   0.866  0.00  0.00    -0.480 NA
ATOM      5  C   LIG    1       -2.714  -2.571   0.448  0.00  0.00    +0.010 A 
ATOM      6  C   LIG    1       -1.294  -2.076   0.319  0.00  0.00    +0.100 C 
ATOM      7  C   LIG    1       -0.683  -2.634  -0.970  0.00  0.00    +0.020 C 
ATOM      8  C   LIG    1        0.703  -2.021  -1.186  0.00  0.00    +0.020 C 
ATOM      9  C   LIG    1        0.579  -0.515  -1.247  0.00  0.00    +0.170 C 
ATOM     10  N   LIG    1        0.002  -0.004   0.002  0.00  0.00    -0.530 NA
ATOM     11  C   LIG    1       -1.332  -0.547   0.249  0.00  0.00    +0.190 C 
ATOM     12  C   LIG    1       -2.303  -0.120  -0.851  0.00  0.00    +0.010 C 
ATOM     13  C   LIG    1       -3.740  -0.421  -0.405  0.00  0.00    +0.110 C 
ATOM     14  C   LIG    1       -3.794  -1.834   0.114  0.00  0.00    -0.030 A 
ENDROOT
BRANCH  10  15
ATOM     15  C   LIG    1       -0.018   1.465   0.010  0.00  0.00    +0.270 C 
BRANCH  15  16
ATOM     16  C   LIG    1        1.396   1.986  -0.001  0.00  0.00    +0.230 A 
ATOM     17  C   LIG    1        1.851   2.686  -1.065  0.00  0.00    -0.140 A 
ATOM     18  C   LIG    1        3.172   3.176  -1.069  0.00  0.00    +0.570 A 
ATOM     19  N   LIG    1        3.979   2.937  -0.018  0.00  0.00    -0.360 N 
ATOM     20  N   LIG    1        5.309   3.285   0.249  0.00  0.00    -0.260 NA
ATOM     21  C   LIG    1        5.635   2.808   1.424  0.00  0.00    +0.300 A 
ATOM     22  C   LIG    1        4.532   2.137   1.954  0.00  0.00    -0.120 A 
ATOM     23  C   LIG    1        3.515   2.225   1.051  0.00  0.00    +0.300 A 
ATOM     24  O   LIG    1        3.585   3.811  -2.024  0.00  0.00    -0.490 OA
ATOM     25  N   LIG    1        2.218   1.749   1.059  0.00  0.00    -0.590 N 
ATOM     26  H   LIG    1        1.892   1.244   1.821  0.00  0.00    +0.440 HD
ENDBRANCH  15  16
ENDBRANCH  10  15
TORSDOF 2
