REMARK  Name = ZINCqH00000380vi.0
REMARK                            x       y       z     vdW  Elec       q    Type
REMARK                         _______ _______ _______ _____ _____    ______ ____
ROOT
ATOM      1  C   LIG    1       -2.542   3.819   0.069  0.00  0.00    +0.110 C 
ATOM      2  C   LIG    1       -1.213   3.109   0.029  0.00  0.00    -0.090 A 
ATOM      3  C   LIG    1       -1.135   1.773   0.374  0.00  0.00    +0.040 A 
ATOM      4  C   LIG    1        0.079   1.118   0.346  0.00  0.00    +0.030 A 
ATOM      5  C   LIG    1        1.232   1.801  -0.043  0.00  0.00    -0.110 A 
ATOM      6  C   LIG    1        1.153   3.148  -0.396  0.00  0.00    +0.080 A 
ATOM      7  C   LIG    1       -0.070   3.799  -0.359  0.00  0.00    +0.140 A 
ENDROOT
BRANCH   5   8
ATOM      8  C   LIG    1        2.533   1.100  -0.079  0.00  0.00    +0.560 C 
ATOM      9  N   LIG    1        2.609  -0.155  -0.565  0.00  0.00    -0.600 N 
ATOM     10  C   LIG    1        1.395  -0.875  -0.971  0.00  0.00    +0.270 C 
ATOM     11  C   LIG    1        1.581  -1.371  -2.413  0.00  0.00    -0.030 C 
ATOM     12  C   LIG    1        2.862  -2.203  -2.499  0.00  0.00    +0.030 C 
ATOM     13  C   LIG    1        4.065  -1.330  -2.132  0.00  0.00    -0.030 C 
ATOM     14  C   LIG    1        5.349  -2.153  -2.250  0.00  0.00    +0.030 C 
ATOM     15  C   LIG    1        1.684  -0.173  -3.360  0.00  0.00    +0.020 C 
ATOM     16  C   LIG    1        3.908  -0.831  -0.692  0.00  0.00    +0.280 C 
ATOM     17  O   LIG    1        3.535   1.655   0.329  0.00  0.00    -0.530 OA
ENDBRANCH   5   8
BRANCH   7  18
ATOM     18  N   LIG    1       -0.155   5.150  -0.713  0.00  0.00    -0.660 N 
ATOM     19  H   LIG    1       -0.988   5.509  -1.058  0.00  0.00    +0.410 HD
ATOM     20  C   LIG    1        0.919   5.951  -0.575  0.00  0.00    +0.560 C 
ATOM     21  O   LIG    1        1.984   5.485  -0.217  0.00  0.00    -0.500 OA
BRANCH  20  22
ATOM     22  C   LIG    1        0.804   7.397  -0.859  0.00  0.00    -0.190 A 
ATOM     23  C   LIG    1        1.911   8.242  -0.714  0.00  0.00    +0.140 A 
ATOM     24  C   LIG    1        1.752   9.587  -0.997  0.00  0.00    -0.030 A 
ATOM     25  C   LIG    1        0.513  10.052  -1.399  0.00  0.00    +0.300 A 
ATOM     26  N   LIG    1       -0.515   9.233  -1.522  0.00  0.00    -0.490 NA
ATOM     27  C   LIG    1       -0.412   7.945  -1.270  0.00  0.00    +0.300 A 
ENDBRANCH  20  22
ENDBRANCH   7  18
TORSDOF 3
