REMARK  Name = ZINCrD00000732Zj.0
REMARK                            x       y       z     vdW  Elec       q    Type
REMARK                         _______ _______ _______ _____ _____    ______ ____
ROOT
ATOM      1  C   LIG    1       -2.856  -2.423  -0.236  0.00  0.00    -0.290 A 
ATOM      2  C   LIG    1       -3.126  -3.739  -0.271  0.00  0.00    +0.070 A 
ATOM      3  C   LIG    1       -4.484  -4.043  -0.373  0.00  0.00    -0.250 A 
ATOM      4  C   LIG    1       -5.292  -2.913  -0.429  0.00  0.00    +0.050 A 
ATOM      5  N   LIG    1       -6.655  -3.077  -0.536  0.00  0.00    -0.590 N 
ATOM      6  H   LIG    1       -7.228  -2.295  -0.576  0.00  0.00    +0.430 HD
ATOM      7  C   LIG    1       -7.206  -4.301  -0.587  0.00  0.00    +0.480 A 
ATOM      8  N   LIG    1       -6.499  -5.394  -0.538  0.00  0.00    -0.580 NA
ATOM      9  C   LIG    1       -5.160  -5.359  -0.434  0.00  0.00    +0.550 A 
ATOM     10  O   LIG    1       -4.513  -6.393  -0.390  0.00  0.00    -0.470 OA
ATOM     11  C   LIG    1       -2.054  -4.796  -0.202  0.00  0.00    +0.160 C 
ATOM     12  S   LIG    1       -4.342  -1.496  -0.347  0.00  0.00    +0.310 S 
ENDROOT
BRANCH   7  13
ATOM     13  C   LIG    1       -8.704  -4.414  -0.703  0.00  0.00    +0.000 C 
ATOM     14  C   LIG    1       -9.405  -5.452   0.176  0.00  0.00    +0.100 C 
ATOM     15  C   LIG    1       -9.270  -5.690  -1.330  0.00  0.00    +0.070 C 
BRANCH  15  16
ATOM     16  C   LIG    1      -10.515  -5.561  -2.169  0.00  0.00    -0.060 A 
ATOM     17  C   LIG    1      -11.679  -5.072  -1.607  0.00  0.00    +0.000 A 
ATOM     18  C   LIG    1      -12.820  -4.948  -2.379  0.00  0.00    +0.000 A 
ATOM     19  C   LIG    1      -12.798  -5.323  -3.709  0.00  0.00    +0.000 A 
ATOM     20  C   LIG    1      -11.635  -5.817  -4.269  0.00  0.00    +0.000 A 
ATOM     21  C   LIG    1      -10.493  -5.936  -3.499  0.00  0.00    +0.010 A 
ENDBRANCH  15  16
ENDBRANCH   7  13
BRANCH   1  22
ATOM     22  C   LIG    1       -1.514  -1.845  -0.128  0.00  0.00    +0.550 C 
ATOM     23  O   LIG    1       -0.542  -2.574  -0.057  0.00  0.00    -0.490 OA
BRANCH  22  24
ATOM     24  O   LIG    1       -1.356  -0.506  -0.107  0.00  0.00    -0.350 OA
BRANCH  24  25
ATOM     25  C   LIG    1        0.002  -0.004   0.002  0.00  0.00    +0.240 C 
BRANCH  25  26
ATOM     26  C   LIG    1       -0.019   1.526   0.010  0.00  0.00    +0.200 C 
BRANCH  26  28
ATOM     27  C   LIG    1       -0.762   3.410   1.292  0.00  0.00    +0.200 C 
ATOM     28  O   LIG    1       -0.688   1.987   1.186  0.00  0.00    -0.390 OA
ENDBRANCH  26  28
ENDBRANCH  25  26
ENDBRANCH  24  25
ENDBRANCH  22  24
ENDBRANCH   1  22
TORSDOF 7
