REMARK  Name = ZINCrD00000F5Lor.0
REMARK                            x       y       z     vdW  Elec       q    Type
REMARK                         _______ _______ _______ _____ _____    ______ ____
ROOT
ATOM      1  N   LIG    1        1.329   1.674  -0.002  0.00  0.00    -0.710 N 
ATOM      2  H   LIG    1        1.465   2.566  -0.358  0.00  0.00    +0.400 HD
ATOM      3  C   LIG    1        2.374   0.975   0.484  0.00  0.00    +0.570 C 
ATOM      4  O   LIG    1        2.204  -0.143   0.930  0.00  0.00    -0.530 OA
ENDROOT
BRANCH   3   5
ATOM      5  C   LIG    1        3.725   1.567   0.474  0.00  0.00    -0.140 A 
ATOM      6  C   LIG    1        3.948   2.843  -0.036  0.00  0.00    +0.070 A 
ATOM      7  C   LIG    1        5.214   3.420  -0.048  0.00  0.00    +0.000 A 
ATOM      8  C   LIG    1        6.301   2.752   0.433  0.00  0.00    -0.040 A 
ATOM      9  C   LIG    1        7.769   3.088   0.555  0.00  0.00    +0.100 C 
ATOM     10  C   LIG    1        8.420   1.846   1.201  0.00  0.00    +0.100 C 
ATOM     11  C   LIG    1        7.290   0.869   1.413  0.00  0.00    -0.080 A 
ATOM     12  C   LIG    1        7.197  -0.388   1.931  0.00  0.00    +0.020 A 
ATOM     13  C   LIG    1        5.963  -1.038   1.986  0.00  0.00    +0.030 A 
ATOM     14  C   LIG    1        4.812  -0.458   1.532  0.00  0.00    +0.050 A 
ATOM     15  C   LIG    1        6.126   1.471   0.948  0.00  0.00    -0.090 A 
ATOM     16  C   LIG    1        4.875   0.833   0.994  0.00  0.00    +0.000 A 
ENDBRANCH   3   5
BRANCH   1  19
ATOM     17  C   LIG    1       -1.368   2.723   0.021  0.00  0.00    +0.270 C 
ATOM     18  C   LIG    1       -0.942   1.685   1.079  0.00  0.00    +0.020 C 
ATOM     19  C   LIG    1       -0.013   1.086   0.008  0.00  0.00    +0.250 C 
ATOM     20  C   LIG    1       -0.956   1.692  -1.031  0.00  0.00    -0.120 C 
ATOM     21  C   LIG    1       -1.999   0.835  -1.749  0.00  0.00    +0.050 C 
ATOM     22  C   LIG    1       -1.854   1.805  -2.935  0.00  0.00    +0.010 C 
ATOM     23  C   LIG    1       -0.445   2.127  -2.405  0.00  0.00    +0.030 C 
BRANCH  17  26
ATOM     24  O   LIG    1       -2.460   5.020   0.913  0.00  0.00    -0.510 OA
ATOM     25  C   LIG    1       -3.248   4.198   0.496  0.00  0.00    +0.500 C 
ATOM     26  N   LIG    1       -2.804   3.015   0.027  0.00  0.00    -0.720 N 
ATOM     27  H   LIG    1       -3.434   2.358  -0.307  0.00  0.00    +0.400 HD
BRANCH  25  28
ATOM     28  C   LIG    1       -4.725   4.499   0.502  0.00  0.00    +0.170 C 
ATOM     29 CL   LIG    1       -5.000   6.145   1.184  0.00  0.00    -0.130 Cl
ENDBRANCH  25  28
ENDBRANCH  17  26
ENDBRANCH   1  19
TORSDOF 4
