REMARK  Name = ZINCrD0000072Z15.0
REMARK                            x       y       z     vdW  Elec       q    Type
REMARK                         _______ _______ _______ _____ _____    ______ ____
ROOT
ATOM      1  N   LIG    1        4.766   1.227  -0.032  0.00  0.00    -0.480 N 
ATOM      2  C   LIG    1        5.544   1.533  -1.240  0.00  0.00    +0.220 C 
ATOM      3  C   LIG    1        6.881   0.789  -1.185  0.00  0.00    +0.220 C 
ATOM      4  N   LIG    1        6.630  -0.655  -1.074  0.00  0.00    -0.490 N 
ATOM      5  C   LIG    1        5.852  -0.961   0.134  0.00  0.00    +0.220 C 
ATOM      6  C   LIG    1        4.515  -0.217   0.078  0.00  0.00    +0.160 C 
ATOM      7  C   LIG    1        3.719  -0.501   1.353  0.00  0.00    +0.050 C 
ENDROOT
BRANCH   1  10
ATOM      8  C   LIG    1        1.517   2.421  -0.933  0.00  0.00    +0.310 A 
ATOM      9  N   LIG    1        2.659   1.740  -0.946  0.00  0.00    -0.490 NA
ATOM     10  C   LIG    1        3.578   1.940  -0.014  0.00  0.00    +0.410 A 
ATOM     11  C   LIG    1        3.328   2.888   0.997  0.00  0.00    -0.220 A 
ATOM     12  S   LIG    1        4.295   3.408   2.368  0.00  0.00    +0.200 S 
ATOM     13  C   LIG    1        3.064   4.544   2.889  0.00  0.00    +0.020 A 
ATOM     14  C   LIG    1        2.016   4.520   2.084  0.00  0.00    +0.060 A 
ATOM     15  C   LIG    1        2.115   3.587   0.980  0.00  0.00    +0.160 A 
ATOM     16  N   LIG    1        1.243   3.320  -0.011  0.00  0.00    -0.430 NA
BRANCH   8  17
ATOM     17  C   LIG    1        0.518   2.162  -1.998  0.00  0.00    +0.540 C 
ATOM     18  O   LIG    1        0.751   1.341  -2.862  0.00  0.00    -0.460 OA
BRANCH  17  20
ATOM     19  C   LIG    1       -1.571   2.542  -3.087  0.00  0.00    +0.280 C 
ATOM     20  O   LIG    1       -0.644   2.842  -2.011  0.00  0.00    -0.330 OA
ENDBRANCH  17  20
ENDBRANCH   8  17
ENDBRANCH   1  10
BRANCH   4  21
ATOM     21  C   LIG    1        7.828  -1.374  -1.093  0.00  0.00    +0.140 A 
ATOM     22  C   LIG    1        8.140  -2.233  -0.047  0.00  0.00    -0.050 A 
ATOM     23  C   LIG    1        9.323  -2.947  -0.070  0.00  0.00    +0.070 A 
ATOM     24  C   LIG    1       10.201  -2.800  -1.127  0.00  0.00    -0.040 A 
ATOM     25  C   LIG    1        9.896  -1.940  -2.170  0.00  0.00    +0.130 A 
ATOM     26  F   LIG    1       10.757  -1.798  -3.201  0.00  0.00    -0.140 F 
ATOM     27  C   LIG    1        8.711  -1.227  -2.154  0.00  0.00    -0.040 A 
ENDBRANCH   4  21
TORSDOF 4
