REMARK  Name = ZINCpk00001AZj5B.0
REMARK                            x       y       z     vdW  Elec       q    Type
REMARK                         _______ _______ _______ _____ _____    ______ ____
ROOT
ATOM      1  C   LIG    1       -2.269   3.795   1.768  0.00  0.00    +0.570 C 
ATOM      2  N   LIG    1       -2.132   2.744   0.937  0.00  0.00    -0.620 N 
ATOM      3  C   LIG    1       -1.449   1.477   1.258  0.00  0.00    +0.260 C 
ATOM      4  C   LIG    1       -1.024   0.897  -0.114  0.00  0.00    +0.090 C 
ATOM      5  C   LIG    1       -2.228   1.295  -1.008  0.00  0.00    +0.210 C 
ATOM      6  C   LIG    1       -2.640   2.669  -0.441  0.00  0.00    +0.260 C 
ATOM      7  O   LIG    1       -2.855   4.794   1.395  0.00  0.00    -0.540 OA
ENDROOT
BRANCH   5   8
ATOM      8  C   LIG    1       -1.805   1.413  -2.450  0.00  0.00    -0.020 A 
ATOM      9  N   LIG    1       -0.601   1.225  -2.939  0.00  0.00    -0.260 NA
ATOM     10  N   LIG    1       -0.638   1.415  -4.211  0.00  0.00    -0.240 N 
ATOM     11  H   LIG    1        0.126   1.334  -4.803  0.00  0.00    +0.470 HD
ATOM     12  N   LIG    1       -1.825   1.733  -4.590  0.00  0.00    -0.280 NA
ATOM     13  C   LIG    1       -2.613   1.752  -3.538  0.00  0.00    +0.190 A 
ENDBRANCH   5   8
BRANCH   1  15
ATOM     14  C   LIG    1       -1.733   4.815   3.905  0.00  0.00    -0.000 C 
ATOM     15  C   LIG    1       -1.709   3.736   3.127  0.00  0.00    -0.110 C 
ATOM     16  C   LIG    1       -2.190   6.137   3.344  0.00  0.00    +0.100 C 
BRANCH  14  17
ATOM     17  C   LIG    1       -1.302   4.715   5.345  0.00  0.00    +0.130 C 
BRANCH  17  23
ATOM     18  C   LIG    1        0.502   6.439   5.590  0.00  0.00    +0.130 A 
ATOM     19  C   LIG    1        1.839   6.793   5.699  0.00  0.00    -0.080 A 
ATOM     20  C   LIG    1        2.815   5.816   5.683  0.00  0.00    +0.040 A 
ATOM     21  C   LIG    1        2.460   4.485   5.558  0.00  0.00    -0.030 A 
ATOM     22  C   LIG    1        1.128   4.129   5.454  0.00  0.00    +0.050 A 
ATOM     23  C   LIG    1        0.149   5.104   5.464  0.00  0.00    -0.110 A 
BRANCH  18  25
ATOM     24  C   LIG    1       -0.023   8.754   5.737  0.00  0.00    +0.240 C 
ATOM     25  O   LIG    1       -0.460   7.399   5.605  0.00  0.00    -0.310 OA
ENDBRANCH  18  25
ENDBRANCH  17  23
ENDBRANCH  14  17
ENDBRANCH   1  15
BRANCH   5  26
ATOM     26  O   LIG    1       -3.292   0.351  -0.871  0.00  0.00    -0.530 OA
ATOM     27  H   LIG    1       -4.069   0.554  -1.409  0.00  0.00    +0.380 HD
ENDBRANCH   5  26
TORSDOF 6
