REMARK  Name = ZINCrD0000073IWI.0
REMARK                            x       y       z     vdW  Elec       q    Type
REMARK                         _______ _______ _______ _____ _____    ______ ____
ROOT
ATOM      1  C   LIG    1        4.833   4.220  -0.246  0.00  0.00    -0.160 A 
ATOM      2  C   LIG    1        6.037   3.538  -0.442  0.00  0.00    +0.070 A 
ATOM      3  C   LIG    1        7.215   4.242  -0.554  0.00  0.00    +0.010 A 
ATOM      4  C   LIG    1        7.210   5.630  -0.463  0.00  0.00    +0.180 A 
ATOM      5  C   LIG    1        6.014   6.312  -0.263  0.00  0.00    -0.020 A 
ATOM      6  C   LIG    1        4.831   5.615  -0.155  0.00  0.00    +0.110 A 
ENDROOT
BRANCH   1   9
ATOM      7  N   LIG    1        3.572   2.125  -0.220  0.00  0.00    -0.660 N 
ATOM      8  H   LIG    1        4.413   1.645  -0.281  0.00  0.00    +0.410 HD
ATOM      9  C   LIG    1        3.568   3.470  -0.131  0.00  0.00    +0.560 C 
ATOM     10  O   LIG    1        2.522   4.065   0.044  0.00  0.00    -0.520 OA
BRANCH   7  16
ATOM     11  C   LIG    1        2.335   0.075   0.141  0.00  0.00    +0.100 A 
ATOM     12  C   LIG    1        1.135  -0.616   0.136  0.00  0.00    -0.060 A 
ATOM     13  C   LIG    1       -0.033   0.027  -0.232  0.00  0.00    +0.030 A 
ATOM     14  C   LIG    1       -0.007   1.361  -0.594  0.00  0.00    +0.000 A 
ATOM     15  C   LIG    1        1.186   2.058  -0.591  0.00  0.00    +0.060 A 
ATOM     16  C   LIG    1        2.362   1.420  -0.224  0.00  0.00    +0.120 A 
BRANCH  11  18
ATOM     17  C   LIG    1        3.381  -1.935   0.863  0.00  0.00    +0.250 C 
ATOM     18  O   LIG    1        3.484  -0.556   0.501  0.00  0.00    -0.320 OA
ENDBRANCH  11  18
ENDBRANCH   7  16
ENDBRANCH   1   9
BRANCH   4  19
ATOM     19  N   LIG    1        8.405   6.339  -0.571  0.00  0.00    -0.680 N 
ATOM     20  H   LIG    1        8.413   7.215  -0.988  0.00  0.00    +0.410 HD
ATOM     21  C   LIG    1        9.550   5.808  -0.098  0.00  0.00    +0.510 C 
ATOM     22  O   LIG    1        9.525   4.756   0.506  0.00  0.00    -0.490 OA
BRANCH  21  23
ATOM     23  C   LIG    1       10.859   6.519  -0.319  0.00  0.00    +0.220 C 
BRANCH  23  24
ATOM     24  N   LIG    1       11.948   5.742   0.288  0.00  0.00    -0.520 NA
ATOM     25  C   LIG    1       11.811   5.698   1.749  0.00  0.00    +0.170 C 
ATOM     26  C   LIG    1       12.873   4.764   2.334  0.00  0.00    +0.030 C 
ATOM     27  C   LIG    1       14.264   5.275   1.948  0.00  0.00    +0.010 C 
ATOM     28  C   LIG    1       14.364   5.358   0.423  0.00  0.00    +0.020 C 
ATOM     29  C   LIG    1       13.258   6.274  -0.107  0.00  0.00    +0.180 C 
ENDBRANCH  23  24
ENDBRANCH  21  23
ENDBRANCH   4  19
TORSDOF 6
