REMARK  Name = ZINCqH0000037i1r.0
REMARK                            x       y       z     vdW  Elec       q    Type
REMARK                         _______ _______ _______ _____ _____    ______ ____
ROOT
ATOM      1  C   LIG    1       -1.520   5.308  -1.331  0.00  0.00    +0.090 C 
ATOM      2  C   LIG    1       -1.366   4.688   0.059  0.00  0.00    +0.300 C 
ENDROOT
BRANCH   2   3
ATOM      3  C   LIG    1       -0.320   3.604   0.011  0.00  0.00    +0.150 A 
ATOM      4  N   LIG    1       -0.534   2.311   0.023  0.00  0.00    -0.470 NA
ATOM      5  C   LIG    1        0.683   1.741  -0.030  0.00  0.00    +0.180 A 
ATOM      6  N   LIG    1        1.559   2.700  -0.078  0.00  0.00    -0.380 NA
ATOM      7  O   LIG    1        1.004   3.778  -0.055  0.00  0.00    +0.080 OA
BRANCH   5   8
ATOM      8  C   LIG    1        0.977   0.263  -0.039  0.00  0.00    +0.220 C 
BRANCH   8   9
ATOM      9  C   LIG    1        1.145  -0.224   1.377  0.00  0.00    -0.090 A 
ATOM     10  C   LIG    1        2.396  -0.220   1.966  0.00  0.00    +0.010 A 
ATOM     11  C   LIG    1        2.550  -0.662   3.266  0.00  0.00    +0.000 A 
ATOM     12  C   LIG    1        1.454  -1.119   3.975  0.00  0.00    +0.010 A 
ATOM     13  C   LIG    1        0.204  -1.128   3.385  0.00  0.00    +0.010 A 
ATOM     14  C   LIG    1        0.050  -0.681   2.086  0.00  0.00    +0.030 A 
ENDBRANCH   8   9
ENDBRANCH   5   8
ENDBRANCH   2   3
BRANCH   2  15
ATOM     15  N   LIG    1       -0.954   5.725   1.015  0.00  0.00    -0.660 NA
ATOM     16  H   LIG    1        0.042   5.883   0.970  0.00  0.00    +0.360 HD
BRANCH  15  17
ATOM     17  C   LIG    1       -1.371   5.378   2.380  0.00  0.00    +0.110 C 
ATOM     18  C   LIG    1       -0.421   6.044   3.364  0.00  0.00    +0.030 C 
ATOM     19  C   LIG    1       -0.679   5.548   4.787  0.00  0.00    +0.080 C 
ATOM     20  C   LIG    1       -1.825   6.345   5.380  0.00  0.00    -0.110 A 
ATOM     21  C   LIG    1       -1.589   7.229   6.413  0.00  0.00    +0.030 A 
ATOM     22  C   LIG    1       -2.644   7.940   6.959  0.00  0.00    +0.010 A 
ATOM     23  C   LIG    1       -3.925   7.763   6.471  0.00  0.00    +0.020 A 
ATOM     24  C   LIG    1       -4.159   6.882   5.432  0.00  0.00    +0.000 A 
ATOM     25  C   LIG    1       -3.100   6.175   4.879  0.00  0.00    +0.100 A 
ATOM     26  O   LIG    1       -3.320   5.340   3.827  0.00  0.00    -0.320 OA
ATOM     27  C   LIG    1       -2.817   5.789   2.564  0.00  0.00    +0.250 C 
ENDBRANCH  15  17
ENDBRANCH   2  15
TORSDOF 5
