REMARK  Name = ZINCqH0000005FdN.0
REMARK                            x       y       z     vdW  Elec       q    Type
REMARK                         _______ _______ _______ _____ _____    ______ ____
ROOT
ATOM      1  C   LIG    1       -3.649  -0.906   0.029  0.00  0.00    +0.290 C 
ENDROOT
BRANCH   1   2
ATOM      2  C   LIG    1       -4.744  -0.166   0.752  0.00  0.00    -0.060 A 
ATOM      3  C   LIG    1       -4.892   1.197   0.573  0.00  0.00    +0.010 A 
ATOM      4  C   LIG    1       -5.896   1.879   1.236  0.00  0.00    +0.050 A 
ATOM      5  C   LIG    1       -6.754   1.200   2.078  0.00  0.00    -0.060 A 
ATOM      6  C   LIG    1       -6.608  -0.168   2.260  0.00  0.00    +0.130 A 
ATOM      7  C   LIG    1       -5.603  -0.851   1.591  0.00  0.00    +0.020 A 
BRANCH   6   8
ATOM      8  O   LIG    1       -7.451  -0.838   3.088  0.00  0.00    -0.310 OA
ATOM      9  C   LIG    1       -8.466  -0.072   3.740  0.00  0.00    +0.250 C 
ENDBRANCH   6   8
ENDBRANCH   1   2
BRANCH   1  10
ATOM     10  C   LIG    1       -4.079  -1.178  -1.390  0.00  0.00    +0.460 C 
ATOM     11  O   LIG    1       -3.434  -0.737  -2.312  0.00  0.00    -0.490 OA
BRANCH  10  13
ATOM     12  C   LIG    1       -5.533  -2.131  -3.021  0.00  0.00    +0.290 C 
ATOM     13  O   LIG    1       -5.178  -1.909  -1.630  0.00  0.00    -0.350 OA
ENDBRANCH  10  13
ENDBRANCH   1  10
BRANCH   1  14
ATOM     14  O   LIG    1       -2.442  -0.100   0.022  0.00  0.00    -0.320 OA
BRANCH  14  15
ATOM     15  C   LIG    1       -1.266  -0.758   0.009  0.00  0.00    +0.520 C 
ATOM     16  O   LIG    1       -1.250  -1.973   0.002  0.00  0.00    -0.500 OA
BRANCH  15  17
ATOM     17  C   LIG    1        0.002  -0.004   0.002  0.00  0.00    -0.130 A 
ATOM     18  C   LIG    1       -0.017   1.394   0.010  0.00  0.00    +0.080 A 
ATOM     19  C   LIG    1        1.168   2.096   0.002  0.00  0.00    +0.020 A 
ATOM     20  C   LIG    1        2.380   1.407  -0.013  0.00  0.00    -0.010 A 
ATOM     21  C   LIG    1        3.664   2.137  -0.023  0.00  0.00    -0.010 C 
ATOM     22  C   LIG    1        4.767   1.513  -0.414  0.00  0.00    +0.000 C 
ATOM     23  C   LIG    1        4.731   0.077  -0.857  0.00  0.00    +0.060 C 
ATOM     24  C   LIG    1        3.716  -0.716  -0.035  0.00  0.00    +0.080 C 
ATOM     25  C   LIG    1        2.395   0.008  -0.020  0.00  0.00    -0.090 A 
ATOM     26  C   LIG    1        1.222  -0.688  -0.013  0.00  0.00    +0.090 A 
ENDBRANCH  15  17
ENDBRANCH  14  15
ENDBRANCH   1  14
TORSDOF 7
