REMARK  Name = ZINCpe000000UCq9.1
REMARK                            x       y       z     vdW  Elec       q    Type
REMARK                         _______ _______ _______ _____ _____    ______ ____
ROOT
ATOM      1  C   LIG    1        1.953   6.275   1.468  0.00  0.00    +0.210 C 
ENDROOT
BRANCH   1   2
ATOM      2  O   LIG    1        3.142   6.013   2.217  0.00  0.00    -0.540 OA
ATOM      3  H   LIG    1        3.935   6.430   1.854  0.00  0.00    +0.370 HD
ENDBRANCH   1   2
BRANCH   1   4
ATOM      4  C   LIG    1        2.123   5.754   0.040  0.00  0.00    +0.280 C 
BRANCH   4   6
ATOM      5  C   LIG    1        3.575   3.678   0.186  0.00  0.00    +0.280 C 
ATOM      6  N   LIG    1        2.252   4.295   0.065  0.00  0.00    -0.610 N 
ATOM      7  C   LIG    1        1.152   3.520  -0.025  0.00  0.00    +0.520 C 
ATOM      8  O   LIG    1        0.057   4.031  -0.125  0.00  0.00    -0.510 OA
BRANCH   7   9
ATOM      9  C   LIG    1        1.284   2.019   0.001  0.00  0.00    +0.130 C 
ATOM     10  C   LIG    1        2.043   1.552  -1.244  0.00  0.00    +0.220 C 
ATOM     11  N   LIG    1        2.102   0.083  -1.253  0.00  0.00    -0.680 NA
ATOM     12  H   LIG    1        2.647  -0.262  -0.477  0.00  0.00    +0.340 HD
ATOM     13  C   LIG    1        0.749  -0.492  -1.242  0.00  0.00    +0.200 C 
ATOM     14  C   LIG    1        0.002  -0.004   0.002  0.00  0.00    +0.180 C 
ATOM     15  O   LIG    1       -0.017   1.426   0.010  0.00  0.00    -0.350 OA
ENDBRANCH   7   9
ENDBRANCH   4   6
ENDBRANCH   1   4
BRANCH   1  16
ATOM     16  C   LIG    1        1.695   7.783   1.434  0.00  0.00    +0.180 C 
BRANCH  16  17
ATOM     17  O   LIG    1        1.420   8.250   2.756  0.00  0.00    -0.290 OA
BRANCH  17  18
ATOM     18  C   LIG    1        1.167   9.577   2.902  0.00  0.00    +0.180 A 
ATOM     19  C   LIG    1        1.183  10.413   1.795  0.00  0.00    -0.070 A 
ATOM     20  C   LIG    1        0.925  11.762   1.946  0.00  0.00    +0.090 A 
ATOM     21  C   LIG    1        0.652  12.279   3.199  0.00  0.00    -0.020 A 
ATOM     22  C   LIG    1        0.636  11.448   4.304  0.00  0.00    +0.120 A 
ATOM     23  C   LIG    1        0.887  10.097   4.158  0.00  0.00    -0.220 A 
BRANCH  23  24
ATOM     24  C   LIG    1        0.863   9.191   5.361  0.00  0.00    +0.520 C 
ATOM     25  F   LIG    1        2.116   8.589   5.517  0.00  0.00    -0.170 F 
ATOM     26  F   LIG    1       -0.111   8.202   5.181  0.00  0.00    -0.170 F 
ATOM     27  F   LIG    1        0.560   9.940   6.503  0.00  0.00    -0.180 F 
ENDBRANCH  23  24
ENDBRANCH  17  18
ENDBRANCH  16  17
ENDBRANCH   1  16
TORSDOF 8
