REMARK  Name = ZINCrH000004nO1n.0
REMARK                            x       y       z     vdW  Elec       q    Type
REMARK                         _______ _______ _______ _____ _____    ______ ____
ROOT
ATOM      1  C   LIG    1        3.294   8.071  -2.163  0.00  0.00    +0.560 C 
ATOM      2  N   LIG    1        3.527   7.326  -1.064  0.00  0.00    -0.600 N 
ATOM      3  C   LIG    1        4.051   7.944   0.162  0.00  0.00    +0.270 C 
ATOM      4  C   LIG    1        5.309   7.185   0.597  0.00  0.00    +0.030 C 
ATOM      5  C   LIG    1        4.980   5.697   0.735  0.00  0.00    +0.040 C 
ATOM      6  C   LIG    1        4.527   5.146  -0.620  0.00  0.00    +0.070 C 
ATOM      7  C   LIG    1        3.261   5.881  -1.069  0.00  0.00    +0.320 C 
ATOM      8  O   LIG    1        2.943   7.536  -3.196  0.00  0.00    -0.520 OA
ENDROOT
BRANCH   6   9
ATOM      9  C   LIG    1        4.234   3.673  -0.490  0.00  0.00    +0.100 A 
ATOM     10  N   LIG    1        3.355   3.180   0.297  0.00  0.00    -0.460 NA
ATOM     11  C   LIG    1        3.200   1.843   0.309  0.00  0.00    +0.080 A 
ATOM     12  C   LIG    1        2.319   1.046   1.067  0.00  0.00    +0.080 A 
ATOM     13  C   LIG    1        2.321  -0.309   0.928  0.00  0.00    +0.030 A 
ATOM     14  C   LIG    1        3.188  -0.930   0.039  0.00  0.00    +0.040 A 
ATOM     15  C   LIG    1        4.059  -0.176  -0.715  0.00  0.00    +0.060 A 
ATOM     16  C   LIG    1        4.071   1.210  -0.585  0.00  0.00    -0.180 A 
ATOM     17  S   LIG    1        5.035   2.454  -1.376  0.00  0.00    +0.110 S 
ENDBRANCH   6   9
BRANCH   1  21
ATOM     18  C   LIG    1        3.783  12.288  -2.015  0.00  0.00    -0.640 A 
ATOM     19  C   LIG    1        4.166  11.589  -3.147  0.00  0.00    +0.120 A 
ATOM     20  C   LIG    1        4.009  10.220  -3.201  0.00  0.00    +0.050 A 
ATOM     21  C   LIG    1        3.465   9.539  -2.111  0.00  0.00    -0.070 A 
ATOM     22  C   LIG    1        3.077  10.250  -0.975  0.00  0.00    +0.030 A 
ATOM     23  C   LIG    1        3.243  11.619  -0.931  0.00  0.00    +0.120 A 
BRANCH  18  25
ATOM     24  C   LIG    1        2.430  14.697  -2.611  0.00  0.00    -0.250 C 
ATOM     25  S   LIG    1        3.987  14.037  -1.954  0.00  0.00    +2.500 S 
ATOM     26  O   LIG    1        5.057  14.297  -2.851  0.00  0.00    -0.930 OA
ATOM     27  O   LIG    1        4.106  14.327  -0.568  0.00  0.00    -0.930 OA
ENDBRANCH  18  25
ENDBRANCH   1  21
TORSDOF 3
