REMARK  Name = ZINCvU0000000A2Q.0
REMARK                            x       y       z     vdW  Elec       q    Type
REMARK                         _______ _______ _______ _____ _____    ______ ____
ROOT
ATOM      1  C   LIG    1        3.796  -1.342  -2.435  0.00  0.00    +0.010 C 
ATOM      2  C   LIG    1        4.824  -0.514  -3.208  0.00  0.00    +0.080 C 
ENDROOT
BRANCH   1   3
ATOM      3  C   LIG    1        4.155  -2.803  -2.528  0.00  0.00    +0.410 C 
ATOM      4  O   LIG    1        3.645  -3.501  -3.382  0.00  0.00    -0.460 OA
BRANCH   3   5
ATOM      5  C   LIG    1        5.077  -3.356  -1.629  0.00  0.00    -0.220 C 
ATOM      6  C   LIG    1        5.310  -4.691  -1.633  0.00  0.00    +0.270 C 
ATOM      7  N   LIG    1        6.132  -5.373  -0.791  0.00  0.00    -0.530 N 
ATOM      8  C   LIG    1        6.144  -6.739  -1.066  0.00  0.00    +0.140 A 
ATOM      9  C   LIG    1        6.836  -7.783  -0.454  0.00  0.00    -0.020 A 
ATOM     10  C   LIG    1        6.683  -9.076  -0.910  0.00  0.00    +0.040 A 
ATOM     11  C   LIG    1        5.844  -9.348  -1.974  0.00  0.00    -0.010 A 
ATOM     12  C   LIG    1        5.153  -8.316  -2.587  0.00  0.00    +0.070 A 
ATOM     13  C   LIG    1        5.303  -7.025  -2.135  0.00  0.00    -0.130 A 
ATOM     14  C   LIG    1        6.913  -4.745   0.278  0.00  0.00    +0.320 C 
ATOM     15  C   LIG    1        4.700  -5.710  -2.572  0.00  0.00    +0.010 C 
ATOM     16  C   LIG    1        5.085  -5.402  -4.021  0.00  0.00    +0.090 C 
ATOM     17  C   LIG    1        3.178  -5.738  -2.416  0.00  0.00    +0.080 C 
ENDBRANCH   3   5
ENDBRANCH   1   3
BRANCH   1  18
ATOM     18  S   LIG    1        2.152  -1.079  -3.145  0.00  0.00    +0.010 S 
BRANCH  18  23
ATOM     19  C   LIG    1        2.963   3.818  -1.400  0.00  0.00    +0.150 C 
ATOM     20  C   LIG    1        2.285   2.640  -2.050  0.00  0.00    +0.000 A 
ATOM     21  C   LIG    1        1.073   2.652  -2.630  0.00  0.00    +0.000 A 
ATOM     22  N   LIG    1        0.835   1.377  -3.091  0.00  0.00    -0.440 N 
ATOM     23  C   LIG    1        1.929   0.630  -2.777  0.00  0.00    +0.180 A 
ATOM     24  C   LIG    1        0.147   3.836  -2.750  0.00  0.00    +0.150 C 
ATOM     25  N   LIG    1        2.791   1.400  -2.153  0.00  0.00    -0.480 NA
BRANCH  22  26
ATOM     26  C   LIG    1       -0.364   0.912  -3.792  0.00  0.00    +0.320 C 
BRANCH  26  27
ATOM     27  C   LIG    1       -1.384   0.400  -2.773  0.00  0.00    +0.140 C 
ATOM     28  C   LIG    1       -2.623  -0.174  -3.495  0.00  0.00    +0.010 C 
ATOM     29  C   LIG    1       -3.808   0.239  -2.594  0.00  0.00    +0.010 C 
ATOM     30  C   LIG    1       -3.145   1.015  -1.434  0.00  0.00    +0.190 C 
ATOM     31  O   LIG    1       -1.892   1.493  -1.977  0.00  0.00    -0.360 OA
ENDBRANCH  26  27
ENDBRANCH  22  26
ENDBRANCH  18  23
ENDBRANCH   1  18
TORSDOF 6
