REMARK  Name = ZINCvU00000007d0.0
REMARK                            x       y       z     vdW  Elec       q    Type
REMARK                         _______ _______ _______ _____ _____    ______ ____
ROOT
ATOM      1  C   LIG    1        0.275   1.097   2.748  0.00  0.00    +0.170 A 
ATOM      2  N   LIG    1        1.356   0.390   2.529  0.00  0.00    -0.470 NA
ATOM      3  C   LIG    1        1.751  -0.173   3.692  0.00  0.00    +0.060 A 
ATOM      4  C   LIG    1        0.849   0.216   4.659  0.00  0.00    +0.010 A 
ATOM      5  O   LIG    1       -0.062   1.007   4.044  0.00  0.00    -0.170 OA
ENDROOT
BRANCH   4   6
ATOM      6  C   LIG    1        0.870  -0.158   6.085  0.00  0.00    -0.020 A 
ATOM      7  C   LIG    1        0.721   0.822   7.070  0.00  0.00    +0.040 A 
ATOM      8  C   LIG    1        0.736   0.464   8.402  0.00  0.00    +0.010 A 
ATOM      9  C   LIG    1        0.911  -0.860   8.764  0.00  0.00    +0.030 A 
ATOM     10  C   LIG    1        1.066  -1.835   7.794  0.00  0.00    +0.010 A 
ATOM     11  C   LIG    1        1.046  -1.493   6.458  0.00  0.00    +0.050 A 
ENDBRANCH   4   6
BRANCH   3  12
ATOM     12  C   LIG    1        2.930  -1.048   3.890  0.00  0.00    -0.020 A 
ATOM     13  C   LIG    1        3.742  -0.885   5.013  0.00  0.00    +0.030 A 
ATOM     14  C   LIG    1        4.836  -1.706   5.194  0.00  0.00    +0.010 A 
ATOM     15  C   LIG    1        5.134  -2.682   4.260  0.00  0.00    +0.020 A 
ATOM     16  C   LIG    1        4.336  -2.844   3.142  0.00  0.00    +0.010 A 
ATOM     17  C   LIG    1        3.236  -2.033   2.952  0.00  0.00    +0.040 A 
ENDBRANCH   3  12
BRANCH   1  18
ATOM     18  S   LIG    1       -0.604   2.017   1.529  0.00  0.00    +0.090 S 
BRANCH  18  19
ATOM     19  C   LIG    1        0.417   1.669   0.075  0.00  0.00    +0.180 C 
BRANCH  19  26
ATOM     20  C   LIG    1       -3.483   4.430  -6.159  0.00  0.00    +0.130 C 
ATOM     21  C   LIG    1       -2.888   3.742  -4.958  0.00  0.00    -0.130 A 
ATOM     22  C   LIG    1       -1.771   4.239  -4.380  0.00  0.00    +0.270 A 
ATOM     23  N   LIG    1       -1.219   3.631  -3.294  0.00  0.00    -0.420 N 
ATOM     24  C   LIG    1       -0.104   4.147  -2.734  0.00  0.00    +0.510 A 
ATOM     25  C   LIG    1        0.451   3.510  -1.618  0.00  0.00    -0.150 A 
ATOM     26  C   LIG    1       -0.160   2.373  -1.125  0.00  0.00    +0.220 A 
ATOM     27  N   LIG    1       -1.250   1.900  -1.709  0.00  0.00    -0.530 NA
ATOM     28  O   LIG    1        0.413   5.153  -3.195  0.00  0.00    -0.520 OA
ATOM     29  C   LIG    1       -1.786   2.504  -2.768  0.00  0.00    +0.390 A 
ATOM     30  C   LIG    1       -2.949   1.971  -3.355  0.00  0.00    +0.040 A 
ATOM     31  C   LIG    1       -3.493   2.588  -4.442  0.00  0.00    +0.130 A 
ENDBRANCH  19  26
ENDBRANCH  18  19
ENDBRANCH   1  18
TORSDOF 5
