REMARK  Name = ZINCpk00000eaCq4.0
REMARK                            x       y       z     vdW  Elec       q    Type
REMARK                         _______ _______ _______ _____ _____    ______ ____
ROOT
ATOM      1  N   LIG    1        3.408   1.740  -2.564  0.00  0.00    -0.740 N 
ATOM      2  H   LIG    1        2.514   2.073  -2.385  0.00  0.00    +0.400 HD
ATOM      3  C   LIG    1        3.794   1.495  -3.832  0.00  0.00    +0.700 C 
ATOM      4  N   LIG    1        2.940   1.714  -4.851  0.00  0.00    -0.740 N 
ATOM      5  H   LIG    1        2.046   2.047  -4.672  0.00  0.00    +0.400 HD
ATOM      6  O   LIG    1        4.914   1.078  -4.056  0.00  0.00    -0.590 OA
ENDROOT
BRANCH   1   7
ATOM      7  C   LIG    1        4.337   1.502  -1.456  0.00  0.00    +0.280 C 
BRANCH   7   9
ATOM      8  C   LIG    1        4.578   1.492   1.031  0.00  0.00    +0.040 C 
ATOM      9  C   LIG    1        3.654   1.857  -0.133  0.00  0.00    +0.230 C 
BRANCH   9  10
ATOM     10  N   LIG    1        2.401   1.108  -0.015  0.00  0.00    -0.630 N 
ATOM     11  C   LIG    1        2.426  -0.354   0.077  0.00  0.00    +0.280 C 
BRANCH  10  12
ATOM     12  C   LIG    1        1.181   1.788   0.011  0.00  0.00    +0.210 A 
ATOM     13  C   LIG    1        1.159   3.177   0.047  0.00  0.00    -0.080 A 
ATOM     14  C   LIG    1       -0.049   3.846   0.078  0.00  0.00    +0.050 A 
ATOM     15  C   LIG    1       -1.235   3.135   0.063  0.00  0.00    -0.060 A 
ATOM     16  C   LIG    1       -1.217   1.753   0.027  0.00  0.00    +0.050 A 
ATOM     17  C   LIG    1       -0.013   1.078   0.001  0.00  0.00    -0.080 A 
ENDBRANCH  10  12
ENDBRANCH   9  10
ENDBRANCH   7   9
ENDBRANCH   1   7
BRANCH   4  18
ATOM     18  C   LIG    1        3.360   1.448  -6.229  0.00  0.00    +0.270 C 
BRANCH  18  19
ATOM     19  C   LIG    1        2.211   1.776  -7.184  0.00  0.00    +0.210 C 
ATOM     20  C   LIG    1        1.835   3.253  -7.041  0.00  0.00    +0.070 C 
BRANCH  19  21
ATOM     21  C   LIG    1        2.643   1.503  -8.602  0.00  0.00    -0.270 A 
ATOM     22  C   LIG    1        1.838   1.122  -9.620  0.00  0.00    +0.260 A 
ATOM     23  N   LIG    1        2.605   0.981 -10.721  0.00  0.00    -0.370 N 
ATOM     24  N   LIG    1        3.926   1.287 -10.368  0.00  0.00    -0.290 NA
ATOM     25  C   LIG    1        2.140   0.581 -12.051  0.00  0.00    +0.360 C 
ATOM     26  C   LIG    1        3.946   1.605  -9.099  0.00  0.00    +0.240 A 
ENDBRANCH  19  21
BRANCH  19  27
ATOM     27  O   LIG    1        1.079   0.964  -6.866  0.00  0.00    -0.550 OA
ATOM     28  H   LIG    1        1.246   0.013  -6.936  0.00  0.00    +0.380 HD
ENDBRANCH  19  27
ENDBRANCH  18  19
ENDBRANCH   4  18
TORSDOF 8
