REMARK  Name = ZINCrg00000AsYe9.0
REMARK                            x       y       z     vdW  Elec       q    Type
REMARK                         _______ _______ _______ _____ _____    ______ ____
ROOT
ATOM      1  C   LIG    1        6.102  -0.820   0.051  0.00  0.00    +0.250 C 
ATOM      2  C   LIG    1        6.795  -0.880   1.425  0.00  0.00    +0.050 C 
ATOM      3  C   LIG    1        8.107  -0.654   0.676  0.00  0.00    -0.120 C 
ATOM      4  C   LIG    1        9.289   0.056   1.339  0.00  0.00    +0.300 C 
ATOM      5  N   LIG    1        9.866  -1.294   1.504  0.00  0.00    -0.650 N 
ATOM      6  C   LIG    1       10.767  -1.838   2.347  0.00  0.00    +0.530 C 
ATOM      7  O   LIG    1       11.059  -3.011   2.248  0.00  0.00    -0.530 OA
ATOM      8  C   LIG    1        9.062  -1.812   0.378  0.00  0.00    +0.310 C 
ATOM      9  C   LIG    1        7.301   0.016  -0.435  0.00  0.00    +0.050 C 
ENDROOT
BRANCH   1  11
ATOM     10  C   LIG    1        3.668  -0.740  -0.032  0.00  0.00    +0.570 C 
ATOM     11  N   LIG    1        4.838  -0.079   0.065  0.00  0.00    -0.720 N 
ATOM     12  H   LIG    1        4.844   0.888   0.144  0.00  0.00    +0.400 HD
ATOM     13  O   LIG    1        3.662  -1.952  -0.130  0.00  0.00    -0.540 OA
BRANCH  10  19
ATOM     14  C   LIG    1        1.218   3.602  -0.031  0.00  0.00    +0.100 C 
ATOM     15  C   LIG    1        1.210   2.095  -0.018  0.00  0.00    -0.120 A 
ATOM     16  C   LIG    1        0.004   1.413   0.007  0.00  0.00    +0.060 A 
ATOM     17  C   LIG    1       -0.018   0.032   0.019  0.00  0.00    +0.020 A 
ATOM     18  C   LIG    1        1.175  -0.684   0.007  0.00  0.00    +0.240 A 
ATOM     19  C   LIG    1        2.397   0.005  -0.018  0.00  0.00    -0.200 A 
ATOM     20  F   LIG    1       -1.199  -0.625   0.043  0.00  0.00    -0.140 F 
ATOM     21  C   LIG    1        2.401   1.403  -0.030  0.00  0.00    +0.080 A 
BRANCH  18  22
ATOM     22  N   LIG    1        1.156  -2.074   0.019  0.00  0.00    -0.850 N 
ATOM     23  H   LIG    1        1.918  -2.566   0.364  0.00  0.00    +0.420 HD
ATOM     24  H   LIG    1        0.383  -2.552  -0.318  0.00  0.00    +0.400 HD
ENDBRANCH  18  22
ENDBRANCH  10  19
ENDBRANCH   1  11
BRANCH   6  25
ATOM     25  C   LIG    1       11.411  -0.988   3.412  0.00  0.00    +0.050 C 
BRANCH  25  26
ATOM     26  C   LIG    1       12.386  -1.841   4.225  0.00  0.00    +0.070 C 
BRANCH  26  27
ATOM     27  C   LIG    1       13.040  -0.978   5.306  0.00  0.00    +0.060 C 
BRANCH  27  28
ATOM     28  C   LIG    1       14.000  -1.819   6.107  0.00  0.00    +0.510 C 
ATOM     29  O   LIG    1       14.147  -2.993   5.840  0.00  0.00    -0.540 OA
ATOM     30  N   LIG    1       14.696  -1.266   7.121  0.00  0.00    -0.860 N 
ATOM     31  H   LIG    1       15.314  -1.807   7.637  0.00  0.00    +0.400 HD
ATOM     32  H   LIG    1       14.578  -0.327   7.335  0.00  0.00    +0.400 HD
ENDBRANCH  27  28
ENDBRANCH  26  27
ENDBRANCH  25  26
ENDBRANCH   6  25
TORSDOF 7
