REMARK  Name = ZINCvU0000000IVI.0
REMARK                            x       y       z     vdW  Elec       q    Type
REMARK                         _______ _______ _______ _____ _____    ______ ____
ROOT
ATOM      1  C   LIG    1       -1.888   1.238  -0.666  0.00  0.00    +0.580 C 
ATOM      2  N   LIG    1       -3.006   1.893  -0.294  0.00  0.00    -0.550 N 
ATOM      3  C   LIG    1       -4.228   1.162   0.083  0.00  0.00    +0.300 C 
ATOM      4  C   LIG    1       -5.188   1.127  -1.085  0.00  0.00    -0.030 C 
ATOM      5  C   LIG    1       -5.669   2.510  -1.506  0.00  0.00    +0.200 C 
ATOM      6  N   LIG    1       -4.590   3.286  -2.117  0.00  0.00    -0.490 N 
ATOM      7  C   LIG    1       -3.856   3.990  -1.141  0.00  0.00    +0.100 A 
ATOM      8  C   LIG    1       -3.935   5.371  -1.075  0.00  0.00    -0.020 A 
ATOM      9  C   LIG    1       -3.185   6.056  -0.136  0.00  0.00    +0.040 A 
ATOM     10  C   LIG    1       -2.360   5.366   0.733  0.00  0.00    +0.010 A 
ATOM     11  C   LIG    1       -2.287   3.986   0.679  0.00  0.00    +0.030 A 
ATOM     12  C   LIG    1       -6.403   0.281  -0.698  0.00  0.00    +0.030 C 
ATOM     13  C   LIG    1       -3.044   3.292  -0.246  0.00  0.00    +0.120 A 
ATOM     14  O   LIG    1       -1.903   0.027  -0.781  0.00  0.00    -0.510 OA
ENDROOT
BRANCH   1  19
ATOM     15  C   LIG    1        1.735   2.243  -0.686  0.00  0.00    +0.020 A 
ATOM     16  C   LIG    1        1.685   3.404  -1.447  0.00  0.00    +0.140 A 
ATOM     17  C   LIG    1        0.474   3.858  -1.948  0.00  0.00    -0.010 A 
ATOM     18  C   LIG    1       -0.687   3.162  -1.694  0.00  0.00    +0.130 A 
ATOM     19  C   LIG    1       -0.647   1.989  -0.934  0.00  0.00    -0.170 A 
ATOM     20  F   LIG    1        2.819   4.092  -1.701  0.00  0.00    -0.120 F 
ATOM     21  C   LIG    1        0.573   1.534  -0.424  0.00  0.00    +0.160 A 
ATOM     22  F   LIG    1        0.620   0.405   0.316  0.00  0.00    -0.110 F 
BRANCH  15  24
ATOM     23  C   LIG    1        3.673   0.905  -1.021  0.00  0.00    +0.240 C 
ATOM     24  O   LIG    1        2.926   1.802  -0.197  0.00  0.00    -0.320 OA
ENDBRANCH  15  24
ENDBRANCH   1  19
BRANCH   6  25
ATOM     25  C   LIG    1       -5.115   4.199  -3.142  0.00  0.00    +0.230 C 
BRANCH  25  26
ATOM     26  C   LIG    1       -5.674   3.399  -4.289  0.00  0.00    -0.090 A 
ATOM     27  C   LIG    1       -4.836   2.952  -5.294  0.00  0.00    +0.030 A 
ATOM     28  C   LIG    1       -5.348   2.214  -6.344  0.00  0.00    +0.000 A 
ATOM     29  C   LIG    1       -6.700   1.931  -6.395  0.00  0.00    +0.000 A 
ATOM     30  C   LIG    1       -7.539   2.382  -5.394  0.00  0.00    +0.000 A 
ATOM     31  C   LIG    1       -7.026   3.116  -4.341  0.00  0.00    +0.010 A 
ENDBRANCH  25  26
ENDBRANCH   6  25
TORSDOF 4
