REMARK  Name = ZINCvU0000000Akf.0
REMARK                            x       y       z     vdW  Elec       q    Type
REMARK                         _______ _______ _______ _____ _____    ______ ____
ROOT
ATOM      1  C   LIG    1       -4.371   3.051   3.296  0.00  0.00    +0.120 A 
ATOM      2  C   LIG    1       -4.892   4.174   2.673  0.00  0.00    +0.160 A 
ATOM      3  C   LIG    1       -5.591   5.112   3.410  0.00  0.00    -0.680 A 
ATOM      4  C   LIG    1       -5.763   4.939   4.771  0.00  0.00    +0.130 A 
ATOM      5  C   LIG    1       -5.242   3.825   5.402  0.00  0.00    -0.030 A 
ATOM      6  C   LIG    1       -4.544   2.876   4.669  0.00  0.00    +0.130 A 
ENDROOT
BRANCH   6   7
ATOM      7  N   LIG    1       -4.017   1.748   5.305  0.00  0.00    -0.470 N 
ATOM      8  C   LIG    1       -4.464   1.676   6.720  0.00  0.00    +0.190 C 
ATOM      9  C   LIG    1       -4.253   0.185   7.083  0.00  0.00    +0.040 C 
ATOM     10  C   LIG    1       -4.650  -0.548   5.780  0.00  0.00    +0.020 C 
ATOM     11  C   LIG    1       -4.500   0.505   4.666  0.00  0.00    +0.180 C 
ENDBRANCH   6   7
BRANCH   1  14
ATOM     12  O   LIG    1       -4.785   2.609   0.704  0.00  0.00    -0.510 OA
ATOM     13  C   LIG    1       -3.898   1.970   1.228  0.00  0.00    +0.510 C 
ATOM     14  N   LIG    1       -3.666   2.096   2.550  0.00  0.00    -0.670 N 
ATOM     15  H   LIG    1       -3.013   1.527   2.984  0.00  0.00    +0.420 HD
BRANCH  13  16
ATOM     16  C   LIG    1       -3.053   1.034   0.402  0.00  0.00    -0.010 C 
ATOM     17  C   LIG    1       -1.580   1.522   0.359  0.00  0.00    +0.040 C 
ATOM     18  C   LIG    1       -1.045   0.867  -0.939  0.00  0.00    +0.020 C 
ATOM     19  C   LIG    1       -2.228   0.954  -1.926  0.00  0.00    +0.020 C 
ATOM     20  C   LIG    1       -3.505   1.060  -1.073  0.00  0.00    +0.050 C 
ENDBRANCH  13  16
ENDBRANCH   1  14
BRANCH   3  21
ATOM     21  S   LIG    1       -6.257   6.536   2.614  0.00  0.00    +2.690 S 
ATOM     22  O   LIG    1       -7.324   6.992   3.434  0.00  0.00    -0.940 OA
ATOM     23  O   LIG    1       -6.421   6.191   1.246  0.00  0.00    -0.940 OA
BRANCH  21  24
ATOM     24  N   LIG    1       -5.094   7.715   2.663  0.00  0.00    -1.050 N 
ATOM     25  H   LIG    1       -5.273   8.554   3.116  0.00  0.00    +0.430 HD
BRANCH  24  26
ATOM     26  C   LIG    1       -3.855   7.500   2.054  0.00  0.00    +0.180 A 
ATOM     27  C   LIG    1       -3.778   6.771   0.874  0.00  0.00    +0.020 A 
ATOM     28  C   LIG    1       -2.551   6.564   0.271  0.00  0.00    -0.000 A 
ATOM     29  C   LIG    1       -1.400   7.073   0.847  0.00  0.00    +0.040 A 
ATOM     30  C   LIG    1       -1.474   7.795   2.024  0.00  0.00    +0.080 A 
ATOM     31 CL   LIG    1       -2.453   5.658  -1.206  0.00  0.00    -0.040 Cl
ATOM     32  C   LIG    1       -2.697   8.010   2.630  0.00  0.00    -0.060 A 
ATOM     33 CL   LIG    1       -2.789   8.915   4.108  0.00  0.00    -0.050 Cl
ENDBRANCH  24  26
ENDBRANCH  21  24
ENDBRANCH   3  21
TORSDOF 6
