REMARK  Name = ZINCvU0000000ADW.0
REMARK                            x       y       z     vdW  Elec       q    Type
REMARK                         _______ _______ _______ _____ _____    ______ ____
ROOT
ATOM      1  C   LIG    1       -0.090  -0.010  -0.131  0.00  0.00    +0.240 C 
ENDROOT
BRANCH   1   2
ATOM      2  C   LIG    1        0.022  -0.654  -1.489  0.00  0.00    -0.120 A 
ATOM      3  C   LIG    1       -0.680  -0.135  -2.560  0.00  0.00    +0.040 A 
ATOM      4  C   LIG    1       -0.574  -0.723  -3.807  0.00  0.00    +0.010 A 
ATOM      5  C   LIG    1        0.228  -1.835  -3.980  0.00  0.00    +0.030 A 
ATOM      6  C   LIG    1        0.926  -2.358  -2.908  0.00  0.00    +0.010 A 
ATOM      7  C   LIG    1        0.824  -1.767  -1.662  0.00  0.00    +0.030 A 
ENDBRANCH   1   2
BRANCH   1   8
ATOM      8  C   LIG    1       -1.303  -0.549   0.582  0.00  0.00    +0.530 C 
ATOM      9  N   LIG    1       -1.358  -1.851   0.927  0.00  0.00    -0.670 N 
ATOM     10  H   LIG    1       -0.653  -2.457   0.651  0.00  0.00    +0.420 HD
ATOM     11  O   LIG    1       -2.229   0.188   0.845  0.00  0.00    -0.490 OA
BRANCH   9  12
ATOM     12  C   LIG    1       -2.433  -2.328   1.685  0.00  0.00    +0.150 A 
ATOM     13  C   LIG    1       -3.032  -1.512   2.636  0.00  0.00    +0.050 A 
ATOM     14  C   LIG    1       -4.097  -1.984   3.378  0.00  0.00    +0.040 A 
ATOM     15  C   LIG    1       -4.559  -3.272   3.184  0.00  0.00    +0.060 A 
ATOM     16  C   LIG    1       -3.962  -4.090   2.242  0.00  0.00    -0.160 A 
ATOM     17  C   LIG    1       -2.901  -3.622   1.493  0.00  0.00    +0.040 A 
BRANCH  16  18
ATOM     18  C   LIG    1       -4.469  -5.494   2.034  0.00  0.00    +0.510 C 
ATOM     19  F   LIG    1       -4.255  -5.875   0.706  0.00  0.00    -0.180 F 
ATOM     20  F   LIG    1       -5.838  -5.542   2.319  0.00  0.00    -0.170 F 
ATOM     21  F   LIG    1       -3.785  -6.368   2.886  0.00  0.00    -0.170 F 
ENDBRANCH  16  18
ENDBRANCH   9  12
ENDBRANCH   1   8
BRANCH   1  22
ATOM     22  O   LIG    1       -0.216   1.405  -0.284  0.00  0.00    -0.310 OA
BRANCH  22  24
ATOM     23  O   LIG    1        2.000   1.563  -0.194  0.00  0.00    -0.500 OA
ATOM     24  C   LIG    1        0.926   2.124  -0.304  0.00  0.00    +0.510 C 
BRANCH  24  25
ATOM     25  C   LIG    1        0.874   3.527  -0.452  0.00  0.00    -0.040 C 
ATOM     26  C   LIG    1        2.023   4.251  -0.472  0.00  0.00    +0.210 C 
BRANCH  26  27
ATOM     27  C   LIG    1        1.972   5.657  -0.620  0.00  0.00    +0.000 A 
ATOM     28  C   LIG    1        3.055   6.512  -0.651  0.00  0.00    +0.030 A 
ATOM     29  C   LIG    1        2.538   7.805  -0.814  0.00  0.00    +0.010 A 
ATOM     30  C   LIG    1        1.190   7.694  -0.867  0.00  0.00    -0.010 A 
ATOM     31 BR   LIG    1       -0.022   9.130  -1.074  0.00  0.00    +0.070 Br
ATOM     32  O   LIG    1        0.854   6.402  -0.750  0.00  0.00    -0.150 OA
ENDBRANCH  26  27
ENDBRANCH  24  25
ENDBRANCH  22  24
ENDBRANCH   1  22
TORSDOF 8
