REMARK  Name = ZINCqH0000006mkw.0
REMARK                            x       y       z     vdW  Elec       q    Type
REMARK                         _______ _______ _______ _____ _____    ______ ____
ROOT
ATOM      1  N   LIG    1        7.827   2.856  -1.010  0.00  0.00    -0.730 N 
ATOM      2  H   LIG    1        7.441   2.684  -1.884  0.00  0.00    +0.400 HD
ATOM      3  C   LIG    1        7.307   2.265   0.084  0.00  0.00    +0.710 C 
ATOM      4  N   LIG    1        6.303   1.375  -0.044  0.00  0.00    -0.630 N 
ATOM      5  C   LIG    1        5.678   1.110  -1.347  0.00  0.00    +0.320 C 
ATOM      6  C   LIG    1        4.186   1.036  -1.173  0.00  0.00    -0.050 C 
ATOM      7  C   LIG    1        3.596   0.990  -0.002  0.00  0.00    -0.020 C 
ATOM      8  C   LIG    1        4.320   1.010   1.312  0.00  0.00    +0.060 C 
ATOM      9  C   LIG    1        5.790   0.628   1.117  0.00  0.00    +0.300 C 
ATOM     10  O   LIG    1        7.743   2.536   1.186  0.00  0.00    -0.590 OA
ENDROOT
BRANCH   7  11
ATOM     11  C   LIG    1        2.123   0.906   0.025  0.00  0.00    -0.150 A 
ATOM     12  C   LIG    1        1.252   1.947   0.058  0.00  0.00    +0.100 A 
ATOM     13  N   LIG    1       -0.029   1.476   0.075  0.00  0.00    -0.590 N 
ATOM     14  H   LIG    1       -0.824   2.031   0.096  0.00  0.00    +0.410 HD
ATOM     15  C   LIG    1       -0.029   0.098   0.055  0.00  0.00    +0.090 A 
ATOM     16  C   LIG    1       -1.043  -0.854   0.060  0.00  0.00    -0.010 A 
ATOM     17  C   LIG    1       -0.728  -2.195   0.033  0.00  0.00    +0.030 A 
ATOM     18  C   LIG    1        0.596  -2.609   0.001  0.00  0.00    -0.020 A 
ATOM     19  C   LIG    1        1.615  -1.682  -0.004  0.00  0.00    +0.050 A 
ATOM     20  C   LIG    1        1.640   3.403   0.071  0.00  0.00    +0.150 C 
ATOM     21  C   LIG    1        1.311  -0.323   0.022  0.00  0.00    -0.090 A 
ENDBRANCH   7  11
BRANCH   1  22
ATOM     22  C   LIG    1        8.974   3.757  -0.881  0.00  0.00    +0.300 C 
BRANCH  22  23
ATOM     23  C   LIG    1        8.482   5.164  -0.536  0.00  0.00    -0.060 C 
ATOM     24  C   LIG    1        9.121   5.861   0.667  0.00  0.00    +0.010 C 
ATOM     25  C   LIG    1        7.686   5.336   0.760  0.00  0.00    +0.020 C 
ENDBRANCH  22  23
BRANCH  22  26
ATOM     26  C   LIG    1        9.744   3.796  -2.203  0.00  0.00    +0.180 C 
BRANCH  26  28
ATOM     27  C   LIG    1        9.548   4.461  -4.497  0.00  0.00    +0.200 C 
ATOM     28  O   LIG    1        8.920   4.377  -3.216  0.00  0.00    -0.390 OA
ENDBRANCH  26  28
ENDBRANCH  22  26
ENDBRANCH   1  22
TORSDOF 5
