REMARK  Name = ZINCvU0000000AK5.0
REMARK                            x       y       z     vdW  Elec       q    Type
REMARK                         _______ _______ _______ _____ _____    ______ ____
ROOT
ATOM      1  C   LIG    1       -2.560   3.966   0.233  0.00  0.00    +0.140 C 
ATOM      2  C   LIG    1       -1.280   3.303  -0.209  0.00  0.00    +0.080 C 
ATOM      3  C   LIG    1       -1.261   1.955  -0.547  0.00  0.00    -0.130 C 
ATOM      4  C   LIG    1       -0.004   1.335  -0.968  0.00  0.00    +0.570 C 
ATOM      5  N   LIG    1        1.128   2.056  -1.043  0.00  0.00    -0.550 N 
ATOM      6  C   LIG    1        1.146   3.364  -0.729  0.00  0.00    +0.560 C 
ATOM      7  O   LIG    1        2.187   3.990  -0.807  0.00  0.00    -0.480 OA
ATOM      8  O   LIG    1        0.015   0.152  -1.259  0.00  0.00    -0.470 OA
ATOM      9  C   LIG    1       -0.083   4.040  -0.295  0.00  0.00    -0.200 C 
ATOM     10  C   LIG    1       -0.064   5.403   0.032  0.00  0.00    +0.290 C 
ENDROOT
BRANCH  10  11
ATOM     11  C   LIG    1        1.153   6.080   0.130  0.00  0.00    -0.040 A 
ATOM     12  C   LIG    1        1.407   7.374  -0.323  0.00  0.00    +0.050 A 
ATOM     13  C   LIG    1        2.736   7.649  -0.024  0.00  0.00    -0.040 A 
ATOM     14  C   LIG    1        3.254   6.527   0.598  0.00  0.00    +0.080 A 
ATOM     15  O   LIG    1        2.286   5.599   0.686  0.00  0.00    -0.100 OA
BRANCH  14  16
ATOM     16  C   LIG    1        4.635   6.377   1.089  0.00  0.00    -0.020 A 
ATOM     17  C   LIG    1        5.715   6.681   0.254  0.00  0.00    +0.090 A 
ATOM     18  C   LIG    1        7.004   6.544   0.722  0.00  0.00    +0.050 A 
ATOM     19  C   LIG    1        7.233   6.096   2.013  0.00  0.00    -0.010 A 
ATOM     20  C   LIG    1        6.170   5.787   2.845  0.00  0.00    +0.050 A 
ATOM     21 CL   LIG    1        8.861   5.921   2.591  0.00  0.00    -0.050 Cl
ATOM     22  C   LIG    1        4.873   5.925   2.392  0.00  0.00    -0.000 A 
ATOM     23 CL   LIG    1        3.541   5.538   3.436  0.00  0.00    -0.040 Cl
ENDBRANCH  14  16
ENDBRANCH  10  11
BRANCH   3  24
ATOM     24  C   LIG    1       -2.461   1.177  -0.477  0.00  0.00    +0.270 C 
ATOM     25  N   LIG    1       -3.414   0.560  -0.422  0.00  0.00    -0.400 NA
ENDBRANCH   3  24
BRANCH   5  26
ATOM     26  C   LIG    1        2.367   1.404  -1.473  0.00  0.00    +0.320 C 
BRANCH  26  27
ATOM     27  C   LIG    1        2.497   1.509  -2.994  0.00  0.00    +0.130 C 
ATOM     28  C   LIG    1        3.798   0.826  -3.458  0.00  0.00    +0.010 C 
ATOM     29  C   LIG    1        3.321  -0.268  -4.445  0.00  0.00    +0.010 C 
ATOM     30  C   LIG    1        1.917   0.249  -4.849  0.00  0.00    +0.200 C 
ATOM     31  O   LIG    1        1.404   0.821  -3.627  0.00  0.00    -0.360 OA
ENDBRANCH  26  27
ENDBRANCH   5  26
TORSDOF 5
