REMARK  Name = ZINCpe00000MJKx3.0
REMARK                            x       y       z     vdW  Elec       q    Type
REMARK                         _______ _______ _______ _____ _____    ______ ____
ROOT
ATOM      1  C   LIG    1       -2.873   6.048   3.064  0.00  0.00    +0.170 C 
ATOM      2  C   LIG    1       -3.791   7.194   2.636  0.00  0.00    +0.080 C 
ENDROOT
BRANCH   1   7
ATOM      3  C   LIG    1       -1.855   2.937   1.202  0.00  0.00    +0.280 C 
ATOM      4  C   LIG    1       -1.266   3.596  -0.049  0.00  0.00    +0.020 C 
ATOM      5  C   LIG    1       -2.106   4.823  -0.413  0.00  0.00    +0.040 C 
ATOM      6  C   LIG    1       -2.132   5.788   0.774  0.00  0.00    +0.180 C 
ATOM      7  N   LIG    1       -2.704   5.112   1.945  0.00  0.00    -0.500 NA
ATOM      8  C   LIG    1       -1.888   3.958   2.342  0.00  0.00    +0.180 C 
BRANCH   3  12
ATOM      9  C   LIG    1        2.114  -0.017   2.003  0.00  0.00    +0.110 C 
ATOM     10  C   LIG    1        0.701   0.504   1.942  0.00  0.00    -0.240 A 
ATOM     11  C   LIG    1        0.319   1.714   1.473  0.00  0.00    +0.230 A 
ATOM     12  N   LIG    1       -1.023   1.796   1.591  0.00  0.00    -0.370 N 
ATOM     13  N   LIG    1       -1.481   0.594   2.147  0.00  0.00    -0.290 NA
ATOM     14  C   LIG    1       -0.446  -0.177   2.362  0.00  0.00    +0.230 A 
ENDBRANCH   3  12
ENDBRANCH   1   7
BRANCH   1  15
ATOM     15  C   LIG    1       -1.529   6.603   3.462  0.00  0.00    +0.490 C 
ATOM     16  N   LIG    1       -1.411   7.347   4.579  0.00  0.00    -0.600 N 
ATOM     17  C   LIG    1       -0.129   7.973   4.910  0.00  0.00    +0.290 C 
ATOM     18  O   LIG    1       -0.554   6.379   2.776  0.00  0.00    -0.520 OA
BRANCH  16  19
ATOM     19  C   LIG    1       -2.566   7.530   5.462  0.00  0.00    +0.260 C 
ATOM     20  C   LIG    1       -2.277   6.888   6.830  0.00  0.00    +0.070 C 
ATOM     21  C   LIG    1       -3.374   7.399   7.800  0.00  0.00    -0.300 C 
ATOM     22  S   LIG    1       -3.494   9.175   7.365  0.00  0.00    +2.390 S 
ATOM     23  O   LIG    1       -4.862   9.556   7.303  0.00  0.00    -0.930 OA
ATOM     24  O   LIG    1       -2.588   9.919   8.169  0.00  0.00    -0.930 OA
ATOM     25  C   LIG    1       -2.826   9.036   5.668  0.00  0.00    -0.320 C 
ENDBRANCH  16  19
ENDBRANCH   1  15
TORSDOF 4
