REMARK  Name = ZINCnE000008J6rp.1
REMARK                            x       y       z     vdW  Elec       q    Type
REMARK                         _______ _______ _______ _____ _____    ______ ____
ROOT
ATOM      1  N   LIG    1       -1.193   7.844  -0.513  0.00  0.00    -0.560 N 
ATOM      2  H   LIG    1       -0.363   8.347  -0.512  0.00  0.00    +0.400 HD
ENDROOT
BRANCH   1   7
ATOM      3  C   LIG    1       -0.866  13.127   1.026  0.00  0.00    +0.150 C 
ATOM      4  C   LIG    1       -1.790  12.007   0.621  0.00  0.00    -0.180 A 
ATOM      5  C   LIG    1       -1.390  10.789   0.310  0.00  0.00    -0.070 A 
ATOM      6  C   LIG    1       -2.455   9.872  -0.049  0.00  0.00    -0.220 A 
ATOM      7  C   LIG    1       -2.405   8.508  -0.434  0.00  0.00    +0.510 A 
ATOM      8  N   LIG    1       -3.537   7.878  -0.712  0.00  0.00    -0.550 NA
ATOM      9  C   LIG    1       -4.700   8.498  -0.641  0.00  0.00    +0.560 A 
ATOM     10  N   LIG    1       -4.799   9.761  -0.295  0.00  0.00    -0.530 NA
ATOM     11  C   LIG    1       -3.712  10.482   0.004  0.00  0.00    +0.120 A 
ATOM     12  C   LIG    1        0.061  10.382   0.326  0.00  0.00    +0.120 C 
ATOM     13  S   LIG    1       -3.532  12.162   0.491  0.00  0.00    +0.160 S 
ENDBRANCH   1   7
BRANCH   1  14
ATOM     14  N   LIG    1       -1.164   6.445  -0.594  0.00  0.00    -0.230 NA
ATOM     15  C   LIG    1       -0.027   5.822  -0.668  0.00  0.00    +0.240 C 
BRANCH  15  16
ATOM     16  C   LIG    1        0.003   4.353  -0.753  0.00  0.00    -0.080 A 
ATOM     17  C   LIG    1        1.229   3.681  -0.833  0.00  0.00    +0.020 A 
ATOM     18  C   LIG    1        1.257   2.319  -0.913  0.00  0.00    +0.030 A 
ATOM     19  C   LIG    1        0.060   1.593  -0.915  0.00  0.00    -0.110 A 
ATOM     20  C   LIG    1       -1.166   2.265  -0.841  0.00  0.00    +0.030 A 
ATOM     21  C   LIG    1       -1.194   3.627  -0.755  0.00  0.00    +0.040 A 
BRANCH  19  22
ATOM     22  C   LIG    1        0.090   0.124  -1.000  0.00  0.00    +0.520 C 
ATOM     23  O   LIG    1       -0.957  -0.510  -1.002  0.00  0.00    -0.680 OA
ATOM     24  O   LIG    1        1.161  -0.463  -1.070  0.00  0.00    -0.690 OA
ENDBRANCH  19  22
ENDBRANCH  15  16
ENDBRANCH   1  14
TORSDOF 4
