REMARK  Name = ZINCnE000008J6rp.0
REMARK                            x       y       z     vdW  Elec       q    Type
REMARK                         _______ _______ _______ _____ _____    ______ ____
ROOT
ATOM      1  N   LIG    1        1.077   3.386   0.009  0.00  0.00    -0.210 NA
ATOM      2  N   LIG    1       -0.011   3.980   0.023  0.00  0.00    -0.130 NA
ENDROOT
BRANCH   1   7
ATOM      3  C   LIG    1        6.124   1.173  -0.051  0.00  0.00    +0.160 C 
ATOM      4  C   LIG    1        4.644   0.891  -0.038  0.00  0.00    -0.170 A 
ATOM      5  C   LIG    1        3.708   1.824  -0.024  0.00  0.00    -0.060 A 
ATOM      6  C   LIG    1        2.350   1.324  -0.013  0.00  0.00    -0.130 A 
ATOM      7  C   LIG    1        1.111   2.017   0.002  0.00  0.00    +0.360 A 
ATOM      8  N   LIG    1       -0.016   1.313   0.009  0.00  0.00    -0.510 NA
ATOM      9  C   LIG    1        0.002  -0.004   0.002  0.00  0.00    +0.530 A 
ATOM     10  N   LIG    1        1.123  -0.692  -0.012  0.00  0.00    -0.480 NA
ATOM     11  C   LIG    1        2.308  -0.079  -0.020  0.00  0.00    +0.090 A 
ATOM     12  C   LIG    1        4.031   3.296  -0.019  0.00  0.00    +0.130 C 
ATOM     13  S   LIG    1        3.945  -0.717  -0.039  0.00  0.00    +0.170 S 
ENDBRANCH   1   7
BRANCH   2  14
ATOM     14  C   LIG    1       -0.046   5.445   0.030  0.00  0.00    +0.250 C 
BRANCH  14  15
ATOM     15  C   LIG    1       -0.780   5.936  -1.191  0.00  0.00    -0.100 A 
ATOM     16  C   LIG    1       -0.081   6.194  -2.357  0.00  0.00    -0.010 A 
ATOM     17  C   LIG    1       -0.747   6.638  -3.480  0.00  0.00    +0.040 A 
ATOM     18  C   LIG    1       -2.129   6.839  -3.435  0.00  0.00    -0.120 A 
ATOM     19  C   LIG    1       -2.827   6.582  -2.252  0.00  0.00    +0.040 A 
ATOM     20  C   LIG    1       -2.149   6.132  -1.139  0.00  0.00    +0.010 A 
BRANCH  18  21
ATOM     21  C   LIG    1       -2.847   7.321  -4.630  0.00  0.00    +0.520 C 
ATOM     22  O   LIG    1       -2.233   7.545  -5.664  0.00  0.00    -0.690 OA
ATOM     23  O   LIG    1       -4.057   7.496  -4.588  0.00  0.00    -0.680 OA
ENDBRANCH  18  21
ENDBRANCH  14  15
ENDBRANCH   2  14
TORSDOF 4
