REMARK  Name = ZINCrH000004mdoQ.0
REMARK                            x       y       z     vdW  Elec       q    Type
REMARK                         _______ _______ _______ _____ _____    ______ ____
ROOT
ATOM      1  N   LIG    1       -2.585   0.962  -0.092  0.00  0.00    -0.660 N 
ATOM      2  H   LIG    1       -3.424   1.433  -0.217  0.00  0.00    +0.420 HD
ATOM      3  C   LIG    1       -2.580  -0.377   0.065  0.00  0.00    +0.610 C 
ATOM      4  O   LIG    1       -1.542  -0.955   0.320  0.00  0.00    -0.510 OA
ENDROOT
BRANCH   1   7
ATOM      5  C   LIG    1        0.963   1.806  -0.586  0.00  0.00    +0.120 A 
ATOM      6  C   LIG    1       -0.230   1.104  -0.609  0.00  0.00    -0.050 A 
ATOM      7  C   LIG    1       -1.379   1.673  -0.075  0.00  0.00    +0.170 A 
ATOM      8  C   LIG    1       -1.334   2.949   0.472  0.00  0.00    -0.030 A 
ATOM      9  C   LIG    1       -0.144   3.650   0.496  0.00  0.00    +0.090 A 
ATOM     10  C   LIG    1        1.007   3.083  -0.032  0.00  0.00    +0.100 A 
BRANCH  10  11
ATOM     11  N   LIG    1        2.215   3.796  -0.007  0.00  0.00    -0.660 N 
ATOM     12  H   LIG    1        2.904   3.604  -0.662  0.00  0.00    +0.420 HD
ATOM     13  C   LIG    1        2.417   4.748   0.925  0.00  0.00    +0.510 C 
ATOM     14  O   LIG    1        1.528   5.039   1.697  0.00  0.00    -0.530 OA
ATOM     15  C   LIG    1        3.748   5.449   1.010  0.00  0.00    +0.110 C 
ENDBRANCH  10  11
BRANCH   5  17
ATOM     16  C   LIG    1        1.970  -0.064  -1.655  0.00  0.00    +0.240 C 
ATOM     17  O   LIG    1        2.090   1.249  -1.104  0.00  0.00    -0.320 OA
ENDBRANCH   5  17
ENDBRANCH   1   7
BRANCH   3  18
ATOM     18  C   LIG    1       -3.837  -1.141  -0.071  0.00  0.00    -0.020 A 
ATOM     19  N   LIG    1       -5.029  -0.648  -0.344  0.00  0.00    -0.250 NA
ATOM     20  N   LIG    1       -5.897  -1.594  -0.390  0.00  0.00    -0.260 N 
ATOM     21  C   LIG    1       -5.305  -2.783  -0.144  0.00  0.00    +0.060 A 
ATOM     22  C   LIG    1       -3.989  -2.542   0.059  0.00  0.00    -0.020 A 
BRANCH  20  23
ATOM     23  C   LIG    1       -7.323  -1.409  -0.668  0.00  0.00    +0.170 C 
ATOM     24  C   LIG    1       -8.144  -1.913   0.521  0.00  0.00    +0.060 C 
ATOM     25  C   LIG    1       -7.705  -2.199  -1.921  0.00  0.00    +0.060 C 
ATOM     26  C   LIG    1       -7.611   0.076  -0.894  0.00  0.00    +0.070 C 
ENDBRANCH  20  23
BRANCH  21  27
ATOM     27  C   LIG    1       -5.983  -4.128  -0.108  0.00  0.00    +0.010 C 
ATOM     28  C   LIG    1       -5.447  -5.164   0.881  0.00  0.00    +0.040 C 
ATOM     29  C   LIG    1       -5.190  -5.333  -0.619  0.00  0.00    +0.040 C 
ENDBRANCH  21  27
ENDBRANCH   3  18
TORSDOF 6
