REMARK  Name = ZINCtV000002q4vn.0
REMARK                            x       y       z     vdW  Elec       q    Type
REMARK                         _______ _______ _______ _____ _____    ______ ____
ROOT
ATOM      1  C   LIG    1       -1.717  -1.061   1.258  0.00  0.00    +0.270 A 
ATOM      2  N   LIG    1       -2.865  -1.642   1.413  0.00  0.00    -0.460 NA
ATOM      3  C   LIG    1       -3.239  -1.907   2.651  0.00  0.00    +0.100 A 
ATOM      4  C   LIG    1       -2.365  -1.531   3.587  0.00  0.00    -0.060 A 
ATOM      5  S   LIG    1       -0.981  -0.799   2.779  0.00  0.00    +0.160 S 
ENDROOT
BRANCH   1   8
ATOM      6  C   LIG    1       -1.121  -0.778  -2.439  0.00  0.00    +0.110 C 
ATOM      7  C   LIG    1       -1.778  -1.058  -1.113  0.00  0.00    +0.510 C 
ATOM      8  N   LIG    1       -1.162  -0.708   0.033  0.00  0.00    -0.480 N 
ATOM      9  O   LIG    1       -2.863  -1.600  -1.077  0.00  0.00    -0.460 OA
BRANCH   8  10
ATOM     10  C   LIG    1        0.039   0.014  -0.010  0.00  0.00    +0.060 A 
ATOM     11  C   LIG    1        1.253  -0.657  -0.049  0.00  0.00    +0.070 A 
ATOM     12  C   LIG    1        2.436   0.056  -0.092  0.00  0.00    +0.020 A 
ATOM     13  C   LIG    1        2.412   1.438  -0.096  0.00  0.00    +0.070 A 
ATOM     14  C   LIG    1        1.204   2.112  -0.058  0.00  0.00    +0.000 A 
ATOM     15  C   LIG    1        0.017   1.405  -0.015  0.00  0.00    +0.120 A 
ATOM     16  F   LIG    1       -1.162   2.063   0.018  0.00  0.00    -0.120 F 
ENDBRANCH   8  10
ENDBRANCH   1   8
BRANCH   3  17
ATOM     17  C   LIG    1       -4.547  -2.579   2.981  0.00  0.00    +0.180 C 
BRANCH  17  18
ATOM     18  S   LIG    1       -4.310  -4.378   3.015  0.00  0.00    -0.060 S 
BRANCH  18  19
ATOM     19  C   LIG    1       -5.918  -4.981   3.410  0.00  0.00    -0.090 A 
ATOM     20  C   LIG    1       -6.966  -4.091   3.610  0.00  0.00    +0.050 A 
ATOM     21  C   LIG    1       -8.226  -4.568   3.912  0.00  0.00    +0.060 A 
ATOM     22  C   LIG    1       -8.443  -5.929   4.029  0.00  0.00    -0.000 A 
ATOM     23  C   LIG    1       -7.400  -6.818   3.836  0.00  0.00    -0.160 A 
ATOM     24 CL   LIG    1      -10.027  -6.524   4.417  0.00  0.00    -0.040 Cl
ATOM     25  C   LIG    1       -6.139  -6.348   3.527  0.00  0.00    +0.110 A 
BRANCH  23  26
ATOM     26  C   LIG    1       -7.640  -8.300   3.964  0.00  0.00    +0.510 C 
ATOM     27  F   LIG    1       -8.602  -8.699   3.029  0.00  0.00    -0.170 F 
ATOM     28  F   LIG    1       -8.097  -8.590   5.254  0.00  0.00    -0.170 F 
ATOM     29  F   LIG    1       -6.446  -8.989   3.727  0.00  0.00    -0.170 F 
ENDBRANCH  23  26
ENDBRANCH  18  19
ENDBRANCH  17  18
ENDBRANCH   3  17
TORSDOF 6
