REMARK  Name = ZINCqH0000038c20.0
REMARK                            x       y       z     vdW  Elec       q    Type
REMARK                         _______ _______ _______ _____ _____    ______ ____
ROOT
ATOM      1  C   LIG    1       -1.419  -2.027   0.009  0.00  0.00    +0.520 C 
ATOM      2  N   LIG    1       -2.569  -2.722   0.117  0.00  0.00    -0.550 N 
ATOM      3  C   LIG    1       -3.863  -2.027   0.135  0.00  0.00    +0.280 C 
ATOM      4  C   LIG    1       -4.716  -2.643   1.246  0.00  0.00    +0.060 C 
ATOM      5  C   LIG    1       -4.975  -4.113   0.918  0.00  0.00    +0.050 C 
ATOM      6  C   LIG    1       -3.682  -4.819   0.606  0.00  0.00    -0.110 A 
ATOM      7  C   LIG    1       -3.632  -6.200   0.705  0.00  0.00    +0.030 A 
ATOM      8  C   LIG    1       -2.463  -6.877   0.417  0.00  0.00    -0.020 A 
ATOM      9  C   LIG    1       -1.334  -6.180   0.028  0.00  0.00    +0.030 A 
ATOM     10  C   LIG    1       -1.375  -4.804  -0.071  0.00  0.00    +0.020 A 
ATOM     11  C   LIG    1       -2.550  -4.120   0.220  0.00  0.00    +0.160 A 
ATOM     12  O   LIG    1       -0.360  -2.614  -0.064  0.00  0.00    -0.510 OA
ENDROOT
BRANCH   5  13
ATOM     13  C   LIG    1       -5.632  -4.778   2.100  0.00  0.00    +0.530 C 
ATOM     14  O   LIG    1       -5.452  -4.343   3.217  0.00  0.00    -0.530 OA
ATOM     15  N   LIG    1       -6.421  -5.855   1.915  0.00  0.00    -0.860 N 
ATOM     16  H   LIG    1       -6.785  -6.327   2.680  0.00  0.00    +0.400 HD
ATOM     17  H   LIG    1       -6.624  -6.159   1.016  0.00  0.00    +0.400 HD
ENDBRANCH   5  13
BRANCH   1  18
ATOM     18  C   LIG    1       -1.450  -0.520  -0.019  0.00  0.00    +0.100 C 
BRANCH  18  19
ATOM     19  C   LIG    1       -0.018   0.019  -0.021  0.00  0.00    +0.100 C 
BRANCH  19  20
ATOM     20  S   LIG    1       -0.054   1.832  -0.055  0.00  0.00    -0.110 S 
BRANCH  20  25
ATOM     21  C   LIG    1        5.799   3.308  -0.048  0.00  0.00    +0.090 C 
ATOM     22  C   LIG    1        4.337   2.940  -0.050  0.00  0.00    -0.090 A 
ATOM     23  C   LIG    1        3.962   1.609  -0.027  0.00  0.00    +0.030 A 
ATOM     24  C   LIG    1        2.623   1.268  -0.029  0.00  0.00    +0.000 A 
ATOM     25  C   LIG    1        1.654   2.263  -0.053  0.00  0.00    -0.080 A 
ATOM     26  C   LIG    1        2.036   3.599  -0.082  0.00  0.00    +0.030 A 
ATOM     27  C   LIG    1        3.375   3.933  -0.075  0.00  0.00    -0.070 A 
ATOM     28  C   LIG    1        3.790   5.382  -0.101  0.00  0.00    +0.090 C 
ENDBRANCH  20  25
ENDBRANCH  19  20
ENDBRANCH  18  19
ENDBRANCH   1  18
TORSDOF 5
