REMARK  Name = ZINCnE000001RPl8.0
REMARK                            x       y       z     vdW  Elec       q    Type
REMARK                         _______ _______ _______ _____ _____    ______ ____
ROOT
ATOM      1  C   LIG    1       -0.116   7.577  -1.595  0.00  0.00    +0.190 A 
ATOM      2  C   LIG    1       -0.124   8.469  -0.540  0.00  0.00    +0.010 A 
ATOM      3  C   LIG    1       -0.141   9.845  -0.793  0.00  0.00    -0.110 A 
ATOM      4  C   LIG    1       -0.159  10.310  -2.112  0.00  0.00    +0.030 A 
ATOM      5  C   LIG    1       -0.157   9.414  -3.159  0.00  0.00    -0.040 A 
ATOM      6  C   LIG    1       -0.135   8.049  -2.909  0.00  0.00    +0.020 A 
ENDROOT
BRANCH   3   7
ATOM      7  C   LIG    1       -0.145  10.802   0.327  0.00  0.00    +0.520 C 
ATOM      8  O   LIG    1       -0.129  10.394   1.480  0.00  0.00    -0.690 OA
ATOM      9  O   LIG    1       -0.165  12.005   0.103  0.00  0.00    -0.690 OA
ENDBRANCH   3   7
BRANCH   1  10
ATOM     10  N   LIG    1       -0.095   6.199  -1.346  0.00  0.00    -0.750 N 
ATOM     11  H   LIG    1       -0.093   5.572  -2.087  0.00  0.00    +0.400 HD
BRANCH  10  12
ATOM     12  C   LIG    1       -0.075   5.704   0.033  0.00  0.00    +0.300 C 
BRANCH  12  16
ATOM     13  C   LIG    1       -0.017   1.428   0.010  0.00  0.00    -0.030 A 
ATOM     14  C   LIG    1       -1.234   2.113   0.019  0.00  0.00    +0.060 A 
ATOM     15  C   LIG    1       -1.246   3.492   0.032  0.00  0.00    +0.040 A 
ATOM     16  C   LIG    1       -0.055   4.197   0.025  0.00  0.00    -0.070 A 
ATOM     17  C   LIG    1        1.154   3.525   0.010  0.00  0.00    +0.040 A 
ATOM     18  C   LIG    1        1.180   2.146   0.002  0.00  0.00    +0.060 A 
BRANCH  13  20
ATOM     19  N   LIG    1        0.018  -1.140  -0.004  0.00  0.00    -0.420 NA
ATOM     20  C   LIG    1        0.002  -0.004   0.002  0.00  0.00    +0.260 C 
ENDBRANCH  13  20
ENDBRANCH  12  16
ENDBRANCH  10  12
ENDBRANCH   1  10
BRANCH   6  21
ATOM     21  O   LIG    1       -0.132   7.171  -3.944  0.00  0.00    -0.330 OA
BRANCH  21  22
ATOM     22  C   LIG    1       -0.152   7.722  -5.262  0.00  0.00    +0.580 C 
ATOM     23  F   LIG    1        0.978   8.526  -5.449  0.00  0.00    -0.200 F 
ATOM     24  F   LIG    1       -1.306   8.495  -5.428  0.00  0.00    -0.200 F 
ENDBRANCH  21  22
ENDBRANCH   6  21
TORSDOF 7
