REMARK  Name = ZINCpk00000xIfBk.0
REMARK                            x       y       z     vdW  Elec       q    Type
REMARK                         _______ _______ _______ _____ _____    ______ ____
ROOT
ATOM      1  C   LIG    1       -1.185   6.389   0.024  0.00  0.00    +0.290 C 
ENDROOT
BRANCH   1   2
ATOM      2  C   LIG    1       -0.837   7.879   0.023  0.00  0.00    -0.010 C 
ATOM      3  C   LIG    1       -0.281   8.319   1.397  0.00  0.00    +0.070 C 
ATOM      4  C   LIG    1       -0.843   9.709   1.598  0.00  0.00    +0.520 C 
ATOM      5  N   LIG    1       -1.863   9.922   0.748  0.00  0.00    -0.620 N 
ATOM      6  C   LIG    1       -2.627  11.169   0.671  0.00  0.00    +0.300 C 
ATOM      7  O   LIG    1       -0.435  10.513   2.409  0.00  0.00    -0.520 OA
ATOM      8  C   LIG    1       -2.111   8.745  -0.092  0.00  0.00    +0.280 C 
BRANCH   8   9
ATOM      9  C   LIG    1       -2.331   9.161  -1.524  0.00  0.00    -0.060 A 
ATOM     10  C   LIG    1       -1.628  10.225  -2.070  0.00  0.00    -0.030 A 
ATOM     11  C   LIG    1       -1.853  10.574  -3.388  0.00  0.00    +0.260 A 
ATOM     12  N   LIG    1       -2.730   9.916  -4.120  0.00  0.00    -0.480 NA
ATOM     13  C   LIG    1       -3.420   8.904  -3.633  0.00  0.00    +0.260 A 
ATOM     14  C   LIG    1       -3.244   8.493  -2.325  0.00  0.00    -0.020 A 
ENDBRANCH   8   9
ENDBRANCH   1   2
BRANCH   1  16
ATOM     15  C   LIG    1       -0.012   4.253   0.013  0.00  0.00    +0.570 C 
ATOM     16  N   LIG    1        0.049   5.600   0.014  0.00  0.00    -0.730 N 
ATOM     17  H   LIG    1        0.911   6.046   0.008  0.00  0.00    +0.400 HD
ATOM     18  O   LIG    1       -1.092   3.694   0.020  0.00  0.00    -0.510 OA
BRANCH  15  24
ATOM     19  C   LIG    1        1.181   2.056   0.002  0.00  0.00    +0.370 A 
ATOM     20  N   LIG    1        2.297   1.347  -0.013  0.00  0.00    -0.540 NA
ATOM     21  C   LIG    1        3.485   1.921  -0.021  0.00  0.00    +0.340 A 
ATOM     22  C   LIG    1        3.615   3.298  -0.016  0.00  0.00    -0.070 A 
ATOM     23  C   LIG    1        2.480   4.089  -0.001  0.00  0.00    +0.130 A 
ATOM     24  C   LIG    1        1.230   3.458   0.003  0.00  0.00    -0.220 A 
BRANCH  19  26
ATOM     25  C   LIG    1        0.002  -0.004   0.002  0.00  0.00    +0.250 C 
ATOM     26  O   LIG    1       -0.017   1.425   0.010  0.00  0.00    -0.270 OA
ENDBRANCH  19  26
ENDBRANCH  15  24
ENDBRANCH   1  16
TORSDOF 5
