REMARK  Name = ZINCkj000005j7r8.0
REMARK                            x       y       z     vdW  Elec       q    Type
REMARK                         _______ _______ _______ _____ _____    ______ ____
ROOT
ATOM      1  C   LIG    1       -0.729   1.579   1.268  0.00  0.00    -0.030 C 
ATOM      2  C   LIG    1       -0.013   1.086   0.008  0.00  0.00    +0.020 C 
ATOM      3  C   LIG    1       -0.752   1.593  -1.232  0.00  0.00    +0.040 C 
ATOM      4  C   LIG    1       -2.178   1.033  -1.236  0.00  0.00    +0.300 C 
ATOM      5  N   LIG    1       -2.826   1.380   0.037  0.00  0.00    -1.000 NA
ATOM      6  C   LIG    1       -2.154   1.019   1.293  0.00  0.00    +0.320 C 
ENDROOT
BRANCH   5   7
ATOM      7  S   LIG    1       -4.284   2.164   0.055  0.00  0.00    +2.690 S 
ATOM      8  O   LIG    1       -4.392   2.840  -1.190  0.00  0.00    -0.940 OA
ATOM      9  O   LIG    1       -4.368   2.826   1.309  0.00  0.00    -0.950 OA
BRANCH   7  10
ATOM     10  C   LIG    1       -5.540   0.928   0.060  0.00  0.00    -0.660 A 
ATOM     11  C   LIG    1       -6.047   0.456  -1.138  0.00  0.00    +0.130 A 
ATOM     12  C   LIG    1       -7.027  -0.515  -1.141  0.00  0.00    +0.060 A 
ATOM     13  C   LIG    1       -7.515  -1.014   0.068  0.00  0.00    +0.040 A 
ATOM     14  C   LIG    1       -7.003  -0.529   1.274  0.00  0.00    +0.060 A 
ATOM     15  C   LIG    1       -6.020   0.438   1.262  0.00  0.00    +0.130 A 
BRANCH  13  16
ATOM     16  C   LIG    1       -8.536  -2.018   0.073  0.00  0.00    +0.230 C 
ATOM     17  N   LIG    1       -9.346  -2.814   0.076  0.00  0.00    -0.380 NA
ENDBRANCH  13  16
ENDBRANCH   7  10
ENDBRANCH   5   7
BRANCH   1  19
ATOM     18  C   LIG    1        0.188  -0.421   2.451  0.00  0.00    +0.100 C 
ATOM     19  C   LIG    1        0.030   1.099   2.507  0.00  0.00    +0.180 C 
BRANCH  19  20
ATOM     20  N   LIG    1        1.357   1.729   2.543  0.00  0.00    -0.640 N 
ATOM     21  H   LIG    1        1.872   1.474   1.714  0.00  0.00    +0.430 HD
ATOM     22  H   LIG    1        1.857   1.412   3.360  0.00  0.00    +0.440 HD
ATOM     23  H   LIG    1        1.253   2.732   2.579  0.00  0.00    +0.440 HD
ENDBRANCH  19  20
ENDBRANCH   1  19
TORSDOF 5
