REMARK  Name = ZINCrD00000F5LEb.0
REMARK                            x       y       z     vdW  Elec       q    Type
REMARK                         _______ _______ _______ _____ _____    ______ ____
ROOT
ATOM      1  C   LIG    1       -3.122   1.313   3.907  0.00  0.00    +0.450 C 
ATOM      2  O   LIG    1       -3.742   0.276   3.798  0.00  0.00    -0.460 OA
ENDROOT
BRANCH   1   6
ATOM      3  C   LIG    1        0.623   3.731   1.439  0.00  0.00    +0.120 C 
ATOM      4  C   LIG    1       -0.424   2.731   1.856  0.00  0.00    +0.000 A 
ATOM      5  C   LIG    1       -1.238   2.853   2.918  0.00  0.00    +0.000 A 
ATOM      6  C   LIG    1       -2.079   1.648   2.935  0.00  0.00    -0.270 A 
ATOM      7  C   LIG    1       -1.683   0.895   1.845  0.00  0.00    +0.140 A 
ATOM      8  C   LIG    1       -2.255  -0.438   1.437  0.00  0.00    +0.160 C 
ATOM      9  N   LIG    1       -0.698   1.558   1.213  0.00  0.00    -0.430 N 
BRANCH   9  10
ATOM     10  C   LIG    1       -0.013   1.086   0.008  0.00  0.00    +0.310 C 
BRANCH  10  11
ATOM     11  C   LIG    1       -0.753   1.593  -1.232  0.00  0.00    +0.140 C 
ATOM     12  C   LIG    1        0.007   1.180  -2.518  0.00  0.00    +0.020 C 
ATOM     13  C   LIG    1       -1.149   1.185  -3.556  0.00  0.00    +0.020 C 
ATOM     14  C   LIG    1       -2.352   0.714  -2.711  0.00  0.00    +0.190 C 
ATOM     15  O   LIG    1       -2.040   0.964  -1.336  0.00  0.00    -0.370 OA
ENDBRANCH  10  11
ENDBRANCH   9  10
ENDBRANCH   1   6
BRANCH   1  16
ATOM     16  C   LIG    1       -3.425   2.257   5.042  0.00  0.00    +0.090 C 
BRANCH  16  17
ATOM     17  S   LIG    1       -4.755   1.567   6.064  0.00  0.00    +0.090 S 
BRANCH  17  18
ATOM     18  C   LIG    1       -4.967   2.788   7.317  0.00  0.00    +0.180 A 
ATOM     19  N   LIG    1       -4.293   3.912   7.431  0.00  0.00    -0.260 NA
ATOM     20  N   LIG    1       -4.700   4.573   8.458  0.00  0.00    -0.230 NA
ATOM     21  C   LIG    1       -5.664   3.903   9.062  0.00  0.00    +0.140 A 
ATOM     22  C   LIG    1       -6.454   4.143  10.202  0.00  0.00    +0.200 A 
ATOM     23  C   LIG    1       -7.388   3.223  10.564  0.00  0.00    +0.020 A 
ATOM     24  C   LIG    1       -7.556   2.051   9.808  0.00  0.00    +0.210 A 
ATOM     25  N   LIG    1       -6.827   1.823   8.748  0.00  0.00    -0.230 NA
ATOM     26 CL   LIG    1       -8.754   0.890  10.287  0.00  0.00    +0.040 Cl
ATOM     27  N   LIG    1       -5.861   2.744   8.339  0.00  0.00    -0.280 N 
ENDBRANCH  17  18
ENDBRANCH  16  17
ENDBRANCH   1  16
TORSDOF 6
