REMARK  Name = ZINCqH0000008IUM.0
REMARK                            x       y       z     vdW  Elec       q    Type
REMARK                         _______ _______ _______ _____ _____    ______ ____
ROOT
ATOM      1  C   LIG    1        3.627   3.022   0.999  0.00  0.00    +0.040 C 
ATOM      2  C   LIG    1        3.345   1.526   1.150  0.00  0.00    -0.010 C 
ATOM      3  C   LIG    1        4.668   0.756   1.193  0.00  0.00    +0.300 C 
ATOM      4  N   LIG    1        5.340   0.896  -0.106  0.00  0.00    -0.570 N 
ATOM      5  C   LIG    1        4.599   0.542  -1.325  0.00  0.00    +0.290 C 
ATOM      6  C   LIG    1        3.276   1.314  -1.340  0.00  0.00    +0.040 C 
ATOM      7  C   LIG    1        2.515   1.040  -0.041  0.00  0.00    +0.040 C 
ENDROOT
BRANCH   4   8
ATOM      8  C   LIG    1        6.651   1.355  -0.181  0.00  0.00    +0.430 A 
ATOM      9  N   LIG    1        7.329   1.560   0.923  0.00  0.00    -0.340 NA
ATOM     10  N   LIG    1        8.647   2.020   0.870  0.00  0.00    -0.240 N 
ATOM     11  C   LIG    1        9.243   2.261  -0.343  0.00  0.00    +0.150 A 
ATOM     12  C   LIG    1        8.514   2.039  -1.527  0.00  0.00    +0.190 A 
ATOM     13  N   LIG    1       10.472   2.682  -0.089  0.00  0.00    -0.230 NA
ATOM     14  N   LIG    1       10.656   2.711   1.185  0.00  0.00    -0.200 NA
ATOM     15  C   LIG    1        9.572   2.317   1.807  0.00  0.00    +0.100 A 
ATOM     16  C   LIG    1        7.235   1.587  -1.442  0.00  0.00    +0.000 A 
BRANCH  15  17
ATOM     17  C   LIG    1        9.391   2.215   3.300  0.00  0.00    +0.580 C 
ATOM     18  F   LIG    1        9.433   0.870   3.683  0.00  0.00    -0.160 F 
ATOM     19  F   LIG    1        8.155   2.763   3.658  0.00  0.00    -0.160 F 
ATOM     20  F   LIG    1       10.417   2.915   3.943  0.00  0.00    -0.150 F 
ENDBRANCH  15  17
ENDBRANCH   4   8
BRANCH   7  21
ATOM     21  C   LIG    1        1.198   1.770  -0.067  0.00  0.00    -0.080 A 
ATOM     22  C   LIG    1        0.045   1.133   0.353  0.00  0.00    +0.000 A 
ATOM     23  C   LIG    1       -1.164   1.801   0.325  0.00  0.00    +0.000 A 
ATOM     24  C   LIG    1       -1.220   3.110  -0.116  0.00  0.00    +0.000 A 
ATOM     25  C   LIG    1       -0.068   3.748  -0.535  0.00  0.00    +0.000 A 
ATOM     26  C   LIG    1        1.141   3.078  -0.511  0.00  0.00    +0.010 A 
ENDBRANCH   7  21
TORSDOF 3
