REMARK  Name = ZINCb80000002BhU.0
REMARK                            x       y       z     vdW  Elec       q    Type
REMARK                         _______ _______ _______ _____ _____    ______ ____
ROOT
ATOM      1  C   LIG    1       -2.013   2.464   3.524  0.00  0.00    +0.210 A 
ATOM      2  C   LIG    1       -2.503   2.799   2.269  0.00  0.00    -0.080 A 
ATOM      3  C   LIG    1       -1.854   2.352   1.134  0.00  0.00    +0.080 A 
ATOM      4  C   LIG    1       -0.718   1.572   1.248  0.00  0.00    -0.150 A 
ATOM      5  C   LIG    1       -0.231   1.232   2.497  0.00  0.00    -0.040 A 
ATOM      6  C   LIG    1       -0.872   1.680   3.635  0.00  0.00    -0.040 A 
ENDROOT
BRANCH   1   7
ATOM      7  N   LIG    1       -2.667   2.914   4.674  0.00  0.00    -0.880 N 
ATOM      8  H   LIG    1       -2.324   2.680   5.550  0.00  0.00    +0.400 HD
ATOM      9  H   LIG    1       -3.464   3.461   4.595  0.00  0.00    +0.400 HD
ENDBRANCH   1   7
BRANCH   5  10
ATOM     10  C   LIG    1        1.004   0.376   2.616  0.00  0.00    +0.230 C 
BRANCH  10  11
ATOM     11  O   LIG    1        1.305   0.164   3.997  0.00  0.00    -0.570 OA
ATOM     12  H   LIG    1        2.090  -0.380   4.149  0.00  0.00    +0.380 HD
ENDBRANCH  10  11
ENDBRANCH   5  10
BRANCH   4  13
ATOM     13  C   LIG    1       -0.013   1.086   0.008  0.00  0.00    +0.220 C 
BRANCH  13  14
ATOM     14  O   LIG    1       -0.704   1.559  -1.150  0.00  0.00    -0.570 OA
ATOM     15  H   LIG    1       -0.304   1.284  -1.986  0.00  0.00    +0.380 HD
ENDBRANCH  13  14
ENDBRANCH   4  13
TORSDOF 5
