REMARK  Name = ZINCrD0000075HJZ.0
REMARK                            x       y       z     vdW  Elec       q    Type
REMARK                         _______ _______ _______ _____ _____    ______ ____
ROOT
ATOM      1  O   LIG    1       -1.562  -2.302   1.289  0.00  0.00    -0.580 OA
ATOM      2  C   LIG    1       -2.406  -1.714   0.640  0.00  0.00    +0.710 C 
ATOM      3  N   LIG    1       -2.829  -2.224  -0.534  0.00  0.00    -0.730 N 
ATOM      4  H   LIG    1       -3.502  -1.756  -1.052  0.00  0.00    +0.410 HD
ATOM      5  N   LIG    1       -2.918  -0.554   1.094  0.00  0.00    -0.730 N 
ATOM      6  H   LIG    1       -3.592  -0.085   0.577  0.00  0.00    +0.400 HD
ENDROOT
BRANCH   5   7
ATOM      7  C   LIG    1       -2.458   0.000   2.370  0.00  0.00    +0.300 C 
ATOM      8  C   LIG    1       -3.515   0.967   2.946  0.00  0.00    +0.050 C 
ATOM      9  C   LIG    1       -2.639   2.036   3.640  0.00  0.00    +0.090 C 
ATOM     10  C   LIG    1       -1.325   2.016   2.889  0.00  0.00    -0.090 A 
ATOM     11  C   LIG    1       -0.303   2.949   2.844  0.00  0.00    +0.010 A 
ATOM     12  C   LIG    1        0.821   2.713   2.076  0.00  0.00    +0.010 A 
ATOM     13  C   LIG    1        0.927   1.541   1.351  0.00  0.00    +0.000 A 
ATOM     14  C   LIG    1       -0.091   0.609   1.395  0.00  0.00    +0.040 A 
ATOM     15  C   LIG    1       -1.221   0.846   2.160  0.00  0.00    -0.110 A 
ENDBRANCH   5   7
BRANCH   3  16
ATOM     16  C   LIG    1       -2.272  -3.486  -1.028  0.00  0.00    +0.320 C 
BRANCH  16  17
ATOM     17  C   LIG    1       -3.262  -4.144  -1.954  0.00  0.00    +0.530 C 
ATOM     18  N   LIG    1       -3.240  -5.481  -2.124  0.00  0.00    -0.610 N 
ATOM     19  C   LIG    1       -4.078  -6.239  -3.065  0.00  0.00    +0.250 C 
ATOM     20  C   LIG    1       -3.726  -7.731  -2.892  0.00  0.00    +0.040 C 
ATOM     21  C   LIG    1       -3.125  -7.781  -1.463  0.00  0.00    +0.040 C 
ATOM     22  C   LIG    1       -2.378  -6.426  -1.392  0.00  0.00    +0.250 C 
ATOM     23  O   LIG    1       -4.077  -3.470  -2.547  0.00  0.00    -0.530 OA
ENDBRANCH  16  17
BRANCH  16  24
ATOM     24  C   LIG    1       -0.991  -3.212  -1.774  0.00  0.00    -0.100 A 
ATOM     25  C   LIG    1       -0.940  -2.194  -2.708  0.00  0.00    +0.030 A 
ATOM     26  C   LIG    1        0.236  -1.940  -3.389  0.00  0.00    +0.000 A 
ATOM     27  C   LIG    1        1.358  -2.709  -3.142  0.00  0.00    +0.010 A 
ATOM     28  C   LIG    1        1.305  -3.730  -2.212  0.00  0.00    +0.010 A 
ATOM     29  C   LIG    1        0.130  -3.982  -1.528  0.00  0.00    +0.030 A 
ENDBRANCH  16  24
ENDBRANCH   3  16
TORSDOF 4
