REMARK  Name = ZINCpe00000gLH0V.0
REMARK                            x       y       z     vdW  Elec       q    Type
REMARK                         _______ _______ _______ _____ _____    ______ ____
ROOT
ATOM      1  C   LIG    1       -1.586   3.232   3.776  0.00  0.00    +0.540 C 
ATOM      2  N   LIG    1       -1.770   2.268   2.853  0.00  0.00    -0.610 N 
ATOM      3  C   LIG    1       -1.421   0.869   3.143  0.00  0.00    +0.290 C 
ATOM      4  C   LIG    1       -0.534   0.343   2.010  0.00  0.00    +0.170 C 
ATOM      5  N   LIG    1       -1.208   0.561   0.723  0.00  0.00    -0.530 NA
ATOM      6  C   LIG    1       -1.401   1.993   0.459  0.00  0.00    +0.170 C 
ATOM      7  C   LIG    1       -2.324   2.586   1.528  0.00  0.00    +0.280 C 
ATOM      8  O   LIG    1       -1.209   2.941   4.891  0.00  0.00    -0.520 OA
ENDROOT
BRANCH   1  16
ATOM      9  C   LIG    1       -4.926   4.886   5.709  0.00  0.00    +0.110 C 
ATOM     10  C   LIG    1       -3.717   4.357   4.981  0.00  0.00    +0.510 C 
ATOM     11  N   LIG    1       -2.966   5.186   4.231  0.00  0.00    -0.610 N 
ATOM     12  C   LIG    1       -3.239   6.632   4.195  0.00  0.00    +0.260 C 
ATOM     13  C   LIG    1       -1.927   7.378   4.464  0.00  0.00    +0.210 C 
ATOM     14  O   LIG    1       -0.921   6.900   3.567  0.00  0.00    -0.370 OA
ATOM     15  C   LIG    1       -0.604   5.515   3.728  0.00  0.00    +0.240 C 
ATOM     16  C   LIG    1       -1.848   4.673   3.422  0.00  0.00    +0.180 C 
ATOM     17  O   LIG    1       -3.421   3.184   5.071  0.00  0.00    -0.500 OA
ENDBRANCH   1  16
BRANCH   5  18
ATOM     18  C   LIG    1       -0.470  -0.082  -0.373  0.00  0.00    +0.220 C 
BRANCH  18  19
ATOM     19  C   LIG    1       -1.283  -0.003  -1.639  0.00  0.00    -0.090 A 
ATOM     20  C   LIG    1       -0.953   0.917  -2.616  0.00  0.00    +0.010 A 
ATOM     21  C   LIG    1       -1.696   0.987  -3.780  0.00  0.00    -0.010 A 
ATOM     22  C   LIG    1       -2.774   0.142  -3.963  0.00  0.00    +0.010 A 
ATOM     23  C   LIG    1       -3.108  -0.775  -2.983  0.00  0.00    +0.000 A 
ATOM     24  C   LIG    1       -2.362  -0.848  -1.821  0.00  0.00    -0.060 A 
ATOM     25  C   LIG    1       -2.726  -1.847  -0.754  0.00  0.00    +0.090 C 
ENDBRANCH  18  19
ENDBRANCH   5  18
TORSDOF 3
