REMARK  Name = ZINCrD000006E9GD.0
REMARK                            x       y       z     vdW  Elec       q    Type
REMARK                         _______ _______ _______ _____ _____    ______ ____
ROOT
ATOM      1  N   LIG    1       -0.706   1.976   1.219  0.00  0.00    -0.370 N 
ATOM      2  C   LIG    1       -2.077   1.501   1.178  0.00  0.00    +0.240 C 
ATOM      3  C   LIG    1       -2.766   1.694   2.533  0.00  0.00    +0.110 C 
ATOM      4  C   LIG    1       -3.328   3.101   2.579  0.00  0.00    -0.120 A 
ATOM      5  C   LIG    1       -4.699   3.293   2.556  0.00  0.00    +0.000 A 
ATOM      6  C   LIG    1       -5.213   4.573   2.598  0.00  0.00    +0.060 A 
ATOM      7  C   LIG    1       -4.349   5.669   2.664  0.00  0.00    -0.120 A 
ATOM      8  C   LIG    1       -2.966   5.462   2.687  0.00  0.00    +0.060 A 
ATOM      9  C   LIG    1       -2.472   4.175   2.645  0.00  0.00    -0.130 A 
ATOM     10  C   LIG    1       -0.975   3.944   2.671  0.00  0.00    +0.120 C 
ATOM     11  C   LIG    1       -0.547   3.418   1.297  0.00  0.00    +0.250 C 
ATOM     12  H   LIG    1       -0.252   1.565   2.021  0.00  0.00    +0.410 HD
ENDROOT
BRANCH   7  13
ATOM     13  C   LIG    1       -4.894   7.040   2.709  0.00  0.00    +0.510 C 
ATOM     14  O   LIG    1       -4.136   7.997   2.767  0.00  0.00    -0.680 OA
ATOM     15  O   LIG    1       -6.104   7.218   2.688  0.00  0.00    -0.680 OA
ENDBRANCH   7  13
BRANCH   1  16
ATOM     16  C   LIG    1       -0.018   1.503   0.010  0.00  0.00    +0.320 C 
BRANCH  16  21
ATOM     17  C   LIG    1        1.071  -2.075   0.578  0.00  0.00    +0.030 A 
ATOM     18  C   LIG    1        0.026  -2.776  -0.021  0.00  0.00    +0.030 A 
ATOM     19  C   LIG    1       -1.020  -2.088  -0.602  0.00  0.00    +0.030 A 
ATOM     20  C   LIG    1       -1.032  -0.705  -0.591  0.00  0.00    +0.020 A 
ATOM     21  C   LIG    1        0.002  -0.004   0.002  0.00  0.00    -0.140 A 
ATOM     22  C   LIG    1        1.055  -0.682   0.581  0.00  0.00    +0.030 A 
BRANCH  17  26
ATOM     23  C   LIG    1        4.038  -5.752   2.208  0.00  0.00    +0.360 C 
ATOM     24  N   LIG    1        3.495  -4.423   1.917  0.00  0.00    -0.360 N 
ATOM     25  C   LIG    1        2.339  -4.165   1.273  0.00  0.00    +0.260 A 
ATOM     26  C   LIG    1        2.198  -2.810   1.205  0.00  0.00    -0.220 A 
ATOM     27  C   LIG    1        3.314  -2.234   1.843  0.00  0.00    +0.260 A 
ATOM     28  N   LIG    1        4.084  -3.202   2.266  0.00  0.00    -0.290 NA
ENDBRANCH  17  26
ENDBRANCH  16  21
ENDBRANCH   1  16
TORSDOF 4
