REMARK  Name = ZINCrD000006E9GD.1
REMARK                            x       y       z     vdW  Elec       q    Type
REMARK                         _______ _______ _______ _____ _____    ______ ____
ROOT
ATOM      1  N   LIG    1       -4.553  -2.350   1.394  0.00  0.00    -0.370 N 
ATOM      2  C   LIG    1       -5.695  -1.713   2.026  0.00  0.00    +0.240 C 
ATOM      3  C   LIG    1       -5.681  -1.937   3.541  0.00  0.00    +0.110 C 
ATOM      4  C   LIG    1       -6.346  -3.268   3.830  0.00  0.00    -0.120 A 
ATOM      5  C   LIG    1       -7.576  -3.296   4.465  0.00  0.00    +0.000 A 
ATOM      6  C   LIG    1       -8.184  -4.507   4.730  0.00  0.00    +0.050 A 
ATOM      7  C   LIG    1       -7.557  -5.698   4.355  0.00  0.00    -0.120 A 
ATOM      8  C   LIG    1       -6.316  -5.656   3.713  0.00  0.00    +0.060 A 
ATOM      9  C   LIG    1       -5.724  -4.437   3.458  0.00  0.00    -0.130 A 
ATOM     10  C   LIG    1       -4.378  -4.385   2.764  0.00  0.00    +0.120 C 
ATOM     11  C   LIG    1       -4.582  -3.802   1.364  0.00  0.00    +0.250 C 
ATOM     12  H   LIG    1       -3.719  -2.063   1.885  0.00  0.00    +0.410 HD
ENDROOT
BRANCH   7  13
ATOM     13  C   LIG    1       -8.203  -6.994   4.636  0.00  0.00    +0.510 C 
ATOM     14  O   LIG    1       -9.289  -7.028   5.198  0.00  0.00    -0.680 OA
ATOM     15  O   LIG    1       -7.652  -8.036   4.308  0.00  0.00    -0.680 OA
ENDBRANCH   7  13
BRANCH   1  16
ATOM     16  C   LIG    1       -4.461  -1.863   0.011  0.00  0.00    +0.320 C 
BRANCH  16  21
ATOM     17  C   LIG    1       -2.571   1.413   0.020  0.00  0.00    +0.030 A 
ATOM     18  C   LIG    1       -3.618   2.332   0.035  0.00  0.00    +0.030 A 
ATOM     19  C   LIG    1       -4.924   1.887   0.034  0.00  0.00    +0.030 A 
ATOM     20  C   LIG    1       -5.195   0.530   0.028  0.00  0.00    +0.020 A 
ATOM     21  C   LIG    1       -4.159  -0.387   0.018  0.00  0.00    -0.140 A 
ATOM     22  C   LIG    1       -2.849   0.048   0.015  0.00  0.00    +0.030 A 
BRANCH  17  26
ATOM     23  C   LIG    1        1.456   4.374   0.012  0.00  0.00    +0.360 C 
ATOM     24  N   LIG    1        0.597   3.187   0.013  0.00  0.00    -0.360 N 
ATOM     25  C   LIG    1       -0.751   3.188   0.026  0.00  0.00    +0.260 A 
ATOM     26  C   LIG    1       -1.164   1.887   0.017  0.00  0.00    -0.220 A 
ATOM     27  C   LIG    1       -0.013   1.076   0.008  0.00  0.00    +0.260 A 
ATOM     28  N   LIG    1        1.035   1.857   0.002  0.00  0.00    -0.290 NA
ENDBRANCH  17  26
ENDBRANCH  16  21
ENDBRANCH   1  16
TORSDOF 4
