REMARK  Name = ZINCpe000000YW9q.0
REMARK                            x       y       z     vdW  Elec       q    Type
REMARK                         _______ _______ _______ _____ _____    ______ ____
ROOT
ATOM      1  O   LIG    1        3.797   2.759  -1.032  0.00  0.00    -0.510 OA
ATOM      2  C   LIG    1        2.922   2.492  -1.829  0.00  0.00    +0.530 C 
ATOM      3  N   LIG    1        1.761   1.959  -1.400  0.00  0.00    -0.620 N 
ATOM      4  C   LIG    1        0.618   1.589  -2.255  0.00  0.00    +0.260 C 
ATOM      5  C   LIG    1       -0.612   1.634  -1.314  0.00  0.00    +0.040 C 
ATOM      6  C   LIG    1       -0.013   1.086   0.008  0.00  0.00    +0.270 C 
ATOM      7  C   LIG    1        1.423   1.651  -0.003  0.00  0.00    +0.250 C 
ENDROOT
BRANCH   6   8
ATOM      8  N   LIG    1       -0.758   1.586   1.166  0.00  0.00    -0.740 N 
ATOM      9  H   LIG    1       -1.281   2.400   1.092  0.00  0.00    +0.390 HD
ATOM     10  C   LIG    1       -0.718   0.915   2.334  0.00  0.00    +0.720 C 
ATOM     11  N   LIG    1       -1.404   1.375   3.399  0.00  0.00    -0.630 N 
ATOM     12  C   LIG    1       -2.229   2.596   3.428  0.00  0.00    +0.240 C 
ATOM     13  C   LIG    1       -2.273   3.014   4.917  0.00  0.00    +0.040 C 
ATOM     14  C   LIG    1       -2.330   1.636   5.627  0.00  0.00    +0.040 C 
ATOM     15  C   LIG    1       -1.447   0.746   4.727  0.00  0.00    +0.240 C 
ATOM     16  O   LIG    1       -0.063  -0.105   2.427  0.00  0.00    -0.540 OA
BRANCH  15  17
ATOM     17  C   LIG    1       -2.058  -0.653   4.620  0.00  0.00    +0.150 C 
BRANCH  17  18
ATOM     18  O   LIG    1       -1.185  -1.498   3.868  0.00  0.00    -0.530 OA
ATOM     19  H   LIG    1       -1.509  -2.402   3.759  0.00  0.00    +0.370 HD
ENDBRANCH  17  18
ENDBRANCH  15  17
ENDBRANCH   6   8
BRANCH   2  20
ATOM     20  C   LIG    1        3.133   2.756  -3.297  0.00  0.00    +0.230 C 
BRANCH  20  21
ATOM     21  O   LIG    1        4.432   3.318  -3.498  0.00  0.00    -0.290 OA
BRANCH  21  22
ATOM     22  C   LIG    1        4.784   3.618  -4.776  0.00  0.00    +0.130 A 
ATOM     23  C   LIG    1        3.900   3.370  -5.816  0.00  0.00    -0.080 A 
ATOM     24  C   LIG    1        4.257   3.680  -7.114  0.00  0.00    +0.050 A 
ATOM     25  C   LIG    1        5.500   4.227  -7.378  0.00  0.00    -0.030 A 
ATOM     26  C   LIG    1        6.385   4.470  -6.343  0.00  0.00    +0.050 A 
ATOM     27  C   LIG    1        6.029   4.166  -5.043  0.00  0.00    -0.020 A 
ENDBRANCH  21  22
ENDBRANCH  20  21
ENDBRANCH   2  20
TORSDOF 6
