REMARK  Name = ZINCrD000000AVKi.0
REMARK                            x       y       z     vdW  Elec       q    Type
REMARK                         _______ _______ _______ _____ _____    ______ ____
ROOT
ATOM      1  O   LIG    1       -2.534   5.085   0.052  0.00  0.00    -0.530 OA
ATOM      2  C   LIG    1       -2.522   3.870   0.045  0.00  0.00    +0.560 C 
ATOM      3  N   LIG    1       -3.683   3.185   0.052  0.00  0.00    -0.730 N 
ATOM      4  H   LIG    1       -3.673   2.215   0.047  0.00  0.00    +0.400 HD
ENDROOT
BRANCH   2   5
ATOM      5  C   LIG    1       -1.235   3.143   0.029  0.00  0.00    -0.140 A 
ATOM      6  C   LIG    1       -1.218   1.748   0.017  0.00  0.00    +0.060 A 
ATOM      7  C   LIG    1       -0.013   1.076   0.008  0.00  0.00    +0.000 A 
ATOM      8  C   LIG    1        1.177   1.782   0.000  0.00  0.00    +0.070 A 
ATOM      9  C   LIG    1        1.167   3.166   0.008  0.00  0.00    -0.130 A 
ATOM     10  C   LIG    1       -0.031   3.850   0.022  0.00  0.00    +0.110 A 
BRANCH   9  11
ATOM     11  C   LIG    1        2.467   3.927   0.000  0.00  0.00    +0.360 C 
BRANCH  11  12
ATOM     12  N   LIG    1        2.876   4.181  -1.384  0.00  0.00    -0.570 N 
ATOM     13  C   LIG    1        3.643   3.302  -2.005  0.00  0.00    +0.530 C 
ATOM     14  C   LIG    1        3.986   3.687  -3.428  0.00  0.00    +0.180 C 
ATOM     15  S   LIG    1        3.138   5.290  -3.634  0.00  0.00    -0.120 S 
ATOM     16  O   LIG    1        4.034   2.279  -1.484  0.00  0.00    -0.460 OA
ATOM     17  C   LIG    1        2.472   5.299  -1.991  0.00  0.00    +0.540 C 
ATOM     18  O   LIG    1        1.772   6.167  -1.505  0.00  0.00    -0.420 OA
ENDBRANCH  11  12
ENDBRANCH   9  11
ENDBRANCH   2   5
BRANCH   3  19
ATOM     19  C   LIG    1       -4.958   3.905   0.068  0.00  0.00    +0.260 C 
BRANCH  19  20
ATOM     20  C   LIG    1       -6.112   2.899   0.073  0.00  0.00    +0.030 C 
BRANCH  20  21
ATOM     21  C   LIG    1       -7.444   3.651   0.089  0.00  0.00    +0.170 C 
BRANCH  21  22
ATOM     22  O   LIG    1       -8.521   2.712   0.094  0.00  0.00    -0.380 OA
BRANCH  22  23
ATOM     23  C   LIG    1       -9.817   3.314   0.109  0.00  0.00    +0.150 C 
ATOM     24  C   LIG    1      -10.266   3.521   1.557  0.00  0.00    -0.010 C 
ATOM     25  C   LIG    1      -11.654   4.165   1.573  0.00  0.00    +0.010 C 
ATOM     26  C   LIG    1      -12.649   3.251   0.856  0.00  0.00    +0.000 C 
ATOM     27  C   LIG    1      -12.200   3.044  -0.592  0.00  0.00    +0.010 C 
ATOM     28  C   LIG    1      -10.812   2.400  -0.608  0.00  0.00    +0.020 C 
ENDBRANCH  22  23
ENDBRANCH  21  22
ENDBRANCH  20  21
ENDBRANCH  19  20
ENDBRANCH   3  19
TORSDOF 8
