REMARK  Name = ZINCrD000006V6Q2.1
REMARK                            x       y       z     vdW  Elec       q    Type
REMARK                         _______ _______ _______ _____ _____    ______ ____
ROOT
ATOM      1  C   LIG    1        2.663   8.086   0.017  0.00  0.00    +0.090 A 
ATOM      2  N   LIG    1        1.436   7.644   0.026  0.00  0.00    -0.210 NA
ATOM      3  N   LIG    1        1.263   6.395   0.017  0.00  0.00    -0.250 NA
ATOM      4  C   LIG    1        2.322   5.637   0.009  0.00  0.00    +0.240 A 
ATOM      5  S   LIG    1        3.740   6.688   0.001  0.00  0.00    +0.070 S 
ENDROOT
BRANCH   1   9
ATOM      6  C   LIG    1        3.856  12.167   0.023  0.00  0.00    +0.190 A 
ATOM      7  C   LIG    1        4.815  11.162   0.011  0.00  0.00    -0.100 A 
ATOM      8  C   LIG    1        4.432   9.838   0.008  0.00  0.00    +0.130 A 
ATOM      9  C   LIG    1        3.077   9.504   0.019  0.00  0.00    -0.110 A 
ATOM     10  C   LIG    1        2.111  10.519   0.027  0.00  0.00    +0.220 A 
ATOM     11  C   LIG    1        2.506  11.845   0.034  0.00  0.00    -0.100 A 
BRANCH   6  13
ATOM     12  C   LIG    1        5.645  13.731   0.013  0.00  0.00    +0.250 C 
ATOM     13  O   LIG    1        4.241  13.470   0.025  0.00  0.00    -0.310 OA
ENDBRANCH   6  13
BRANCH  10  14
ATOM     14  O   LIG    1        0.790  10.202   0.032  0.00  0.00    -0.280 OA
ATOM     15  C   LIG    1       -0.138  11.289   0.040  0.00  0.00    +0.250 C 
ENDBRANCH  10  14
ENDBRANCH   1   9
BRANCH   4  16
ATOM     16  N   LIG    1        2.334   4.248   0.002  0.00  0.00    -0.620 N 
ATOM     17  H   LIG    1        3.178   3.770  -0.008  0.00  0.00    +0.420 HD
ATOM     18  C   LIG    1        1.172   3.564   0.009  0.00  0.00    +0.560 C 
ATOM     19  O   LIG    1        0.115   4.163   0.022  0.00  0.00    -0.450 OA
BRANCH  18  20
ATOM     20  C   LIG    1        1.185   2.086   0.002  0.00  0.00    -0.130 A 
ATOM     21  C   LIG    1        2.397   1.396  -0.014  0.00  0.00    +0.110 A 
ATOM     22  C   LIG    1        2.402   0.016  -0.021  0.00  0.00    +0.040 A 
ATOM     23  C   LIG    1        1.208  -0.683  -0.013  0.00  0.00    +0.130 A 
ATOM     24  C   LIG    1        0.002  -0.004   0.002  0.00  0.00    -0.050 A 
ATOM     25  C   LIG    1       -0.017   1.375   0.010  0.00  0.00    +0.180 A 
BRANCH  24  26
ATOM     26  N   LIG    1       -1.271  -0.760   0.010  0.00  0.00    +0.020 N 
ATOM     27  O   LIG    1       -1.256  -1.978   0.003  0.00  0.00    -0.150 OA
ATOM     28  O   LIG    1       -2.333  -0.164   0.023  0.00  0.00    -0.150 OA
ENDBRANCH  24  26
ENDBRANCH  18  20
ENDBRANCH   4  16
TORSDOF 6
