REMARK  Name = ZINCpe000000YftN.0
REMARK                            x       y       z     vdW  Elec       q    Type
REMARK                         _______ _______ _______ _____ _____    ______ ____
ROOT
ATOM      1  C   LIG    1        3.961   0.955  -1.452  0.00  0.00    +0.520 C 
ATOM      2  N   LIG    1        5.279   1.069  -1.711  0.00  0.00    -0.670 N 
ATOM      3  H   LIG    1        5.907   1.192  -0.982  0.00  0.00    +0.420 HD
ATOM      4  O   LIG    1        3.167   0.885  -2.366  0.00  0.00    -0.500 OA
ENDROOT
BRANCH   2   5
ATOM      5  C   LIG    1        5.741   1.010  -3.032  0.00  0.00    +0.150 A 
ATOM      6  C   LIG    1        6.966   0.421  -3.314  0.00  0.00    +0.000 A 
ATOM      7  C   LIG    1        7.420   0.358  -4.617  0.00  0.00    +0.050 A 
ATOM      8  C   LIG    1        6.660   0.894  -5.646  0.00  0.00    +0.040 A 
ATOM      9  O   LIG    1        7.128   0.832  -6.923  0.00  0.00    -0.310 OA
ATOM     10  C   LIG    1        6.174   1.042  -7.970  0.00  0.00    +0.220 C 
ATOM     11  C   LIG    1        5.329   2.272  -7.609  0.00  0.00    +0.220 C 
ATOM     12  O   LIG    1        4.672   2.015  -6.364  0.00  0.00    -0.300 OA
ATOM     13  C   LIG    1        5.434   1.489  -5.367  0.00  0.00    +0.070 A 
ATOM     14  C   LIG    1        4.977   1.546  -4.059  0.00  0.00    +0.030 A 
ENDBRANCH   2   5
BRANCH   1  15
ATOM     15  C   LIG    1        3.474   0.913  -0.026  0.00  0.00    +0.220 C 
BRANCH  15  18
ATOM     16  C   LIG    1        0.004  -0.007   0.007  0.00  0.00    +0.270 A 
ATOM     17  N   LIG    1        1.277  -0.364  -0.004  0.00  0.00    -0.440 NA
ATOM     18  C   LIG    1        1.973   0.783  -0.012  0.00  0.00    +0.190 A 
ATOM     19  N   LIG    1        1.117   1.763  -0.006  0.00  0.00    -0.360 NA
ATOM     20  O   LIG    1       -0.018   1.335   0.005  0.00  0.00    +0.090 OA
BRANCH  16  24
ATOM     21  C   LIG    1       -4.650  -1.803   0.055  0.00  0.00    +0.400 C 
ATOM     22  N   LIG    1       -3.189  -1.695   0.040  0.00  0.00    -0.290 N 
ATOM     23  C   LIG    1       -2.485  -0.544   0.036  0.00  0.00    +0.220 A 
ATOM     24  C   LIG    1       -1.165  -0.908   0.019  0.00  0.00    +0.040 A 
ATOM     25  N   LIG    1       -1.150  -2.256   0.022  0.00  0.00    -0.210 NA
ATOM     26  N   LIG    1       -2.363  -2.682   0.035  0.00  0.00    -0.070 NA
ENDBRANCH  16  24
ENDBRANCH  15  18
ENDBRANCH   1  15
TORSDOF 4
