REMARK  Name = ZINCpe000000TELC.0
REMARK                            x       y       z     vdW  Elec       q    Type
REMARK                         _______ _______ _______ _____ _____    ______ ____
ROOT
ATOM      1  S   LIG    1        1.099  -4.400  -0.033  0.00  0.00    +2.690 S 
ATOM      2  O   LIG    1       -0.013  -5.092   0.518  0.00  0.00    -0.940 OA
ATOM      3  O   LIG    1        2.414  -4.494   0.498  0.00  0.00    -0.950 OA
ENDROOT
BRANCH   1   4
ATOM      4  C   LIG    1        0.678  -2.690  -0.020  0.00  0.00    -0.670 A 
ATOM      5  C   LIG    1       -0.653  -2.308  -0.005  0.00  0.00    +0.140 A 
ATOM      6  C   LIG    1       -0.993  -0.969   0.006  0.00  0.00    +0.020 A 
ATOM      7  C   LIG    1        0.002  -0.004   0.002  0.00  0.00    +0.150 A 
ATOM      8  C   LIG    1        1.345  -0.389  -0.013  0.00  0.00    +0.070 A 
ATOM      9  N   LIG    1        2.099   0.781  -0.014  0.00  0.00    -0.540 N 
ATOM     10  C   LIG    1        1.255   1.830  -0.000  0.00  0.00    +0.680 A 
ATOM     11  O   LIG    1        1.591   3.000   0.003  0.00  0.00    -0.540 OA
ATOM     12  C   LIG    1        3.562   0.858  -0.027  0.00  0.00    +0.350 C 
ATOM     13  N   LIG    1       -0.017   1.389   0.010  0.00  0.00    -0.540 N 
ATOM     14  C   LIG    1       -1.216   2.230   0.020  0.00  0.00    +0.360 C 
ATOM     15  C   LIG    1        1.676  -1.735  -0.023  0.00  0.00    +0.150 A 
ENDBRANCH   1   4
BRANCH   1  16
ATOM     16  N   LIG    1        1.202  -4.867  -1.619  0.00  0.00    -0.980 NA
BRANCH  16  17
ATOM     17  C   LIG    1        0.015  -5.378  -2.310  0.00  0.00    +0.250 C 
ATOM     18  C   LIG    1        0.280  -6.806  -2.791  0.00  0.00    +0.040 C 
ATOM     19  C   LIG    1       -0.298  -4.484  -3.512  0.00  0.00    +0.020 C 
ENDBRANCH  16  17
BRANCH  16  20
ATOM     20  C   LIG    1        2.479  -4.770  -2.330  0.00  0.00    +0.380 C 
BRANCH  20  21
ATOM     21  C   LIG    1        3.190  -6.097  -2.268  0.00  0.00    +0.440 C 
ATOM     22  O   LIG    1        2.683  -7.028  -1.689  0.00  0.00    -0.490 OA
BRANCH  21  23
ATOM     23  O   LIG    1        4.388  -6.245  -2.856  0.00  0.00    -0.360 OA
BRANCH  23  25
ATOM     24  C   LIG    1        6.363  -7.526  -3.480  0.00  0.00    +0.070 C 
ATOM     25  C   LIG    1        5.015  -7.550  -2.755  0.00  0.00    +0.200 C 
ENDBRANCH  23  25
ENDBRANCH  21  23
ENDBRANCH  20  21
ENDBRANCH  16  20
ENDBRANCH   1  16
TORSDOF 7
