REMARK  Name = ZINCrH00000No4GP.0
REMARK                            x       y       z     vdW  Elec       q    Type
REMARK                         _______ _______ _______ _____ _____    ______ ____
ROOT
ATOM      1  O   LIG    1        5.560  -0.074  -0.899  0.00  0.00    -0.550 OA
ATOM      2  C   LIG    1        4.512  -0.564  -0.520  0.00  0.00    +0.550 C 
ATOM      3  N   LIG    1        4.429  -1.892  -0.306  0.00  0.00    -0.700 N 
ATOM      4  H   LIG    1        3.594  -2.283  -0.004  0.00  0.00    +0.410 HD
ENDROOT
BRANCH   2   5
ATOM      5  C   LIG    1        3.343   0.288  -0.298  0.00  0.00    -0.060 C 
ATOM      6  C   LIG    1        3.427   1.617  -0.513  0.00  0.00    +0.110 C 
BRANCH   6   7
ATOM      7  C   LIG    1        2.252   2.473  -0.289  0.00  0.00    -0.100 A 
ATOM      8  C   LIG    1        1.046   1.913   0.145  0.00  0.00    +0.100 A 
ATOM      9  C   LIG    1       -0.053   2.722   0.346  0.00  0.00    -0.110 A 
ATOM     10  C   LIG    1        0.037   4.087   0.130  0.00  0.00    +0.100 A 
ATOM     11  C   LIG    1        1.225   4.651  -0.300  0.00  0.00    +0.000 A 
ATOM     12 BR   LIG    1       -1.686   1.966   0.926  0.00  0.00    -0.030 Br
ATOM     13  C   LIG    1        2.334   3.854  -0.512  0.00  0.00    +0.140 A 
ATOM     14  F   LIG    1        3.494   4.405  -0.931  0.00  0.00    -0.120 F 
ENDBRANCH   6   7
ENDBRANCH   2   5
BRANCH   3  15
ATOM     15  C   LIG    1        5.599  -2.745  -0.528  0.00  0.00    +0.310 C 
BRANCH  15  16
ATOM     16  C   LIG    1        5.244  -4.176  -0.218  0.00  0.00    -0.090 A 
ATOM     17  C   LIG    1        5.599  -4.729   0.997  0.00  0.00    +0.030 A 
ATOM     18  C   LIG    1        5.268  -6.041   1.283  0.00  0.00    +0.000 A 
ATOM     19  C   LIG    1        4.592  -6.803   0.349  0.00  0.00    +0.010 A 
ATOM     20  C   LIG    1        4.241  -6.251  -0.870  0.00  0.00    +0.000 A 
ATOM     21  C   LIG    1        4.567  -4.938  -1.153  0.00  0.00    -0.060 A 
BRANCH  21  22
ATOM     22  C   LIG    1        4.185  -4.337  -2.481  0.00  0.00    +0.230 C 
BRANCH  22  23
ATOM     23  N   LIG    1        3.007  -3.477  -2.309  0.00  0.00    -0.520 NA
ATOM     24  C   LIG    1        1.798  -4.281  -2.078  0.00  0.00    +0.140 C 
ATOM     25  C   LIG    1        0.608  -3.346  -1.845  0.00  0.00    +0.220 C 
ATOM     26  O   LIG    1        0.469  -2.470  -2.967  0.00  0.00    -0.380 OA
ATOM     27  C   LIG    1        1.629  -1.672  -3.220  0.00  0.00    +0.230 C 
ATOM     28  C   LIG    1        2.829  -2.589  -3.467  0.00  0.00    +0.150 C 
ENDBRANCH  22  23
ENDBRANCH  21  22
ENDBRANCH  15  16
ENDBRANCH   3  15
TORSDOF 6
