REMARK  Name = ZINCrD000000CzKq.0
REMARK                            x       y       z     vdW  Elec       q    Type
REMARK                         _______ _______ _______ _____ _____    ______ ____
ROOT
ATOM      1  O   LIG    1        3.733  -7.481   4.059  0.00  0.00    -0.520 OA
ATOM      2  C   LIG    1        4.123  -6.588   3.329  0.00  0.00    +0.590 C 
ATOM      3  N   LIG    1        3.405  -6.243   2.242  0.00  0.00    -0.610 N 
ATOM      4  C   LIG    1        2.189  -6.985   1.875  0.00  0.00    +0.300 C 
ATOM      5  C   LIG    1        2.292  -7.388   0.400  0.00  0.00    +0.170 C 
ATOM      6  N   LIG    1        2.562  -6.195  -0.413  0.00  0.00    -0.530 NA
ATOM      7  C   LIG    1        3.856  -5.593  -0.064  0.00  0.00    +0.170 C 
ATOM      8  C   LIG    1        3.816  -5.116   1.392  0.00  0.00    +0.270 C 
ENDROOT
BRANCH   2   9
ATOM      9  C   LIG    1        5.374  -5.888   3.634  0.00  0.00    -0.270 A 
ATOM     10  C   LIG    1        6.535  -6.479   4.027  0.00  0.00    +0.100 A 
ATOM     11  C   LIG    1        7.572  -5.593   4.252  0.00  0.00    -0.110 A 
ATOM     12  C   LIG    1        7.244  -4.299   4.039  0.00  0.00    -0.200 A 
ATOM     13  C   LIG    1        8.200  -3.134   4.215  0.00  0.00    +0.110 C 
ATOM     14  C   LIG    1        9.400  -3.602   5.042  0.00  0.00    +0.020 C 
ATOM     15  C   LIG    1        9.948  -4.897   4.436  0.00  0.00    +0.020 C 
ATOM     16  C   LIG    1        8.960  -6.035   4.699  0.00  0.00    +0.100 C 
ATOM     17  S   LIG    1        5.617  -4.151   3.542  0.00  0.00    +0.210 S 
ENDBRANCH   2   9
BRANCH   6  18
ATOM     18  C   LIG    1        2.498  -6.510  -1.847  0.00  0.00    +0.240 C 
BRANCH  18  19
ATOM     19  C   LIG    1        2.534  -5.231  -2.644  0.00  0.00    -0.070 A 
ATOM     20  C   LIG    1        1.355  -4.587  -2.967  0.00  0.00    +0.060 A 
ATOM     21  C   LIG    1        1.383  -3.413  -3.699  0.00  0.00    +0.040 A 
ATOM     22  C   LIG    1        2.594  -2.880  -4.108  0.00  0.00    +0.030 A 
ATOM     23  O   LIG    1        2.892  -1.758  -4.825  0.00  0.00    -0.310 OA
ATOM     24  C   LIG    1        4.290  -1.509  -4.584  0.00  0.00    +0.430 C 
ATOM     25  O   LIG    1        4.825  -2.813  -4.294  0.00  0.00    -0.310 OA
ATOM     26  C   LIG    1        3.782  -3.529  -3.781  0.00  0.00    +0.030 A 
ATOM     27  C   LIG    1        3.747  -4.704  -3.049  0.00  0.00    +0.030 A 
ENDBRANCH  18  19
ENDBRANCH   6  18
TORSDOF 3
