REMARK  Name = ZINCpk00000xI9eW.0
REMARK                            x       y       z     vdW  Elec       q    Type
REMARK                         _______ _______ _______ _____ _____    ______ ____
ROOT
ATOM      1  C   LIG    1        1.383   3.494   0.149  0.00  0.00    +0.100 C 
ATOM      2  C   LIG    1        0.811   4.184  -1.091  0.00  0.00    +0.060 C 
ENDROOT
BRANCH   1   3
ATOM      3  N   LIG    1        1.372   2.039  -0.051  0.00  0.00    -0.520 NA
ATOM      4  C   LIG    1        1.855   1.339   1.146  0.00  0.00    +0.180 C 
ATOM      5  C   LIG    1        1.968  -0.158   0.853  0.00  0.00    +0.050 C 
ATOM      6  C   LIG    1        0.594  -0.698   0.443  0.00  0.00    +0.230 C 
ATOM      7  C   LIG    1        0.092   0.080  -0.776  0.00  0.00    +0.020 C 
ATOM      8  C   LIG    1        0.034   1.571  -0.436  0.00  0.00    +0.180 C 
BRANCH   6   9
ATOM      9  N   LIG    1        0.707  -2.119   0.105  0.00  0.00    -1.110 NA
ATOM     10  H   LIG    1        1.510  -2.452  -0.327  0.00  0.00    +0.420 HD
BRANCH   9  11
ATOM     11  S   LIG    1       -0.534  -3.156   0.460  0.00  0.00    +2.610 S 
ATOM     12  O   LIG    1       -0.813  -2.913   1.832  0.00  0.00    -0.960 OA
ATOM     13  O   LIG    1       -0.068  -4.424   0.021  0.00  0.00    -0.960 OA
ATOM     14  C   LIG    1       -1.909  -2.588  -0.579  0.00  0.00    -0.290 C 
ENDBRANCH   9  11
ENDBRANCH   6   9
ENDBRANCH   1   3
BRANCH   1  15
ATOM     15  C   LIG    1        2.799   3.959   0.374  0.00  0.00    +0.420 C 
ATOM     16  O   LIG    1        3.728   3.290  -0.027  0.00  0.00    -0.420 OA
BRANCH  15  21
ATOM     17  C   LIG    1        4.057   6.929   2.015  0.00  0.00    -0.260 A 
ATOM     18  C   LIG    1        2.683   7.081   2.136  0.00  0.00    +0.110 A 
ATOM     19  N   LIG    1        2.084   6.033   1.555  0.00  0.00    -0.520 N 
ATOM     20  H   LIG    1        1.125   5.896   1.498  0.00  0.00    +0.420 HD
ATOM     21  C   LIG    1        3.044   5.177   1.054  0.00  0.00    -0.100 A 
ATOM     22  C   LIG    1        1.982   8.236   2.804  0.00  0.00    +0.160 C 
ATOM     23  C   LIG    1        4.282   5.716   1.325  0.00  0.00    -0.010 A 
ATOM     24  C   LIG    1        5.619   5.125   0.959  0.00  0.00    +0.140 C 
BRANCH  17  26
ATOM     25  C   LIG    1        5.504   9.031   1.668  0.00  0.00    +0.060 C 
ATOM     26  C   LIG    1        5.083   7.854   2.509  0.00  0.00    +0.430 C 
ATOM     27  O   LIG    1        5.592   7.671   3.595  0.00  0.00    -0.450 OA
ENDBRANCH  17  26
ENDBRANCH  15  21
ENDBRANCH   1  15
TORSDOF 6
