REMARK  Name = ZINCqH0000007T7H.0
REMARK                            x       y       z     vdW  Elec       q    Type
REMARK                         _______ _______ _______ _____ _____    ______ ____
ROOT
ATOM      1  C   LIG    1       -2.541   3.866   0.014  0.00  0.00    +0.390 C 
ENDROOT
BRANCH   1   7
ATOM      2  C   LIG    1       -1.214   1.739  -0.043  0.00  0.00    +0.170 A 
ATOM      3  C   LIG    1       -0.004   1.060  -0.067  0.00  0.00    -0.080 A 
ATOM      4  C   LIG    1        1.183   1.768  -0.077  0.00  0.00    +0.060 A 
ATOM      5  C   LIG    1        1.166   3.150  -0.058  0.00  0.00    -0.030 A 
ATOM      6  C   LIG    1       -0.039   3.828  -0.029  0.00  0.00    +0.040 A 
ATOM      7  C   LIG    1       -1.228   3.126  -0.018  0.00  0.00    -0.120 A 
BRANCH   2   9
ATOM      8  C   LIG    1       -2.292  -0.380  -0.059  0.00  0.00    +0.240 C 
ATOM      9  O   LIG    1       -2.383   1.046  -0.038  0.00  0.00    -0.300 OA
ENDBRANCH   2   9
ENDBRANCH   1   7
BRANCH   1  10
ATOM     10  C   LIG    1       -3.015   3.985   1.440  0.00  0.00    +0.130 A 
ATOM     11  C   LIG    1       -3.307   5.231   1.960  0.00  0.00    -0.040 A 
ATOM     12  C   LIG    1       -3.743   5.330   3.273  0.00  0.00    +0.060 A 
ATOM     13  C   LIG    1       -3.869   4.166   4.016  0.00  0.00    -0.040 A 
ATOM     14  C   LIG    1       -3.559   2.955   3.427  0.00  0.00    +0.260 A 
ATOM     15  N   LIG    1       -3.152   2.898   2.174  0.00  0.00    -0.460 NA
ENDBRANCH   1  10
BRANCH   1  16
ATOM     16  N   LIG    1       -2.361   5.204  -0.554  0.00  0.00    -0.730 N 
ATOM     17  H   LIG    1       -1.486   5.623  -0.542  0.00  0.00    +0.400 HD
ATOM     18  C   LIG    1       -3.411   5.854  -1.094  0.00  0.00    +0.710 C 
ATOM     19  N   LIG    1       -3.246   7.085  -1.617  0.00  0.00    -0.680 N 
ATOM     20  H   LIG    1       -2.392   7.538  -1.531  0.00  0.00    +0.410 HD
ATOM     21  O   LIG    1       -4.508   5.329  -1.109  0.00  0.00    -0.550 OA
BRANCH  19  22
ATOM     22  C   LIG    1       -4.303   7.708  -2.282  0.00  0.00    +0.210 A 
ATOM     23  C   LIG    1       -5.324   6.958  -2.861  0.00  0.00    -0.020 A 
ATOM     24  C   LIG    1       -6.352   7.613  -3.509  0.00  0.00    +0.270 A 
ATOM     25  N   LIG    1       -6.374   8.930  -3.584  0.00  0.00    -0.500 NA
ATOM     26  C   LIG    1       -5.425   9.675  -3.048  0.00  0.00    +0.280 A 
ATOM     27  C   LIG    1       -4.367   9.098  -2.378  0.00  0.00    -0.180 A 
ATOM     28  C   LIG    1       -3.291   9.957  -1.764  0.00  0.00    +0.100 C 
ENDBRANCH  19  22
ENDBRANCH   1  16
TORSDOF 5
