REMARK  Name = ZINCrH000004v4JH.0
REMARK                            x       y       z     vdW  Elec       q    Type
REMARK                         _______ _______ _______ _____ _____    ______ ____
ROOT
ATOM      1  O   LIG    1        1.274   5.825  -0.120  0.00  0.00    -0.560 OA
ATOM      2  C   LIG    1        2.336   5.233  -0.094  0.00  0.00    +0.710 C 
ATOM      3  N   LIG    1        3.492   5.918  -0.204  0.00  0.00    -0.620 N 
ATOM      4  C   LIG    1        4.773   5.209  -0.325  0.00  0.00    +0.270 C 
ATOM      5  C   LIG    1        5.729   5.720   0.752  0.00  0.00    +0.010 C 
ATOM      6  C   LIG    1        5.840   7.243   0.651  0.00  0.00    +0.030 C 
ATOM      7  C   LIG    1        4.465   7.873   0.884  0.00  0.00    -0.040 C 
ATOM      8  C   LIG    1        3.495   7.387  -0.198  0.00  0.00    +0.310 C 
ATOM      9  N   LIG    1        2.358   3.893   0.044  0.00  0.00    -0.680 N 
ATOM     10  H   LIG    1        3.198   3.434   0.201  0.00  0.00    +0.410 HD
ENDROOT
BRANCH   9  11
ATOM     11  C   LIG    1        1.167   3.161  -0.040  0.00  0.00    +0.170 A 
ATOM     12  C   LIG    1        1.199   1.819  -0.394  0.00  0.00    -0.030 A 
ATOM     13  C   LIG    1        0.022   1.100  -0.476  0.00  0.00    +0.040 A 
ATOM     14  C   LIG    1       -1.187   1.718  -0.212  0.00  0.00    -0.110 A 
ATOM     15  C   LIG    1       -1.221   3.053   0.146  0.00  0.00    +0.040 A 
ATOM     16  C   LIG    1       -0.048   3.777   0.230  0.00  0.00    +0.020 A 
BRANCH  14  17
ATOM     17  C   LIG    1       -2.469   0.932  -0.310  0.00  0.00    +0.100 C 
BRANCH  17  18
ATOM     18  C   LIG    1       -2.786   0.302   1.048  0.00  0.00    +0.060 C 
BRANCH  18  19
ATOM     19  C   LIG    1       -4.088  -0.495   0.950  0.00  0.00    +0.450 C 
ATOM     20  F   LIG    1       -5.131   0.359   0.577  0.00  0.00    -0.180 F 
ATOM     21  F   LIG    1       -4.377  -1.071   2.191  0.00  0.00    -0.190 F 
ATOM     22  F   LIG    1       -3.946  -1.503  -0.010  0.00  0.00    -0.180 F 
ENDBRANCH  18  19
ENDBRANCH  17  18
ENDBRANCH  14  17
ENDBRANCH   9  11
BRANCH   7  23
ATOM     23  C   LIG    1        4.584   9.397   0.815  0.00  0.00    +0.330 C 
BRANCH  23  24
ATOM     24  N   LIG    1        3.293  10.003   1.152  0.00  0.00    -0.300 N 
ATOM     25  C   LIG    1        3.077  10.920   2.123  0.00  0.00    +0.140 A 
ATOM     26  C   LIG    1        1.754  11.204   2.086  0.00  0.00    +0.140 A 
ATOM     27  N   LIG    1        1.231  10.451   1.112  0.00  0.00    -0.270 NA
ATOM     28  N   LIG    1        2.169   9.751   0.578  0.00  0.00    -0.080 NA
ENDBRANCH  23  24
ENDBRANCH   7  23
TORSDOF 6
