REMARK  Name = ZINCqH0000067ad2.0
REMARK                            x       y       z     vdW  Elec       q    Type
REMARK                         _______ _______ _______ _____ _____    ______ ____
ROOT
ATOM      1  C   LIG    1        5.517   0.400  -1.704  0.00  0.00    +0.540 C 
ATOM      2  N   LIG    1        6.149  -0.179  -2.744  0.00  0.00    -0.630 N 
ATOM      3  H   LIG    1        5.761  -0.956  -3.176  0.00  0.00    +0.430 HD
ATOM      4  O   LIG    1        6.003   1.371  -1.163  0.00  0.00    -0.470 OA
ENDROOT
BRANCH   2   5
ATOM      5  C   LIG    1        7.360   0.338  -3.197  0.00  0.00    +0.300 A 
ATOM      6  N   LIG    1        7.968   1.370  -2.702  0.00  0.00    -0.450 NA
ATOM      7  C   LIG    1        9.114   1.717  -3.259  0.00  0.00    +0.270 A 
ATOM      8  C   LIG    1        9.511   0.956  -4.288  0.00  0.00    -0.250 A 
ATOM      9  S   LIG    1        8.304  -0.303  -4.539  0.00  0.00    +0.090 S 
BRANCH   8  10
ATOM     10  S   LIG    1       10.985   1.175  -5.228  0.00  0.00    -0.010 S 
BRANCH  10  11
ATOM     11  C   LIG    1       10.902  -0.172  -6.440  0.00  0.00    +0.120 C 
BRANCH  11  12
ATOM     12  C   LIG    1       12.113  -0.120  -7.334  0.00  0.00    -0.080 A 
ATOM     13  C   LIG    1       12.078   0.616  -8.504  0.00  0.00    +0.030 A 
ATOM     14  C   LIG    1       13.191   0.668  -9.322  0.00  0.00    +0.010 A 
ATOM     15  C   LIG    1       14.336  -0.024  -8.975  0.00  0.00    +0.020 A 
ATOM     16  C   LIG    1       14.370  -0.764  -7.808  0.00  0.00    +0.010 A 
ATOM     17  C   LIG    1       13.259  -0.812  -6.987  0.00  0.00    +0.030 A 
ENDBRANCH  11  12
ENDBRANCH  10  11
ENDBRANCH   8  10
ENDBRANCH   2   5
BRANCH   1  20
ATOM     18  C   LIG    1        3.538   0.542  -0.029  0.00  0.00    +0.090 C 
ATOM     19  C   LIG    1        4.194  -0.827   0.165  0.00  0.00    +0.130 C 
ATOM     20  C   LIG    1        4.206  -0.160  -1.213  0.00  0.00    -0.030 C 
BRANCH  18  25
ATOM     21  N   LIG    1        1.272   1.722  -0.001  0.00  0.00    -0.470 N 
ATOM     22  C   LIG    1       -0.016   1.301   0.009  0.00  0.00    +0.370 A 
ATOM     23  N   LIG    1        0.002  -0.004   0.002  0.00  0.00    -0.290 NA
ATOM     24  N   LIG    1        1.219  -0.420  -0.012  0.00  0.00    -0.290 NA
ATOM     25  C   LIG    1        2.032   0.600  -0.014  0.00  0.00    +0.200 A 
BRANCH  21  27
ATOM     26  C   LIG    1        2.017   3.557  -1.436  0.00  0.00    +0.030 C 
ATOM     27  C   LIG    1        1.747   3.108   0.002  0.00  0.00    +0.300 C 
ENDBRANCH  21  27
ENDBRANCH  18  25
ENDBRANCH   1  20
TORSDOF 7
