REMARK  Name = ZINCrH00000mkZ0U.0
REMARK                            x       y       z     vdW  Elec       q    Type
REMARK                         _______ _______ _______ _____ _____    ______ ____
ROOT
ATOM      1  C   LIG    1       -1.272   5.980  -0.825  0.00  0.00    -0.200 A 
ATOM      2  C   LIG    1       -2.293   5.814   0.124  0.00  0.00    +0.080 A 
ATOM      3  C   LIG    1       -2.408   6.793   1.149  0.00  0.00    +0.110 A 
ATOM      4  N   LIG    1       -1.572   7.802   1.192  0.00  0.00    -0.190 NA
ATOM      5  N   LIG    1       -0.634   7.969   0.334  0.00  0.00    -0.440 N 
ATOM      6  H   LIG    1       -0.052   8.740   0.422  0.00  0.00    +0.450 HD
ATOM      7  C   LIG    1       -0.427   7.114  -0.684  0.00  0.00    +0.490 A 
ATOM      8  O   LIG    1        0.477   7.310  -1.478  0.00  0.00    -0.510 OA
ENDROOT
BRANCH   3   9
ATOM      9  C   LIG    1       -3.472   6.671   2.174  0.00  0.00    -0.040 A 
ATOM     10  C   LIG    1       -4.756   6.272   1.805  0.00  0.00    +0.040 A 
ATOM     11  C   LIG    1       -5.742   6.156   2.764  0.00  0.00    +0.010 A 
ATOM     12  C   LIG    1       -5.460   6.442   4.088  0.00  0.00    +0.030 A 
ATOM     13  C   LIG    1       -4.188   6.843   4.459  0.00  0.00    +0.010 A 
ATOM     14  C   LIG    1       -3.194   6.959   3.509  0.00  0.00    +0.050 A 
ENDBRANCH   3   9
BRANCH   2  15
ATOM     15  C   LIG    1       -3.220   4.665   0.058  0.00  0.00    -0.060 A 
ATOM     16  C   LIG    1       -3.077   3.595   0.944  0.00  0.00    +0.050 A 
ATOM     17  C   LIG    1       -3.946   2.527   0.877  0.00  0.00    +0.020 A 
ATOM     18  C   LIG    1       -4.958   2.512  -0.067  0.00  0.00    +0.030 A 
ATOM     19  C   LIG    1       -5.103   3.566  -0.952  0.00  0.00    +0.020 A 
ATOM     20  C   LIG    1       -4.244   4.644  -0.892  0.00  0.00    +0.020 A 
ENDBRANCH   2  15
BRANCH   1  22
ATOM     21  N   LIG    1       -0.954   5.458  -3.190  0.00  0.00    -0.590 N 
ATOM     22  C   LIG    1       -1.084   5.018  -1.923  0.00  0.00    +0.580 C 
ATOM     23  O   LIG    1       -1.046   3.825  -1.686  0.00  0.00    -0.510 OA
ATOM     24  C   LIG    1       -1.010   6.894  -3.476  0.00  0.00    +0.280 C 
BRANCH  21  25
ATOM     25  C   LIG    1       -0.757   4.501  -4.281  0.00  0.00    +0.330 C 
BRANCH  25  27
ATOM     26  C   LIG    1       -2.596   4.695  -5.876  0.00  0.00    +0.020 C 
ATOM     27  C   LIG    1       -2.096   4.083  -4.831  0.00  0.00    -0.140 C 
ATOM     28  C   LIG    1       -2.862   2.961  -4.178  0.00  0.00    +0.090 C 
ENDBRANCH  25  27
ENDBRANCH  21  25
ENDBRANCH   1  22
TORSDOF 5
