REMARK  Name = ZINCpe000000YTo2.0
REMARK                            x       y       z     vdW  Elec       q    Type
REMARK                         _______ _______ _______ _____ _____    ______ ____
ROOT
ATOM      1  N   LIG    1       -0.723   1.572  -1.182  0.00  0.00    -0.520 NA
ATOM      2  C   LIG    1       -2.061   0.974  -1.278  0.00  0.00    +0.180 C 
ATOM      3  C   LIG    1       -2.824   1.611  -2.442  0.00  0.00    +0.050 C 
ATOM      4  C   LIG    1       -2.047   1.380  -3.741  0.00  0.00    -0.040 C 
ATOM      5  C   LIG    1       -0.641   1.970  -3.598  0.00  0.00    +0.060 C 
ATOM      6  C   LIG    1        0.058   1.323  -2.400  0.00  0.00    +0.180 C 
ENDROOT
BRANCH   4   7
ATOM      7  C   LIG    1       -2.763   2.056  -4.882  0.00  0.00    +0.400 C 
ATOM      8  O   LIG    1       -2.441   3.174  -5.223  0.00  0.00    -0.450 OA
BRANCH   7   9
ATOM      9  C   LIG    1       -3.852   1.358  -5.584  0.00  0.00    -0.170 A 
ATOM     10  C   LIG    1       -4.223   0.066  -5.198  0.00  0.00    +0.060 A 
ATOM     11  C   LIG    1       -5.248  -0.579  -5.857  0.00  0.00    +0.000 A 
ATOM     12  C   LIG    1       -5.903   0.045  -6.904  0.00  0.00    +0.040 A 
ATOM     13  C   LIG    1       -5.539   1.322  -7.296  0.00  0.00    +0.000 A 
ATOM     14  C   LIG    1       -4.519   1.982  -6.643  0.00  0.00    +0.070 A 
ENDBRANCH   7   9
ENDBRANCH   4   7
BRANCH   1  15
ATOM     15  C   LIG    1       -0.013   1.086   0.008  0.00  0.00    +0.220 C 
BRANCH  15  17
ATOM     16  O   LIG    1       -1.714   2.256   1.150  0.00  0.00    -0.510 OA
ATOM     17  C   LIG    1       -0.718   1.572   1.248  0.00  0.00    +0.520 C 
ATOM     18  N   LIG    1       -0.242   1.246   2.466  0.00  0.00    -0.730 N 
ATOM     19  H   LIG    1        0.555   0.699   2.544  0.00  0.00    +0.400 HD
BRANCH  18  20
ATOM     20  C   LIG    1       -0.927   1.718   3.671  0.00  0.00    +0.270 C 
ATOM     21  C   LIG    1        0.070   1.785   4.841  0.00  0.00    +0.070 C 
ATOM     22  C   LIG    1       -0.771   1.963   6.131  0.00  0.00    -0.310 C 
ATOM     23  S   LIG    1       -2.159   0.795   5.867  0.00  0.00    +2.400 S 
ATOM     24  O   LIG    1       -3.377   1.415   6.256  0.00  0.00    -0.930 OA
ATOM     25  O   LIG    1       -1.811  -0.477   6.397  0.00  0.00    -0.930 OA
ATOM     26  C   LIG    1       -2.057   0.737   4.043  0.00  0.00    -0.330 C 
ENDBRANCH  18  20
ENDBRANCH  15  17
ENDBRANCH   1  15
TORSDOF 5
