REMARK  Name = ZINCqH0000000fCl.0
REMARK                            x       y       z     vdW  Elec       q    Type
REMARK                         _______ _______ _______ _____ _____    ______ ____
ROOT
ATOM      1  C   LIG    1       -3.326  -0.570  -3.271  0.00  0.00    -0.260 A 
ATOM      2  C   LIG    1       -4.234   0.267  -3.909  0.00  0.00    +0.190 A 
ATOM      3  C   LIG    1       -4.712  -0.070  -5.184  0.00  0.00    -0.180 A 
ATOM      4  C   LIG    1       -4.293  -1.209  -5.781  0.00  0.00    +0.190 A 
ATOM      5  N   LIG    1       -3.411  -2.036  -5.152  0.00  0.00    -0.600 N 
ATOM      6  H   LIG    1       -3.128  -2.850  -5.598  0.00  0.00    +0.420 HD
ATOM      7  C   LIG    1       -4.758  -1.624  -7.155  0.00  0.00    +0.090 C 
ATOM      8  C   LIG    1       -6.029  -0.875  -7.545  0.00  0.00    +0.040 C 
ATOM      9  C   LIG    1       -5.791   0.624  -7.325  0.00  0.00    -0.070 C 
ATOM     10  C   LIG    1       -6.957   1.423  -7.910  0.00  0.00    +0.040 C 
ATOM     11  C   LIG    1       -4.485   1.044  -8.003  0.00  0.00    +0.030 C 
ATOM     12  C   LIG    1       -5.696   0.876  -5.822  0.00  0.00    +0.110 C 
ATOM     13  C   LIG    1       -2.921  -1.758  -3.933  0.00  0.00    +0.530 A 
ATOM     14  O   LIG    1       -2.133  -2.520  -3.400  0.00  0.00    -0.530 OA
ENDROOT
BRANCH   1  16
ATOM     15  N   LIG    1       -1.475  -0.113  -1.746  0.00  0.00    -0.590 N 
ATOM     16  C   LIG    1       -2.804  -0.236  -1.938  0.00  0.00    +0.590 C 
ATOM     17  O   LIG    1       -3.570  -0.071  -1.008  0.00  0.00    -0.530 OA
BRANCH  15  18
ATOM     18  C   LIG    1       -0.958   0.280  -0.433  0.00  0.00    +0.310 C 
BRANCH  18  20
ATOM     19  C   LIG    1       -1.569   2.383   0.645  0.00  0.00    +0.030 C 
ATOM     20  C   LIG    1       -0.934   1.783  -0.331  0.00  0.00    -0.070 C 
ENDBRANCH  18  20
ENDBRANCH  15  18
BRANCH  15  21
ATOM     21  C   LIG    1       -0.549  -0.371  -2.851  0.00  0.00    +0.310 C 
BRANCH  21  22
ATOM     22  C   LIG    1        0.837  -0.598  -2.303  0.00  0.00    -0.100 A 
ATOM     23  C   LIG    1        1.294  -1.885  -2.092  0.00  0.00    +0.030 A 
ATOM     24  C   LIG    1        2.565  -2.093  -1.589  0.00  0.00    +0.000 A 
ATOM     25  C   LIG    1        3.378  -1.014  -1.296  0.00  0.00    +0.010 A 
ATOM     26  C   LIG    1        2.920   0.273  -1.508  0.00  0.00    +0.000 A 
ATOM     27  C   LIG    1        1.650   0.481  -2.011  0.00  0.00    +0.020 A 
ENDBRANCH  21  22
ENDBRANCH  15  21
ENDBRANCH   1  16
TORSDOF 5
