REMARK  Name = ZINCBI00000008H5.1
REMARK                            x       y       z     vdW  Elec       q    Type
REMARK                         _______ _______ _______ _____ _____    ______ ____
ROOT
ATOM      1  O   LIG    1        1.208   0.909  -2.779  0.00  0.00    -0.580 OA
ATOM      2  C   LIG    1        0.188   1.541  -2.584  0.00  0.00    +0.710 C 
ATOM      3  N   LIG    1       -0.106   1.981  -1.344  0.00  0.00    -0.750 N 
ATOM      4  H   LIG    1       -0.920   2.485  -1.188  0.00  0.00    +0.400 HD
ATOM      5  N   LIG    1       -0.650   1.802  -3.607  0.00  0.00    -0.730 N 
ATOM      6  H   LIG    1       -1.464   2.306  -3.451  0.00  0.00    +0.400 HD
ENDROOT
BRANCH   3   7
ATOM      7  C   LIG    1        0.805   1.698  -0.232  0.00  0.00    +0.280 C 
BRANCH   7   8
ATOM      8  C   LIG    1        0.241   2.304   1.056  0.00  0.00    +0.200 C 
BRANCH   8   9
ATOM      9  O   LIG    1       -0.984   1.649   1.393  0.00  0.00    -0.550 OA
ATOM     10  H   LIG    1       -0.894   0.698   1.542  0.00  0.00    +0.390 HD
ENDBRANCH   8   9
BRANCH   8  11
ATOM     11  C   LIG    1        1.250   2.116   2.191  0.00  0.00    +0.250 C 
BRANCH  11  12
ATOM     12  N   LIG    1        0.709   2.698   3.427  0.00  0.00    -0.380 N 
ATOM     13  C   LIG    1        1.627   2.424   4.543  0.00  0.00    +0.270 C 
ATOM     14  C   LIG    1        0.914   2.758   5.854  0.00  0.00    +0.110 C 
ATOM     15  C   LIG    1        0.326   4.144   5.776  0.00  0.00    -0.090 A 
ATOM     16  C   LIG    1       -0.058   4.770   6.950  0.00  0.00    +0.040 A 
ATOM     17  C   LIG    1       -0.606   6.037   6.918  0.00  0.00    +0.050 A 
ATOM     18  C   LIG    1       -0.772   6.684   5.707  0.00  0.00    +0.040 A 
ATOM     19  C   LIG    1       -0.388   6.061   4.536  0.00  0.00    +0.040 A 
ATOM     20  C   LIG    1        0.164   4.789   4.567  0.00  0.00    -0.130 A 
ATOM     21  C   LIG    1        0.571   4.149   3.267  0.00  0.00    +0.320 C 
ATOM     22  H   LIG    1       -0.194   2.293   3.624  0.00  0.00    +0.430 HD
ENDBRANCH  11  12
ENDBRANCH   8  11
ENDBRANCH   7   8
ENDBRANCH   3   7
BRANCH   5  23
ATOM     23  C   LIG    1       -0.331   1.324  -4.955  0.00  0.00    +0.340 C 
BRANCH  23  24
ATOM     24  C   LIG    1       -1.348   1.858  -5.931  0.00  0.00    -0.100 A 
ATOM     25  C   LIG    1       -2.323   1.024  -6.437  0.00  0.00    +0.030 A 
ATOM     26  C   LIG    1       -3.257   1.513  -7.333  0.00  0.00    +0.020 A 
ATOM     27  C   LIG    1       -3.219   2.838  -7.726  0.00  0.00    +0.030 A 
ATOM     28  C   LIG    1       -2.247   3.681  -7.226  0.00  0.00    +0.030 A 
ATOM     29  C   LIG    1       -1.308   3.196  -6.318  0.00  0.00    -0.040 A 
BRANCH  29  30
ATOM     30  C   LIG    1       -0.265   4.099  -5.772  0.00  0.00    -0.030 A 
ATOM     31  C   LIG    1       -0.630   5.274  -5.118  0.00  0.00    +0.020 A 
ATOM     32  C   LIG    1        0.344   6.107  -4.607  0.00  0.00    +0.020 A 
ATOM     33  C   LIG    1        1.681   5.784  -4.752  0.00  0.00    -0.120 A 
ATOM     34  C   LIG    1        2.049   4.621  -5.404  0.00  0.00    +0.040 A 
ATOM     35  C   LIG    1        1.083   3.777  -5.915  0.00  0.00    +0.030 A 
BRANCH  33  36
ATOM     36  C   LIG    1        2.740   6.701  -4.197  0.00  0.00    +0.350 C 
BRANCH  36  37
ATOM     37  N   LIG    1        3.119   7.683  -5.216  0.00  0.00    -0.460 N 
ATOM     38  C   LIG    1        2.545   8.909  -5.415  0.00  0.00    +0.110 A 
ATOM     39  C   LIG    1        3.194   9.480  -6.447  0.00  0.00    +0.140 A 
ATOM     40  N   LIG    1        4.138   8.625  -6.868  0.00  0.00    -0.490 NA
ATOM     41  C   LIG    1        4.102   7.548  -6.131  0.00  0.00    +0.380 A 
ENDBRANCH  36  37
ENDBRANCH  33  36
ENDBRANCH  29  30
ENDBRANCH  23  24
ENDBRANCH   5  23
TORSDOF 10
