REMARK  Name = ZINCBI00000008H5.0
REMARK                            x       y       z     vdW  Elec       q    Type
REMARK                         _______ _______ _______ _____ _____    ______ ____
ROOT
ATOM      1  O   LIG    1        8.169   7.986   0.875  0.00  0.00    -0.580 OA
ATOM      2  C   LIG    1        7.232   8.092   1.642  0.00  0.00    +0.710 C 
ATOM      3  N   LIG    1        6.246   7.173   1.632  0.00  0.00    -0.750 N 
ATOM      4  H   LIG    1        5.498   7.257   2.244  0.00  0.00    +0.400 HD
ATOM      5  N   LIG    1        7.179   9.127   2.503  0.00  0.00    -0.730 N 
ATOM      6  H   LIG    1        6.432   9.212   3.115  0.00  0.00    +0.400 HD
ENDROOT
BRANCH   3   7
ATOM      7  C   LIG    1        6.303   6.047   0.696  0.00  0.00    +0.280 C 
BRANCH   7   8
ATOM      8  C   LIG    1        5.072   5.160   0.889  0.00  0.00    +0.200 C 
BRANCH   8   9
ATOM      9  O   LIG    1        3.897   5.891   0.530  0.00  0.00    -0.550 OA
ATOM     10  H   LIG    1        3.889   6.195  -0.388  0.00  0.00    +0.390 HD
ENDBRANCH   8   9
BRANCH   8  11
ATOM     11  C   LIG    1        5.192   3.920   0.002  0.00  0.00    +0.250 C 
BRANCH  11  12
ATOM     12  N   LIG    1        4.003   3.075   0.176  0.00  0.00    -0.380 N 
ATOM     13  C   LIG    1        3.980   2.535   1.544  0.00  0.00    +0.260 C 
ATOM     14  C   LIG    1        2.602   1.925   1.804  0.00  0.00    +0.120 C 
ATOM     15  C   LIG    1        2.245   0.978   0.688  0.00  0.00    -0.090 A 
ATOM     16  C   LIG    1        1.214   0.073   0.888  0.00  0.00    +0.040 A 
ATOM     17  C   LIG    1        0.861  -0.812  -0.111  0.00  0.00    +0.050 A 
ATOM     18  C   LIG    1        1.530  -0.787  -1.321  0.00  0.00    +0.030 A 
ATOM     19  C   LIG    1        2.556   0.114  -1.521  0.00  0.00    +0.040 A 
ATOM     20  C   LIG    1        2.917   0.999  -0.516  0.00  0.00    -0.140 A 
ATOM     21  C   LIG    1        4.046   1.962  -0.776  0.00  0.00    +0.330 C 
ATOM     22  H   LIG    1        3.172   3.625   0.017  0.00  0.00    +0.430 HD
ENDBRANCH  11  12
ENDBRANCH   8  11
ENDBRANCH   7   8
ENDBRANCH   3   7
BRANCH   5  23
ATOM     23  C   LIG    1        8.251  10.126   2.514  0.00  0.00    +0.350 C 
BRANCH  23  24
ATOM     24  C   LIG    1        8.019  11.100   3.640  0.00  0.00    -0.100 A 
ATOM     25  C   LIG    1        7.568  12.376   3.368  0.00  0.00    +0.030 A 
ATOM     26  C   LIG    1        7.353  13.271   4.401  0.00  0.00    +0.020 A 
ATOM     27  C   LIG    1        7.589  12.894   5.710  0.00  0.00    +0.030 A 
ATOM     28  C   LIG    1        8.041  11.620   5.994  0.00  0.00    +0.030 A 
ATOM     29  C   LIG    1        8.253  10.713   4.958  0.00  0.00    -0.040 A 
BRANCH  29  30
ATOM     30  C   LIG    1        8.731   9.340   5.257  0.00  0.00    -0.030 A 
ATOM     31  C   LIG    1        8.013   8.524   6.129  0.00  0.00    +0.020 A 
ATOM     32  C   LIG    1        8.460   7.246   6.399  0.00  0.00    +0.020 A 
ATOM     33  C   LIG    1        9.624   6.780   5.815  0.00  0.00    -0.120 A 
ATOM     34  C   LIG    1       10.343   7.588   4.953  0.00  0.00    +0.040 A 
ATOM     35  C   LIG    1        9.903   8.865   4.672  0.00  0.00    +0.030 A 
BRANCH  33  36
ATOM     36  C   LIG    1       10.110   5.386   6.119  0.00  0.00    +0.350 C 
BRANCH  36  37
ATOM     37  N   LIG    1       10.998   5.422   7.284  0.00  0.00    -0.460 N 
ATOM     38  C   LIG    1       10.625   5.285   8.594  0.00  0.00    +0.110 A 
ATOM     39  C   LIG    1       11.748   5.380   9.331  0.00  0.00    +0.140 A 
ATOM     40  N   LIG    1       12.778   5.570   8.494  0.00  0.00    -0.490 NA
ATOM     41  C   LIG    1       12.337   5.590   7.266  0.00  0.00    +0.380 A 
ENDBRANCH  36  37
ENDBRANCH  33  36
ENDBRANCH  29  30
ENDBRANCH  23  24
ENDBRANCH   5  23
TORSDOF 10
