REMARK  Name = ZINCc70000001mR1.0
REMARK                            x       y       z     vdW  Elec       q    Type
REMARK                         _______ _______ _______ _____ _____    ______ ____
ROOT
ATOM      1  N   LIG    1       -0.020   1.652   0.011  0.00  0.00    -1.040 N 
ATOM      2  H   LIG    1        0.813   2.148   0.006  0.00  0.00    +0.430 HD
ENDROOT
BRANCH   1   3
ATOM      3  C   LIG    1       -1.235   2.331   0.021  0.00  0.00    +0.330 A 
ATOM      4  C   LIG    1       -2.474   1.765   0.017  0.00  0.00    -0.160 A 
ATOM      5  C   LIG    1       -3.416   2.798   0.034  0.00  0.00    +0.270 A 
ATOM      6  N   LIG    1       -2.775   3.939   0.037  0.00  0.00    -0.290 NA
ATOM      7  N   LIG    1       -1.400   3.674   0.029  0.00  0.00    -0.380 N 
ATOM      8  C   LIG    1       -0.329   4.674   0.029  0.00  0.00    +0.350 C 
ENDBRANCH   1   3
BRANCH   1   9
ATOM      9  S   LIG    1        0.002  -0.004   0.002  0.00  0.00    +2.610 S 
ATOM     10  O   LIG    1       -0.848  -0.372   1.079  0.00  0.00    -0.930 OA
ATOM     11  O   LIG    1        1.384  -0.336   0.013  0.00  0.00    -0.940 OA
BRANCH   9  13
ATOM     12  C   LIG    1       -0.786  -1.982  -1.715  0.00  0.00    +0.090 C 
ATOM     13  C   LIG    1       -0.749  -0.458  -1.585  0.00  0.00    -0.340 C 
ENDBRANCH   9  13
ENDBRANCH   1   9
TORSDOF 3
