REMARK  Name = ZINCrH000004oTcS.0
REMARK                            x       y       z     vdW  Elec       q    Type
REMARK                         _______ _______ _______ _____ _____    ______ ____
ROOT
ATOM      1  C   LIG    1       -1.228   1.978   0.736  0.00  0.00    +0.530 C 
ATOM      2  N   LIG    1       -2.139   1.177   1.322  0.00  0.00    -0.660 N 
ATOM      3  H   LIG    1       -2.267   0.271   0.999  0.00  0.00    +0.420 HD
ATOM      4  O   LIG    1       -1.065   3.110   1.142  0.00  0.00    -0.480 OA
ENDROOT
BRANCH   1  15
ATOM      5  C   LIG    1       -2.479   0.608  -1.546  0.00  0.00    +0.100 C 
ATOM      6  C   LIG    1       -1.251   1.507  -1.707  0.00  0.00    +0.160 C 
ATOM      7  O   LIG    1       -0.442   1.030  -2.787  0.00  0.00    -0.300 OA
ATOM      8  C   LIG    1        0.821   1.531  -2.873  0.00  0.00    +0.050 A 
ATOM      9  C   LIG    1        1.525   1.400  -4.060  0.00  0.00    +0.030 A 
ATOM     10  C   LIG    1        2.811   1.897  -4.161  0.00  0.00    +0.030 A 
ATOM     11  C   LIG    1        3.398   2.526  -3.079  0.00  0.00    +0.030 A 
ATOM     12  C   LIG    1        2.700   2.661  -1.893  0.00  0.00    +0.030 A 
ATOM     13  C   LIG    1        1.410   2.165  -1.786  0.00  0.00    +0.050 A 
ATOM     14  O   LIG    1        0.734   2.308  -0.613  0.00  0.00    -0.280 OA
ATOM     15  C   LIG    1       -0.410   1.469  -0.423  0.00  0.00    +0.150 C 
ENDBRANCH   1  15
BRANCH   2  16
ATOM     16  C   LIG    1       -2.901   1.652   2.397  0.00  0.00    +0.200 A 
ATOM     17  C   LIG    1       -2.374   2.610   3.252  0.00  0.00    +0.000 A 
ATOM     18  C   LIG    1       -3.128   3.083   4.311  0.00  0.00    +0.180 A 
ATOM     19  C   LIG    1       -4.410   2.591   4.525  0.00  0.00    -0.000 A 
ATOM     20  C   LIG    1       -4.935   1.628   3.672  0.00  0.00    +0.120 A 
ATOM     21  F   LIG    1       -6.181   1.149   3.879  0.00  0.00    -0.120 F 
ATOM     22  F   LIG    1       -2.616   4.020   5.139  0.00  0.00    -0.110 F 
ATOM     23  C   LIG    1       -4.182   1.160   2.610  0.00  0.00    -0.030 A 
BRANCH  19  24
ATOM     24  N   LIG    1       -5.173   3.067   5.601  0.00  0.00    -0.470 N 
ATOM     25  C   LIG    1       -6.450   3.659   5.127  0.00  0.00    +0.180 C 
ATOM     26  C   LIG    1       -7.345   3.631   6.392  0.00  0.00    +0.040 C 
ATOM     27  C   LIG    1       -6.950   2.296   7.065  0.00  0.00    +0.020 C 
ATOM     28  C   LIG    1       -5.553   1.963   6.510  0.00  0.00    +0.170 C 
ENDBRANCH  19  24
ENDBRANCH   2  16
TORSDOF 3
