REMARK  Name = ZINCqH0000001Nhp.0
REMARK                            x       y       z     vdW  Elec       q    Type
REMARK                         _______ _______ _______ _____ _____    ______ ____
ROOT
ATOM      1  C   LIG    1       -3.841   5.713   0.151  0.00  0.00    +0.510 C 
ATOM      2  N   LIG    1       -4.099   7.033   0.244  0.00  0.00    -0.670 N 
ATOM      3  H   LIG    1       -3.369   7.671   0.243  0.00  0.00    +0.420 HD
ATOM      4  O   LIG    1       -4.756   4.922   0.054  0.00  0.00    -0.510 OA
ENDROOT
BRANCH   2   5
ATOM      5  C   LIG    1       -5.421   7.482   0.343  0.00  0.00    +0.140 A 
ATOM      6  C   LIG    1       -5.792   8.684  -0.249  0.00  0.00    +0.010 A 
ATOM      7  C   LIG    1       -7.097   9.130  -0.158  0.00  0.00    +0.040 A 
ATOM      8  C   LIG    1       -8.038   8.390   0.529  0.00  0.00    +0.030 A 
ATOM      9  C   LIG    1       -7.674   7.184   1.131  0.00  0.00    -0.120 A 
ATOM     10  C   LIG    1       -6.359   6.732   1.035  0.00  0.00    +0.090 A 
BRANCH   9  11
ATOM     11  C   LIG    1       -8.680   6.390   1.867  0.00  0.00    +0.560 C 
ATOM     12  N   LIG    1       -9.951   6.829   1.959  0.00  0.00    -0.700 N 
ATOM     13  H   LIG    1      -10.206   7.667   1.541  0.00  0.00    +0.400 HD
ATOM     14  O   LIG    1       -8.361   5.340   2.391  0.00  0.00    -0.530 OA
BRANCH  12  15
ATOM     15  C   LIG    1      -10.948   6.042   2.688  0.00  0.00    +0.220 C 
ATOM     16  C   LIG    1      -12.327   5.879   2.047  0.00  0.00    +0.010 C 
ATOM     17  C   LIG    1      -12.153   6.788   3.265  0.00  0.00    +0.020 C 
ENDBRANCH  12  15
ENDBRANCH   9  11
ENDBRANCH   2   5
BRANCH   1  18
ATOM     18  C   LIG    1       -2.417   5.221   0.166  0.00  0.00    +0.300 C 
BRANCH  18  19
ATOM     19  N   LIG    1       -2.404   3.760   0.052  0.00  0.00    -0.740 N 
ATOM     20  H   LIG    1       -3.240   3.272  -0.018  0.00  0.00    +0.410 HD
BRANCH  19  26
ATOM     21  C   LIG    1       -1.177   1.682   0.037  0.00  0.00    -0.140 A 
ATOM     22  C   LIG    1        0.025   1.004   0.035  0.00  0.00    +0.050 A 
ATOM     23  C   LIG    1        1.217   1.706   0.028  0.00  0.00    -0.050 A 
ATOM     24  C   LIG    1        1.208   3.088   0.029  0.00  0.00    +0.040 A 
ATOM     25  C   LIG    1        0.009   3.773   0.037  0.00  0.00    -0.080 A 
ATOM     26  C   LIG    1       -1.190   3.071   0.044  0.00  0.00    +0.220 A 
BRANCH  21  28
ATOM     27  C   LIG    1       -2.607   0.133  -1.269  0.00  0.00    +0.030 C 
ATOM     28  C   LIG    1       -2.475   0.916   0.039  0.00  0.00    +0.020 C 
ATOM     29  C   LIG    1       -2.492  -0.057   1.220  0.00  0.00    +0.030 C 
ENDBRANCH  21  28
ENDBRANCH  19  26
ENDBRANCH  18  19
ENDBRANCH   1  18
TORSDOF 7
