REMARK  Name = ZINCqH0000050Zff.0
REMARK                            x       y       z     vdW  Elec       q    Type
REMARK                         _______ _______ _______ _____ _____    ______ ____
ROOT
ATOM      1  C   LIG    1       -1.296   1.738   0.494  0.00  0.00    +0.390 A 
ATOM      2  C   LIG    1       -0.118   1.026   0.716  0.00  0.00    -0.110 A 
ATOM      3  C   LIG    1        1.075   1.723   0.761  0.00  0.00    +0.400 A 
ATOM      4  N   LIG    1        1.062   3.037   0.599  0.00  0.00    -0.570 NA
ATOM      5  C   LIG    1       -0.073   3.687   0.396  0.00  0.00    +0.540 A 
ATOM      6  N   LIG    1       -1.234   3.056   0.346  0.00  0.00    -0.560 NA
ENDROOT
BRANCH   1   7
ATOM      7  O   LIG    1       -2.487   1.095   0.436  0.00  0.00    -0.230 OA
BRANCH   7  12
ATOM      8  F   LIG    1       -6.921   4.007  -0.928  0.00  0.00    -0.130 F 
ATOM      9  C   LIG    1       -5.827   3.289  -0.592  0.00  0.00    +0.110 A 
ATOM     10  C   LIG    1       -4.926   2.904  -1.569  0.00  0.00    +0.000 A 
ATOM     11  C   LIG    1       -3.807   2.169  -1.227  0.00  0.00    +0.060 A 
ATOM     12  C   LIG    1       -3.587   1.818   0.097  0.00  0.00    +0.070 A 
ATOM     13  C   LIG    1       -4.495   2.201   1.075  0.00  0.00    +0.060 A 
ATOM     14  C   LIG    1       -5.610   2.939   0.730  0.00  0.00    +0.010 A 
ENDBRANCH   7  12
ENDBRANCH   1   7
BRANCH   5  15
ATOM     15  O   LIG    1       -0.044   5.032   0.236  0.00  0.00    -0.220 OA
BRANCH  15  16
ATOM     16  C   LIG    1        1.150   5.666   0.374  0.00  0.00    +0.120 A 
ATOM     17  C   LIG    1        1.422   6.391   1.525  0.00  0.00    +0.030 A 
ATOM     18  C   LIG    1        2.637   7.032   1.669  0.00  0.00    +0.070 A 
ATOM     19  C   LIG    1        3.582   6.962   0.663  0.00  0.00    +0.010 A 
ATOM     20  C   LIG    1        3.313   6.242  -0.494  0.00  0.00    +0.160 A 
ATOM     21  C   LIG    1        2.095   5.593  -0.638  0.00  0.00    +0.040 A 
BRANCH  20  22
ATOM     22  N   LIG    1        4.271   6.170  -1.514  0.00  0.00    -0.330 N 
ATOM     23  C   LIG    1        5.490   6.743  -1.519  0.00  0.00    +0.490 A 
ATOM     24  N   LIG    1        6.076   6.439  -2.649  0.00  0.00    -0.530 NA
ATOM     25  C   LIG    1        5.268   5.679  -3.388  0.00  0.00    +0.440 A 
ATOM     26  N   LIG    1        4.154   5.481  -2.733  0.00  0.00    -0.310 NA
ENDBRANCH  20  22
ENDBRANCH  15  16
ENDBRANCH   5  15
TORSDOF 5
