REMARK  Name = ZINCpk000000pVl3.0
REMARK                            x       y       z     vdW  Elec       q    Type
REMARK                         _______ _______ _______ _____ _____    ______ ____
ROOT
ATOM      1  C   LIG    1        0.661  -1.326  -1.321  0.00  0.00    +0.180 A 
ATOM      2  C   LIG    1        0.122  -0.758  -2.458  0.00  0.00    -0.290 A 
ATOM      3  C   LIG    1        1.201  -0.300  -3.248  0.00  0.00    +0.300 A 
ATOM      4  N   LIG    1        2.310  -0.586  -2.624  0.00  0.00    -0.280 NA
ATOM      5  N   LIG    1        2.000  -1.227  -1.419  0.00  0.00    -0.310 N 
ENDROOT
BRANCH   2   6
ATOM      6  C   LIG    1       -1.311  -0.648  -2.785  0.00  0.00    +0.600 C 
ATOM      7  N   LIG    1       -1.732  -0.859  -4.048  0.00  0.00    -0.610 N 
ATOM      8  C   LIG    1       -0.793  -1.310  -5.085  0.00  0.00    +0.270 C 
ATOM      9  C   LIG    1       -1.363  -2.576  -5.742  0.00  0.00    +0.020 C 
ATOM     10  C   LIG    1       -2.775  -2.285  -6.257  0.00  0.00    -0.010 C 
ATOM     11  C   LIG    1       -3.679  -1.903  -5.083  0.00  0.00    +0.060 C 
ATOM     12  C   LIG    1       -3.136  -0.635  -4.417  0.00  0.00    +0.280 C 
ATOM     13  O   LIG    1       -2.113  -0.366  -1.916  0.00  0.00    -0.530 OA
BRANCH  10  14
ATOM     14  C   LIG    1       -3.325  -3.513  -6.935  0.00  0.00    +0.510 C 
ATOM     15  N   LIG    1       -2.688  -4.035  -8.003  0.00  0.00    -0.740 N 
ATOM     16  H   LIG    1       -1.877  -3.620  -8.334  0.00  0.00    +0.400 HD
ATOM     17  C   LIG    1       -3.223  -5.229  -8.662  0.00  0.00    +0.290 C 
ATOM     18  O   LIG    1       -4.340  -4.032  -6.521  0.00  0.00    -0.530 OA
ENDBRANCH  10  14
ENDBRANCH   2   6
BRANCH   5  19
ATOM     19  C   LIG    1        2.925  -1.686  -0.475  0.00  0.00    +0.360 A 
ATOM     20  C   LIG    1        4.214  -2.011  -0.877  0.00  0.00    +0.000 A 
ATOM     21  C   LIG    1        5.121  -2.459   0.068  0.00  0.00    +0.100 A 
ATOM     22  C   LIG    1        4.701  -2.577   1.385  0.00  0.00    -0.030 A 
ATOM     23  C   LIG    1        3.401  -2.241   1.712  0.00  0.00    +0.300 A 
ATOM     24  N   LIG    1        2.561  -1.812   0.791  0.00  0.00    -0.490 NA
ENDBRANCH   5  19
BRANCH   1  26
ATOM     25  C   LIG    1       -0.414  -0.881   0.868  0.00  0.00    +0.040 C 
ATOM     26  C   LIG    1       -0.107  -1.949  -0.184  0.00  0.00    +0.110 C 
ENDBRANCH   1  26
TORSDOF 4
