REMARK  Name = ZINCrH000008uzls.1
REMARK                            x       y       z     vdW  Elec       q    Type
REMARK                         _______ _______ _______ _____ _____    ______ ____
ROOT
ATOM      1  C   LIG    1        2.452   0.266  -0.436  0.00  0.00    +0.250 C 
ATOM      2  C   LIG    1        1.406  -0.472   0.405  0.00  0.00    +0.020 C 
ATOM      3  C   LIG    1        0.002  -0.004   0.002  0.00  0.00    +0.140 C 
ATOM      4  C   LIG    1       -0.018   1.504   0.010  0.00  0.00    +0.010 A 
ATOM      5  C   LIG    1        1.091   2.274   0.004  0.00  0.00    -0.020 A 
ATOM      6  N   LIG    1        0.678   3.571   0.017  0.00  0.00    -0.550 N 
ATOM      7  H   LIG    1        1.246   4.358   0.017  0.00  0.00    +0.420 HD
ATOM      8  C   LIG    1       -0.675   3.556   0.029  0.00  0.00    +0.220 A 
ATOM      9  N   LIG    1       -1.081   2.313   0.030  0.00  0.00    -0.480 NA
ATOM     10  C   LIG    1        2.499   1.740  -0.015  0.00  0.00    +0.110 C 
ENDROOT
BRANCH   8  11
ATOM     11  C   LIG    1       -1.567   4.771   0.044  0.00  0.00    +0.100 C 
ATOM     12  C   LIG    1       -0.923   5.886  -0.782  0.00  0.00    +0.010 C 
ATOM     13  C   LIG    1       -1.829   7.119  -0.766  0.00  0.00    +0.020 C 
ATOM     14  C   LIG    1       -2.016   7.596   0.676  0.00  0.00    +0.000 C 
ATOM     15  C   LIG    1       -2.659   6.481   1.502  0.00  0.00    +0.020 C 
ATOM     16  C   LIG    1       -1.754   5.247   1.486  0.00  0.00    +0.020 C 
ENDBRANCH   8  11
BRANCH   1  18
ATOM     17  C   LIG    1        4.718  -0.239  -1.174  0.00  0.00    +0.520 C 
ATOM     18  N   LIG    1        3.767  -0.345  -0.226  0.00  0.00    -0.730 N 
ATOM     19  H   LIG    1        3.952  -0.826   0.596  0.00  0.00    +0.400 HD
ATOM     20  O   LIG    1        4.487   0.362  -2.202  0.00  0.00    -0.530 OA
BRANCH  17  21
ATOM     21  C   LIG    1        6.071  -0.867  -0.958  0.00  0.00    +0.040 C 
BRANCH  21  22
ATOM     22  C   LIG    1        6.958  -0.601  -2.176  0.00  0.00    +0.130 C 
BRANCH  22  23
ATOM     23  C   LIG    1        8.331  -1.239  -1.957  0.00  0.00    +0.030 C 
ATOM     24  N   LIG    1        8.444  -2.352  -1.011  0.00  0.00    -0.120 NA
ATOM     25  N   LIG    1        8.882  -1.268  -0.599  0.00  0.00    -0.120 NA
BRANCH  23  26
ATOM     26  C   LIG    1        9.300  -1.180  -3.139  0.00  0.00    +0.120 C 
BRANCH  26  27
ATOM     27  C   LIG    1       10.617  -1.858  -2.753  0.00  0.00    +0.160 C 
BRANCH  27  29
ATOM     28  C   LIG    1       12.293  -1.756  -4.798  0.00  0.00    +0.030 C 
ATOM     29  C   LIG    1       11.549  -1.802  -3.891  0.00  0.00    -0.190 C 
ENDBRANCH  27  29
ENDBRANCH  26  27
ENDBRANCH  23  26
ENDBRANCH  22  23
ENDBRANCH  21  22
ENDBRANCH  17  21
ENDBRANCH   1  18
TORSDOF 8
