REMARK  Name = ZINCrH000008uzls.0
REMARK                            x       y       z     vdW  Elec       q    Type
REMARK                         _______ _______ _______ _____ _____    ______ ____
ROOT
ATOM      1  C   LIG    1        5.882   2.388   0.041  0.00  0.00    +0.240 C 
ATOM      2  C   LIG    1        5.387   3.823  -0.162  0.00  0.00    +0.040 C 
ATOM      3  C   LIG    1        4.076   4.025   0.609  0.00  0.00    +0.120 C 
ATOM      4  C   LIG    1        3.144   2.892   0.268  0.00  0.00    -0.030 A 
ATOM      5  C   LIG    1        3.529   1.734  -0.312  0.00  0.00    +0.010 A 
ATOM      6  N   LIG    1        2.445   0.970  -0.466  0.00  0.00    -0.480 NA
ATOM      7  C   LIG    1        1.401   1.607  -0.003  0.00  0.00    +0.220 A 
ATOM      8  N   LIG    1        1.799   2.815   0.460  0.00  0.00    -0.550 N 
ATOM      9  H   LIG    1        1.233   3.497   0.855  0.00  0.00    +0.420 HD
ATOM     10  C   LIG    1        4.953   1.416  -0.696  0.00  0.00    +0.120 C 
ENDROOT
BRANCH   7  11
ATOM     11  C   LIG    1       -0.013   1.086   0.008  0.00  0.00    +0.100 C 
ATOM     12  C   LIG    1       -0.729   1.579   1.267  0.00  0.00    +0.010 C 
ATOM     13  C   LIG    1       -2.164   1.050   1.278  0.00  0.00    +0.020 C 
ATOM     14  C   LIG    1       -2.904   1.556   0.038  0.00  0.00    +0.000 C 
ATOM     15  C   LIG    1       -2.188   1.063  -1.221  0.00  0.00    +0.020 C 
ATOM     16  C   LIG    1       -0.753   1.593  -1.232  0.00  0.00    +0.020 C 
ENDBRANCH   7  11
BRANCH   1  18
ATOM     17  C   LIG    1        8.067   1.311  -0.009  0.00  0.00    +0.520 C 
ATOM     18  N   LIG    1        7.241   2.261  -0.490  0.00  0.00    -0.730 N 
ATOM     19  H   LIG    1        7.547   2.861  -1.188  0.00  0.00    +0.400 HD
ATOM     20  O   LIG    1        7.684   0.561   0.864  0.00  0.00    -0.530 OA
BRANCH  17  21
ATOM     21  C   LIG    1        9.465   1.180  -0.555  0.00  0.00    +0.040 C 
BRANCH  21  22
ATOM     22  C   LIG    1       10.186   0.034   0.156  0.00  0.00    +0.130 C 
BRANCH  22  23
ATOM     23  C   LIG    1       11.606  -0.099  -0.399  0.00  0.00    +0.040 C 
ATOM     24  N   LIG    1       12.268   1.098  -0.922  0.00  0.00    -0.120 NA
ATOM     25  N   LIG    1       11.857   0.305  -1.784  0.00  0.00    -0.120 NA
BRANCH  23  26
ATOM     26  C   LIG    1       12.468  -1.207   0.210  0.00  0.00    +0.120 C 
BRANCH  26  27
ATOM     27  C   LIG    1       13.847  -1.201  -0.453  0.00  0.00    +0.160 C 
BRANCH  27  29
ATOM     28  C   LIG    1       15.339  -3.116   0.599  0.00  0.00    +0.030 C 
ATOM     29  C   LIG    1       14.677  -2.267   0.132  0.00  0.00    -0.190 C 
ENDBRANCH  27  29
ENDBRANCH  26  27
ENDBRANCH  23  26
ENDBRANCH  22  23
ENDBRANCH  21  22
ENDBRANCH  17  21
ENDBRANCH   1  18
TORSDOF 8
