REMARK  Name = ZINCqH0000002Llv.0
REMARK                            x       y       z     vdW  Elec       q    Type
REMARK                         _______ _______ _______ _____ _____    ______ ____
ROOT
ATOM      1  C   LIG    1       -0.735   2.019   1.269  0.00  0.00    +0.250 C 
ENDROOT
BRANCH   1   2
ATOM      2  C   LIG    1       -0.864   3.520   1.218  0.00  0.00    +0.520 C 
ATOM      3  N   LIG    1       -1.540   4.104   0.209  0.00  0.00    -0.720 N 
ATOM      4  H   LIG    1       -1.943   3.559  -0.484  0.00  0.00    +0.410 HD
ATOM      5  O   LIG    1       -0.360   4.202   2.085  0.00  0.00    -0.530 OA
BRANCH   3   6
ATOM      6  C   LIG    1       -1.665   5.563   0.159  0.00  0.00    +0.310 C 
BRANCH   6   7
ATOM      7  C   LIG    1       -2.473   5.963  -1.077  0.00  0.00    +0.040 C 
ATOM      8  C   LIG    1       -2.602   7.484  -1.127  0.00  0.00    +0.130 C 
ATOM      9  S   LIG    1       -3.374   7.989  -2.686  0.00  0.00    -0.240 S 
ATOM     10  C   LIG    1       -5.017   7.229  -2.603  0.00  0.00    +0.130 C 
ATOM     11  C   LIG    1       -4.888   5.709  -2.553  0.00  0.00    +0.130 C 
ATOM     12  S   LIG    1       -4.115   5.204  -0.994  0.00  0.00    -0.230 S 
ENDBRANCH   6   7
ENDBRANCH   3   6
ENDBRANCH   1   2
BRANCH   1  13
ATOM     13  N   LIG    1        0.038   1.636   2.453  0.00  0.00    -0.710 N 
ATOM     14  H   LIG    1        0.667   2.261   2.846  0.00  0.00    +0.410 HD
ATOM     15  C   LIG    1       -0.124   0.413   2.997  0.00  0.00    +0.600 C 
ATOM     16  O   LIG    1       -0.912  -0.372   2.504  0.00  0.00    -0.520 OA
BRANCH  15  17
ATOM     17  C   LIG    1        0.652   0.028   4.184  0.00  0.00    -0.230 A 
ATOM     18  C   LIG    1        0.562  -1.155   4.801  0.00  0.00    +0.130 A 
ATOM     19  C   LIG    1        1.396  -1.321   5.918  0.00  0.00    -0.090 A 
ATOM     20  C   LIG    1        1.530  -2.446   6.767  0.00  0.00    +0.070 A 
ATOM     21  C   LIG    1        2.395  -2.421   7.815  0.00  0.00    +0.010 A 
ATOM     22  C   LIG    1        3.163  -1.292   8.073  0.00  0.00    +0.040 A 
ATOM     23  C   LIG    1        3.055  -0.183   7.268  0.00  0.00    +0.040 A 
ATOM     24  C   LIG    1        2.172  -0.186   6.183  0.00  0.00    -0.120 A 
ATOM     25  S   LIG    1        1.819   1.061   4.992  0.00  0.00    +0.120 S 
ENDBRANCH  15  17
ENDBRANCH   1  13
BRANCH   1  26
ATOM     26  C   LIG    1       -0.019   1.526   0.010  0.00  0.00    +0.020 C 
BRANCH  26  28
ATOM     27  C   LIG    1        0.718  -0.497  -1.257  0.00  0.00    +0.010 C 
ATOM     28  C   LIG    1        0.002  -0.004   0.002  0.00  0.00    +0.020 C 
ENDBRANCH  26  28
ENDBRANCH   1  26
TORSDOF 7
