REMARK  Name = ZINCrg00001JduZI.2
REMARK                            x       y       z     vdW  Elec       q    Type
REMARK                         _______ _______ _______ _____ _____    ______ ____
ROOT
ATOM      1  C   LIG    1        1.263   6.134   5.584  0.00  0.00    +0.270 C 
ATOM      2  C   LIG    1        2.814   6.096   5.598  0.00  0.00    +0.030 C 
ATOM      3  C   LIG    1        3.156   6.739   4.231  0.00  0.00    +0.170 C 
ATOM      4  N   LIG    1        2.110   6.246   3.309  0.00  0.00    -0.520 NA
ATOM      5  C   LIG    1        1.776   7.261   2.301  0.00  0.00    +0.190 C 
ATOM      6  C   LIG    1        0.925   5.879   4.102  0.00  0.00    +0.100 C 
ATOM      7  C   LIG    1       -0.267   6.744   3.693  0.00  0.00    +0.000 C 
ATOM      8  C   LIG    1       -1.497   6.319   4.501  0.00  0.00    +0.030 C 
ATOM      9  C   LIG    1       -1.762   4.830   4.271  0.00  0.00    +0.170 C 
ATOM     10  N   LIG    1       -0.591   4.050   4.693  0.00  0.00    -0.520 NA
ATOM     11  C   LIG    1        0.594   4.402   3.899  0.00  0.00    +0.210 C 
ENDROOT
BRANCH   1  13
ATOM     12  C   LIG    1        0.402   7.646   7.289  0.00  0.00    +0.580 C 
ATOM     13  N   LIG    1        0.772   7.447   6.009  0.00  0.00    -0.720 N 
ATOM     14  H   LIG    1        0.714   8.174   5.369  0.00  0.00    +0.390 HD
ATOM     15  O   LIG    1        0.475   6.736   8.092  0.00  0.00    -0.520 OA
BRANCH  12  21
ATOM     16  C   LIG    1       -0.480   8.251  10.185  0.00  0.00    +0.120 C 
ATOM     17  C   LIG    1       -0.507   9.262   9.068  0.00  0.00    -0.050 A 
ATOM     18  C   LIG    1       -0.914  10.516   9.224  0.00  0.00    -0.070 A 
ATOM     19  S   LIG    1       -0.804  11.394   7.709  0.00  0.00    +0.190 S 
ATOM     20  C   LIG    1       -0.196  10.034   6.880  0.00  0.00    -0.060 A 
ATOM     21  C   LIG    1       -0.091   8.966   7.716  0.00  0.00    -0.150 A 
ENDBRANCH  12  21
ENDBRANCH   1  13
BRANCH  10  22
ATOM     22  C   LIG    1       -0.864   2.609   4.621  0.00  0.00    +0.370 C 
BRANCH  22  23
ATOM     23  C   LIG    1       -1.064   2.207   3.182  0.00  0.00    +0.130 A 
ATOM     24  N   LIG    1       -0.136   1.807   2.348  0.00  0.00    -0.300 NA
ATOM     25  N   LIG    1       -0.701   1.556   1.217  0.00  0.00    -0.140 N 
ATOM     26  N   LIG    1       -1.963   1.792   1.315  0.00  0.00    -0.060 NA
ATOM     27  C   LIG    1       -0.017   1.083   0.011  0.00  0.00    +0.410 C 
ATOM     28  N   LIG    1       -2.218   2.189   2.516  0.00  0.00    -0.280 NA
ENDBRANCH  22  23
ENDBRANCH  10  22
TORSDOF 4
