REMARK  Name = ZINCrg00001JduZi.0
REMARK                            x       y       z     vdW  Elec       q    Type
REMARK                         _______ _______ _______ _____ _____    ______ ____
ROOT
ATOM      1  C   LIG    1       -1.463   2.685   3.908  0.00  0.00    +0.050 C 
ATOM      2  C   LIG    1       -0.924   1.253   3.898  0.00  0.00    +0.140 C 
ENDROOT
BRANCH   2   3
ATOM      3  N   LIG    1        0.061   1.094   4.977  0.00  0.00    -0.490 NA
ATOM      4  C   LIG    1        0.457  -0.323   5.127  0.00  0.00    +0.190 C 
ATOM      5  C   LIG    1        0.715  -0.564   6.626  0.00  0.00    +0.010 C 
ATOM      6  C   LIG    1        0.409   0.788   7.311  0.00  0.00    +0.170 C 
ATOM      7  C   LIG    1       -0.515   1.494   6.287  0.00  0.00    +0.200 C 
BRANCH   6   8
ATOM      8  O   LIG    1       -0.272   0.585   8.550  0.00  0.00    -0.300 OA
BRANCH   8   9
ATOM      9  C   LIG    1        0.497   0.333   9.643  0.00  0.00    +0.100 A 
ATOM     10  C   LIG    1        1.868   0.181   9.507  0.00  0.00    -0.040 A 
ATOM     11  C   LIG    1        2.649  -0.071  10.620  0.00  0.00    +0.040 A 
ATOM     12  C   LIG    1        2.063  -0.182  11.867  0.00  0.00    +0.000 A 
ATOM     13  C   LIG    1        0.694  -0.036  12.006  0.00  0.00    +0.020 A 
ATOM     14  C   LIG    1       -0.091   0.221  10.897  0.00  0.00    +0.060 A 
ATOM     15  F   LIG    1       -1.427   0.363  11.033  0.00  0.00    -0.130 F 
ENDBRANCH   8   9
ENDBRANCH   6   8
ENDBRANCH   2   3
BRANCH   2  16
ATOM     16  C   LIG    1       -0.265   0.973   2.572  0.00  0.00    +0.540 C 
ATOM     17  N   LIG    1       -0.981   1.059   1.433  0.00  0.00    -1.130 NA
ATOM     18  O   LIG    1        0.908   0.670   2.530  0.00  0.00    -0.610 OA
BRANCH  17  19
ATOM     19  S   LIG    1       -0.257   0.751  -0.024  0.00  0.00    +2.550 S 
ATOM     20  O   LIG    1        0.724   1.771  -0.151  0.00  0.00    -1.010 OA
ATOM     21  O   LIG    1        0.115  -0.618   0.051  0.00  0.00    -1.010 OA
BRANCH  19  22
ATOM     22  C   LIG    1       -1.579   0.985  -1.244  0.00  0.00    -0.360 C 
BRANCH  22  23
ATOM     23  C   LIG    1       -1.030   0.726  -2.648  0.00  0.00    +0.060 C 
BRANCH  23  24
ATOM     24  C   LIG    1       -2.145   0.923  -3.677  0.00  0.00    +0.260 C 
BRANCH  24  25
ATOM     25  N   LIG    1       -1.617   0.675  -5.025  0.00  0.00    -0.390 N 
ATOM     26  C   LIG    1       -2.653   0.980  -6.021  0.00  0.00    +0.310 C 
ATOM     27  C   LIG    1       -1.223  -0.736  -5.144  0.00  0.00    +0.310 C 
ATOM     28  H   LIG    1       -0.813   1.263  -5.185  0.00  0.00    +0.430 HD
ENDBRANCH  24  25
ENDBRANCH  23  24
ENDBRANCH  22  23
ENDBRANCH  19  22
ENDBRANCH  17  19
ENDBRANCH   2  16
TORSDOF 9
