REMARK  Name = ZINCvU00000007dG.0
REMARK                            x       y       z     vdW  Elec       q    Type
REMARK                         _______ _______ _______ _____ _____    ______ ____
ROOT
ATOM      1  N   LIG    1       -2.237   4.082   0.045  0.00  0.00    -0.480 N 
ATOM      2  C   LIG    1       -1.235   3.132   0.031  0.00  0.00    +0.050 A 
ATOM      3  C   LIG    1       -1.219   1.744   0.017  0.00  0.00    +0.010 A 
ATOM      4  C   LIG    1       -0.013   1.076   0.008  0.00  0.00    +0.030 A 
ATOM      5  C   LIG    1        1.182   1.781   0.000  0.00  0.00    +0.000 A 
ATOM      6  C   LIG    1        1.185   3.147   0.008  0.00  0.00    +0.070 A 
ATOM      7  C   LIG    1       -0.025   3.846   0.023  0.00  0.00    +0.050 A 
ATOM      8  N   LIG    1       -0.344   5.166   0.033  0.00  0.00    -0.480 NA
ATOM      9  C   LIG    1       -1.638   5.303   0.046  0.00  0.00    +0.290 A 
ENDROOT
BRANCH   9  10
ATOM     10  C   LIG    1       -2.366   6.622   0.060  0.00  0.00    +0.090 C 
ATOM     11  C   LIG    1       -1.906   7.495   1.250  0.00  0.00    +0.090 C 
ATOM     12  C   LIG    1       -1.901   8.904   0.696  0.00  0.00    +0.520 C 
ATOM     13  N   LIG    1       -1.935   8.872  -0.647  0.00  0.00    -0.610 N 
ATOM     14  O   LIG    1       -1.871   9.914   1.367  0.00  0.00    -0.520 OA
ATOM     15  C   LIG    1       -1.956   7.493  -1.148  0.00  0.00    +0.290 C 
BRANCH  13  16
ATOM     16  C   LIG    1       -1.951  10.062  -1.502  0.00  0.00    +0.170 C 
ATOM     17  C   LIG    1       -0.725  10.048  -2.417  0.00  0.00    +0.030 C 
ATOM     18  C   LIG    1       -1.921  11.318  -0.628  0.00  0.00    +0.060 C 
ATOM     19  C   LIG    1       -3.222  10.062  -2.353  0.00  0.00    +0.030 C 
ENDBRANCH  13  16
ENDBRANCH   9  10
BRANCH   1  20
ATOM     20  C   LIG    1       -3.679   3.822   0.058  0.00  0.00    +0.310 C 
BRANCH  20  21
ATOM     21  C   LIG    1       -4.195   3.740  -1.380  0.00  0.00    +0.020 C 
BRANCH  21  22
ATOM     22  C   LIG    1       -5.701   3.469  -1.366  0.00  0.00    +0.190 C 
BRANCH  22  23
ATOM     23  O   LIG    1       -6.183   3.392  -2.709  0.00  0.00    -0.330 OA
BRANCH  23  31
ATOM     24  C   LIG    1       -7.010   0.697  -2.899  0.00  0.00    +0.100 C 
ATOM     25  C   LIG    1       -7.977   1.851  -2.975  0.00  0.00    -0.100 A 
ATOM     26  C   LIG    1       -9.327   1.612  -3.139  0.00  0.00    +0.010 A 
ATOM     27  C   LIG    1      -10.214   2.671  -3.214  0.00  0.00    +0.020 A 
ATOM     28  C   LIG    1       -9.752   3.970  -3.121  0.00  0.00    +0.010 A 
ATOM     29  C   LIG    1       -8.402   4.215  -2.952  0.00  0.00    -0.100 A 
ATOM     30  C   LIG    1       -7.899   5.632  -2.851  0.00  0.00    +0.100 C 
ATOM     31  C   LIG    1       -7.511   3.154  -2.876  0.00  0.00    +0.090 A 
ENDBRANCH  23  31
ENDBRANCH  22  23
ENDBRANCH  21  22
ENDBRANCH  20  21
ENDBRANCH   1  20
TORSDOF 7
