REMARK  Name = ZINCnE000008JcvG.0
REMARK                            x       y       z     vdW  Elec       q    Type
REMARK                         _______ _______ _______ _____ _____    ______ ____
ROOT
ATOM      1  N   LIG    1        4.779   1.046  -0.213  0.00  0.00    -0.640 N 
ATOM      2  H   LIG    1        4.761   0.123   0.085  0.00  0.00    +0.410 HD
ATOM      3  C   LIG    1        3.643   1.644  -0.625  0.00  0.00    +0.690 C 
ATOM      4  N   LIG    1        2.465   0.997  -0.519  0.00  0.00    -0.690 N 
ATOM      5  H   LIG    1        2.423   0.135  -0.077  0.00  0.00    +0.410 HD
ATOM      6  O   LIG    1        3.680   2.766  -1.091  0.00  0.00    -0.570 OA
ENDROOT
BRANCH   1  11
ATOM      7  C   LIG    1        7.167   3.845  -0.211  0.00  0.00    -0.770 A 
ATOM      8  C   LIG    1        8.371   3.166  -0.224  0.00  0.00    +0.120 A 
ATOM      9  C   LIG    1        8.390   1.784  -0.234  0.00  0.00    -0.160 A 
ATOM     10  C   LIG    1        7.200   1.075  -0.230  0.00  0.00    +0.300 A 
ATOM     11  C   LIG    1        5.986   1.758  -0.217  0.00  0.00    -0.010 A 
ATOM     12  O   LIG    1        7.217  -0.285  -0.240  0.00  0.00    -0.710 OA
ATOM     13  C   LIG    1        5.975   3.145  -0.212  0.00  0.00    +0.150 A 
BRANCH   7  14
ATOM     14  S   LIG    1        7.152   5.607  -0.199  0.00  0.00    +2.510 S 
ATOM     15  O   LIG    1        8.390   5.964   0.400  0.00  0.00    -0.960 OA
ATOM     16  O   LIG    1        5.916   5.942   0.418  0.00  0.00    -0.950 OA
BRANCH  14  18
ATOM     17  C   LIG    1        7.120   7.596  -2.076  0.00  0.00    +0.070 C 
ATOM     18  C   LIG    1        7.135   6.072  -1.952  0.00  0.00    -0.360 C 
ENDBRANCH  14  18
ENDBRANCH   7  14
ENDBRANCH   1  11
BRANCH   4  19
ATOM     19  C   LIG    1        1.302   1.570  -1.048  0.00  0.00    +0.190 A 
ATOM     20  C   LIG    1        0.080   1.367  -0.421  0.00  0.00    -0.010 A 
ATOM     21  C   LIG    1       -1.067   1.928  -0.948  0.00  0.00    +0.040 A 
ATOM     22  C   LIG    1       -0.997   2.701  -2.094  0.00  0.00    -0.060 A 
ATOM     23  C   LIG    1        0.221   2.906  -2.720  0.00  0.00    +0.040 A 
ATOM     24 CL   LIG    1       -2.439   3.411  -2.750  0.00  0.00    -0.080 Cl
ATOM     25  C   LIG    1        1.369   2.342  -2.200  0.00  0.00    +0.040 A 
ENDBRANCH   4  19
TORSDOF 4
