REMARK  Name = ZINCvU00000005x3.0
REMARK                            x       y       z     vdW  Elec       q    Type
REMARK                         _______ _______ _______ _____ _____    ______ ____
ROOT
ATOM      1  N   LIG    1       -0.067   1.120  -2.437  0.00  0.00    -0.550 N 
ATOM      2  C   LIG    1        0.911   1.801  -3.057  0.00  0.00    +0.500 C 
ATOM      3  C   LIG    1        1.347   0.971  -4.246  0.00  0.00    +0.160 C 
ATOM      4  C   LIG    1        0.459  -0.251  -4.187  0.00  0.00    -0.140 A 
ATOM      5  C   LIG    1        0.353  -1.371  -4.979  0.00  0.00    +0.090 A 
ATOM      6  C   LIG    1       -0.576  -2.349  -4.671  0.00  0.00    -0.020 A 
ATOM      7  C   LIG    1       -1.396  -2.197  -3.568  0.00  0.00    +0.060 A 
ATOM      8  C   LIG    1       -1.292  -1.075  -2.772  0.00  0.00    -0.010 A 
ATOM      9  O   LIG    1        1.363   2.877  -2.726  0.00  0.00    -0.460 OA
ATOM     10  C   LIG    1       -0.359  -0.086  -3.076  0.00  0.00    +0.160 A 
ENDROOT
BRANCH   3  11
ATOM     11  O   LIG    1        2.721   0.598  -4.126  0.00  0.00    -0.530 OA
ATOM     12  H   LIG    1        3.335   1.343  -4.158  0.00  0.00    +0.390 HD
ENDBRANCH   3  11
BRANCH   1  13
ATOM     13  C   LIG    1       -0.753   1.593  -1.232  0.00  0.00    +0.290 C 
BRANCH  13  14
ATOM     14  C   LIG    1       -0.013   1.086   0.008  0.00  0.00    +0.010 C 
BRANCH  14  16
ATOM     15  C   LIG    1       -2.121   0.950   1.341  0.00  0.00    +0.020 C 
ATOM     16  C   LIG    1       -0.729   1.579   1.267  0.00  0.00    -0.020 C 
ATOM     17  C   LIG    1        0.079   1.179   2.503  0.00  0.00    +0.030 C 
ENDBRANCH  14  16
ENDBRANCH  13  14
ENDBRANCH   1  13
BRANCH   3  18
ATOM     18  C   LIG    1        1.114   1.740  -5.548  0.00  0.00    +0.050 C 
BRANCH  18  19
ATOM     19  C   LIG    1        2.010   2.951  -5.584  0.00  0.00    +0.390 C 
ATOM     20  O   LIG    1        2.760   3.178  -4.658  0.00  0.00    -0.420 OA
BRANCH  19  21
ATOM     21  C   LIG    1        1.973   3.859  -6.739  0.00  0.00    -0.170 A 
ATOM     22  C   LIG    1        1.111   3.596  -7.811  0.00  0.00    +0.060 A 
ATOM     23  C   LIG    1        1.075   4.447  -8.885  0.00  0.00    +0.000 A 
ATOM     24  C   LIG    1        1.905   5.568  -8.916  0.00  0.00    -0.010 A 
ATOM     25  C   LIG    1        2.769   5.830  -7.852  0.00  0.00    +0.010 A 
ATOM     26  C   LIG    1        2.805   4.985  -6.773  0.00  0.00    +0.090 A 
BRANCH  24  27
ATOM     27  C   LIG    1        1.869   6.483 -10.082  0.00  0.00    -0.060 A 
ATOM     28  C   LIG    1        2.693   7.608 -10.115  0.00  0.00    +0.030 A 
ATOM     29  C   LIG    1        2.659   8.453 -11.206  0.00  0.00    +0.010 A 
ATOM     30  C   LIG    1        1.802   8.192 -12.260  0.00  0.00    +0.020 A 
ATOM     31  C   LIG    1        0.978   7.081 -12.230  0.00  0.00    +0.010 A 
ATOM     32  C   LIG    1        1.008   6.226 -11.148  0.00  0.00    +0.030 A 
ENDBRANCH  24  27
ENDBRANCH  19  21
ENDBRANCH  18  19
ENDBRANCH   3  18
TORSDOF 8
