REMARK  Name = ZINCpe00000MJLVM.0
REMARK                            x       y       z     vdW  Elec       q    Type
REMARK                         _______ _______ _______ _____ _____    ______ ____
ROOT
ATOM      1  N   LIG    1       -1.191   1.870   0.018  0.00  0.00    -0.740 N 
ATOM      2  H   LIG    1       -1.204   2.840   0.023  0.00  0.00    +0.400 HD
ATOM      3  C   LIG    1       -0.014   1.212   0.009  0.00  0.00    +0.730 C 
ATOM      4  N   LIG    1        1.143   1.901   0.001  0.00  0.00    -0.640 N 
ATOM      5  C   LIG    1        1.333   3.377   0.001  0.00  0.00    +0.270 C 
ATOM      6  C   LIG    1        2.486   3.571   1.008  0.00  0.00    -0.020 C 
ATOM      7  C   LIG    1        3.162   4.897   0.850  0.00  0.00    +0.230 C 
ATOM      8  O   LIG    1        4.342   4.841   0.056  0.00  0.00    -0.370 OA
ATOM      9  C   LIG    1        5.278   3.877   0.559  0.00  0.00    +0.210 C 
ATOM     10  C   LIG    1        4.708   2.495   0.317  0.00  0.00    +0.030 C 
ATOM     11  C   LIG    1        3.329   2.312   0.923  0.00  0.00    -0.080 C 
ATOM     12  C   LIG    1        2.526   1.367  -0.015  0.00  0.00    +0.320 C 
ATOM     13  O   LIG    1        0.002  -0.004   0.002  0.00  0.00    -0.580 OA
ENDROOT
BRANCH  11  14
ATOM     14  C   LIG    1        3.453   1.688   2.290  0.00  0.00    +0.530 C 
ATOM     15  O   LIG    1        2.978   2.247   3.256  0.00  0.00    -0.530 OA
ATOM     16  N   LIG    1        4.090   0.510   2.438  0.00  0.00    -0.850 N 
ATOM     17  H   LIG    1        4.169   0.109   3.317  0.00  0.00    +0.410 HD
ATOM     18  H   LIG    1        4.470   0.064   1.665  0.00  0.00    +0.400 HD
ENDBRANCH  11  14
BRANCH   1  19
ATOM     19  C   LIG    1       -2.449   1.120   0.020  0.00  0.00    +0.280 C 
BRANCH  19  21
ATOM     20  C   LIG    1       -3.550   2.972   1.284  0.00  0.00    +0.040 C 
ATOM     21  C   LIG    1       -3.626   2.098   0.031  0.00  0.00    -0.030 C 
ATOM     22  C   LIG    1       -3.562   2.986  -1.214  0.00  0.00    +0.040 C 
BRANCH  21  23
ATOM     23  C   LIG    1       -4.920   1.327   0.033  0.00  0.00    -0.120 A 
ATOM     24  C   LIG    1       -6.135   1.995   0.048  0.00  0.00    +0.060 A 
ATOM     25  C   LIG    1       -7.301   1.244   0.043  0.00  0.00    -0.030 A 
ATOM     26  C   LIG    1       -7.214  -0.135   0.035  0.00  0.00    +0.260 A 
ATOM     27  N   LIG    1       -6.040  -0.737   0.026  0.00  0.00    -0.480 NA
ATOM     28  C   LIG    1       -4.912  -0.055   0.025  0.00  0.00    +0.260 A 
ENDBRANCH  21  23
ENDBRANCH  19  21
ENDBRANCH   1  19
TORSDOF 4
