REMARK  Name = ZINCpe00000MJLvM.1
REMARK                            x       y       z     vdW  Elec       q    Type
REMARK                         _______ _______ _______ _____ _____    ______ ____
ROOT
ATOM      1  N   LIG    1       -0.816   7.301  -2.435  0.00  0.00    -0.730 N 
ATOM      2  H   LIG    1       -0.008   7.758  -2.153  0.00  0.00    +0.400 HD
ATOM      3  C   LIG    1       -1.063   6.046  -2.010  0.00  0.00    +0.500 C 
ATOM      4  O   LIG    1       -2.074   5.475  -2.363  0.00  0.00    -0.530 OA
ENDROOT
BRANCH   1   5
ATOM      5  C   LIG    1       -1.767   7.975  -3.321  0.00  0.00    +0.330 C 
BRANCH   5   8
ATOM      6  C   LIG    1        0.018  10.820  -5.046  0.00  0.00    -0.120 A 
ATOM      7  C   LIG    1       -0.448   9.553  -4.747  0.00  0.00    +0.060 A 
ATOM      8  C   LIG    1       -1.259   9.357  -3.645  0.00  0.00    -0.120 A 
ATOM      9  C   LIG    1       -1.610  10.427  -2.844  0.00  0.00    +0.060 A 
ATOM     10  C   LIG    1       -1.141  11.694  -3.138  0.00  0.00    -0.020 A 
ATOM     11  C   LIG    1       -0.328  11.892  -4.241  0.00  0.00    +0.130 A 
ATOM     12  F   LIG    1        0.127  13.130  -4.531  0.00  0.00    -0.130 F 
BRANCH   6  13
ATOM     13  C   LIG    1        0.903  11.034  -6.246  0.00  0.00    +0.230 C 
BRANCH  13  15
ATOM     14  C   LIG    1        1.005  12.111  -8.412  0.00  0.00    +0.190 C 
ATOM     15  N   LIG    1        0.128  11.672  -7.319  0.00  0.00    -0.540 NA
ATOM     16  C   LIG    1       -0.923  10.774  -7.815  0.00  0.00    +0.190 C 
ENDBRANCH  13  15
ENDBRANCH   6  13
ENDBRANCH   5   8
ENDBRANCH   1   5
BRANCH   3  17
ATOM     17  C   LIG    1       -0.085   5.352  -1.098  0.00  0.00    +0.310 C 
BRANCH  17  18
ATOM     18  N   LIG    1       -0.578   4.009  -0.783  0.00  0.00    -0.580 N 
ATOM     19  C   LIG    1       -1.442   3.804   0.391  0.00  0.00    +0.290 C 
ATOM     20  C   LIG    1       -0.638   3.072   1.468  0.00  0.00    -0.000 C 
ATOM     21  C   LIG    1       -0.711   1.569   1.266  0.00  0.00    +0.020 C 
ATOM     22  C   LIG    1       -0.013   1.086   0.008  0.00  0.00    +0.050 C 
ATOM     23  C   LIG    1       -0.741   1.587  -1.242  0.00  0.00    +0.190 C 
ATOM     24  C   LIG    1       -0.242   2.980  -1.562  0.00  0.00    +0.490 C 
ATOM     25  O   LIG    1        0.466   3.161  -2.530  0.00  0.00    -0.540 OA
BRANCH  23  26
ATOM     26  O   LIG    1       -2.148   1.621  -0.996  0.00  0.00    -0.540 OA
ATOM     27  H   LIG    1       -2.671   1.930  -1.748  0.00  0.00    +0.390 HD
ENDBRANCH  23  26
ENDBRANCH  17  18
ENDBRANCH   3  17
TORSDOF 7
