REMARK  Name = ZINCnE000001Ot7B.0
REMARK                            x       y       z     vdW  Elec       q    Type
REMARK                         _______ _______ _______ _____ _____    ______ ____
ROOT
ATOM      1  C   LIG    1       -3.049   1.680   0.322  0.00  0.00    +0.590 C 
ATOM      2  N   LIG    1       -4.355   1.870   0.598  0.00  0.00    -0.600 N 
ATOM      3  C   LIG    1       -4.780   2.328   1.928  0.00  0.00    +0.270 C 
ATOM      4  C   LIG    1       -5.828   1.361   2.475  0.00  0.00    +0.000 C 
ATOM      5  C   LIG    1       -6.968   1.221   1.464  0.00  0.00    +0.020 C 
ATOM      6  C   LIG    1       -6.422   0.652   0.152  0.00  0.00    -0.030 C 
ATOM      7  C   LIG    1       -5.380   1.617  -0.423  0.00  0.00    +0.280 C 
ATOM      8  O   LIG    1       -2.705   1.356  -0.799  0.00  0.00    -0.510 OA
ENDROOT
BRANCH   1  11
ATOM      9  C   LIG    1       -0.031   0.981   0.051  0.00  0.00    +0.150 C 
ATOM     10  C   LIG    1       -0.723   1.560   1.258  0.00  0.00    -0.080 A 
ATOM     11  C   LIG    1       -2.041   1.865   1.376  0.00  0.00    -0.030 A 
ATOM     12  O   LIG    1       -2.286   2.360   2.607  0.00  0.00    -0.170 OA
ATOM     13  C   LIG    1       -1.156   2.410   3.338  0.00  0.00    +0.060 A 
ATOM     14  C   LIG    1       -0.876   2.834   4.632  0.00  0.00    +0.020 A 
ATOM     15  C   LIG    1        0.413   2.763   5.114  0.00  0.00    +0.050 A 
ATOM     16  C   LIG    1        1.440   2.271   4.321  0.00  0.00    -0.010 A 
ATOM     17  C   LIG    1        1.190   1.849   3.046  0.00  0.00    +0.070 A 
ATOM     18  C   LIG    1       -0.110   1.913   2.538  0.00  0.00    -0.140 A 
ENDBRANCH   1  11
BRANCH   6  19
ATOM     19  C   LIG    1       -7.567   0.482  -0.848  0.00  0.00    +0.040 C 
BRANCH  19  20
ATOM     20  C   LIG    1       -7.043  -0.197  -2.114  0.00  0.00    -0.080 C 
BRANCH  20  21
ATOM     21  C   LIG    1       -8.172  -0.365  -3.099  0.00  0.00    +0.490 C 
ATOM     22  O   LIG    1       -7.965  -0.888  -4.180  0.00  0.00    -0.710 OA
ATOM     23  O   LIG    1       -9.292   0.024  -2.814  0.00  0.00    -0.700 OA
ENDBRANCH  20  21
ENDBRANCH  19  20
ENDBRANCH   6  19
TORSDOF 4
