REMARK  Name = ZINCqH0000003a0z.0
REMARK                            x       y       z     vdW  Elec       q    Type
REMARK                         _______ _______ _______ _____ _____    ______ ____
ROOT
ATOM      1  C   LIG    1        0.954  -4.171  -0.029  0.00  0.00    +0.070 C 
ENDROOT
BRANCH   1   2
ATOM      2  C   LIG    1        0.623  -2.701  -0.018  0.00  0.00    -0.080 A 
ATOM      3  C   LIG    1       -0.698  -2.292  -0.004  0.00  0.00    +0.020 A 
ATOM      4  C   LIG    1       -1.007  -0.943   0.007  0.00  0.00    +0.030 A 
ATOM      5  C   LIG    1        0.002  -0.004   0.002  0.00  0.00    -0.090 A 
ATOM      6  C   LIG    1       -0.018   1.505   0.010  0.00  0.00    +0.160 C 
ATOM      7  C   LIG    1        1.426   1.942  -0.001  0.00  0.00    -0.090 A 
ATOM      8  C   LIG    1        2.016   3.187   0.000  0.00  0.00    +0.030 A 
ATOM      9  C   LIG    1        3.396   3.300  -0.012  0.00  0.00    +0.020 A 
ATOM     10  C   LIG    1        4.184   2.165  -0.026  0.00  0.00    +0.010 A 
ATOM     11  C   LIG    1        3.602   0.914  -0.028  0.00  0.00    +0.020 A 
ATOM     12  C   LIG    1        2.212   0.792  -0.015  0.00  0.00    -0.060 A 
ATOM     13  C   LIG    1        1.335  -0.405  -0.013  0.00  0.00    -0.060 A 
ATOM     14  C   LIG    1        1.640  -1.768  -0.023  0.00  0.00    +0.030 A 
ENDBRANCH   1   2
BRANCH   1  15
ATOM     15  C   LIG    1        1.080  -4.676   1.409  0.00  0.00    +0.040 C 
BRANCH  15  16
ATOM     16  C   LIG    1        1.416  -6.169   1.398  0.00  0.00    +0.050 C 
BRANCH  16  22
ATOM     17  N   LIG    1        3.369 -10.242   3.500  0.00  0.00    -0.540 NA
ATOM     18  C   LIG    1        3.290  -9.217   4.550  0.00  0.00    +0.170 C 
ATOM     19  C   LIG    1        1.959  -8.467   4.427  0.00  0.00    +0.300 C 
ATOM     20  N   LIG    1        1.833  -7.960   3.051  0.00  0.00    -0.620 N 
ATOM     21  C   LIG    1        2.031  -8.905   1.941  0.00  0.00    +0.280 C 
ATOM     22  C   LIG    1        1.540  -6.667   2.815  0.00  0.00    +0.510 C 
ATOM     23  O   LIG    1        1.376  -5.903   3.743  0.00  0.00    -0.540 OA
ATOM     24  C   LIG    1        3.364  -9.637   2.162  0.00  0.00    +0.170 C 
BRANCH  17  26
ATOM     25  C   LIG    1        4.738 -11.982   2.454  0.00  0.00    +0.030 C 
ATOM     26  C   LIG    1        4.549 -11.097   3.687  0.00  0.00    +0.160 C 
ENDBRANCH  17  26
ENDBRANCH  16  22
ENDBRANCH  15  16
ENDBRANCH   1  15
TORSDOF 5
