REMARK  Name = ZINCrH000004s1Ec.0
REMARK                            x       y       z     vdW  Elec       q    Type
REMARK                         _______ _______ _______ _____ _____    ______ ____
ROOT
ATOM      1  C   LIG    1        4.435   5.056  -0.593  0.00  0.00    +0.140 C 
ATOM      2  C   LIG    1        3.021   5.615  -0.420  0.00  0.00    +0.050 C 
ATOM      3  C   LIG    1        2.238   4.723   0.548  0.00  0.00    +0.290 C 
ATOM      4  N   LIG    1        2.284   3.339   0.058  0.00  0.00    -0.600 N 
ATOM      5  C   LIG    1        3.592   2.732  -0.223  0.00  0.00    +0.280 C 
ATOM      6  C   LIG    1        1.147   2.637  -0.126  0.00  0.00    +0.560 C 
ATOM      7  O   LIG    1        0.069   3.182   0.006  0.00  0.00    -0.530 OA
ATOM      8  C   LIG    1        4.359   3.648  -1.188  0.00  0.00    +0.000 C 
ENDROOT
BRANCH   6   9
ATOM      9  C   LIG    1        1.213   1.205  -0.489  0.00  0.00    -0.100 A 
ATOM     10  C   LIG    1        2.204   0.404   0.055  0.00  0.00    +0.060 A 
ATOM     11  C   LIG    1        2.257  -0.952  -0.295  0.00  0.00    -0.030 A 
ATOM     12  C   LIG    1        3.237  -1.819   0.222  0.00  0.00    -0.010 A 
ATOM     13  C   LIG    1        3.224  -3.126  -0.165  0.00  0.00    +0.240 A 
ATOM     14  N   LIG    1        2.317  -3.595  -1.010  0.00  0.00    -0.480 NA
ATOM     15  C   LIG    1        1.375  -2.845  -1.532  0.00  0.00    +0.320 A 
ATOM     16  C   LIG    1        1.299  -1.483  -1.199  0.00  0.00    -0.100 A 
ATOM     17  C   LIG    1        0.307  -0.644  -1.733  0.00  0.00    +0.050 A 
ATOM     18  C   LIG    1        0.270   0.668  -1.383  0.00  0.00    +0.060 A 
ENDBRANCH   6   9
BRANCH   1  19
ATOM     19  O   LIG    1        5.084   5.002   0.679  0.00  0.00    -0.550 OA
ATOM     20  H   LIG    1        5.956   4.585   0.657  0.00  0.00    +0.370 HD
ENDBRANCH   1  19
BRANCH   1  21
ATOM     21  C   LIG    1        5.230   5.964  -1.533  0.00  0.00    +0.060 C 
BRANCH  21  28
ATOM     22  C   LIG    1        7.446   6.465   0.253  0.00  0.00    +0.090 C 
ATOM     23  C   LIG    1        7.636   5.584  -0.956  0.00  0.00    -0.090 A 
ATOM     24  C   LIG    1        8.870   5.016  -1.209  0.00  0.00    +0.000 A 
ATOM     25  C   LIG    1        9.044   4.208  -2.318  0.00  0.00    +0.000 A 
ATOM     26  C   LIG    1        7.985   3.969  -3.172  0.00  0.00    +0.000 A 
ATOM     27  C   LIG    1        6.749   4.533  -2.915  0.00  0.00    +0.010 A 
ATOM     28  C   LIG    1        6.576   5.345  -1.810  0.00  0.00    -0.090 A 
ENDBRANCH  21  28
ENDBRANCH   1  21
TORSDOF 4
