REMARK  Name = ZINCkj000005gxbK.0
REMARK                            x       y       z     vdW  Elec       q    Type
REMARK                         _______ _______ _______ _____ _____    ______ ____
ROOT
ATOM      1  C   LIG    1       -3.541  -0.915  -1.275  0.00  0.00    +0.280 C 
ENDROOT
BRANCH   1   2
ATOM      2  N   LIG    1       -3.522  -2.379  -1.213  0.00  0.00    -0.730 N 
ATOM      3  H   LIG    1       -2.679  -2.848  -1.111  0.00  0.00    +0.410 HD
ATOM      4  C   LIG    1       -4.674  -3.072  -1.296  0.00  0.00    +0.530 C 
ATOM      5  O   LIG    1       -5.728  -2.485  -1.422  0.00  0.00    -0.510 OA
BRANCH   4   6
ATOM      6  C   LIG    1       -4.654  -4.578  -1.231  0.00  0.00    +0.240 C 
BRANCH   6   7
ATOM      7  C   LIG    1       -6.061  -5.104  -1.346  0.00  0.00    +0.160 A 
ATOM      8  N   LIG    1       -6.682  -5.412  -2.449  0.00  0.00    -0.260 NA
ATOM      9  N   LIG    1       -7.866  -5.832  -2.171  0.00  0.00    -0.290 NA
ATOM     10  C   LIG    1       -8.044  -5.798  -0.881  0.00  0.00    +0.180 A 
ATOM     11  C   LIG    1       -9.294  -6.201  -0.142  0.00  0.00    +0.250 C 
ATOM     12  O   LIG    1       -6.908  -5.338  -0.329  0.00  0.00    -0.220 OA
ENDBRANCH   6   7
ENDBRANCH   4   6
ENDBRANCH   1   2
BRANCH   1  13
ATOM     13  C   LIG    1       -2.112  -0.380  -1.159  0.00  0.00    +0.240 C 
BRANCH  13  19
ATOM     14  C   LIG    1       -0.755   1.594  -1.230  0.00  0.00    +0.170 C 
ATOM     15  C   LIG    1       -0.013   1.086   0.008  0.00  0.00    +0.060 C 
ATOM     16  C   LIG    1       -0.731   1.581   1.267  0.00  0.00    +0.040 C 
ATOM     17  C   LIG    1       -2.189   1.109   1.228  0.00  0.00    +0.050 C 
ATOM     18  C   LIG    1       -2.850   1.616  -0.056  0.00  0.00    +0.240 C 
ATOM     19  N   LIG    1       -2.132   1.087  -1.222  0.00  0.00    -0.370 N 
ATOM     20  H   LIG    1       -2.603   1.380  -2.065  0.00  0.00    +0.420 HD
BRANCH  14  22
ATOM     21  C   LIG    1       -0.705   1.710  -3.725  0.00  0.00    +0.030 C 
ATOM     22  C   LIG    1       -0.039   1.102  -2.490  0.00  0.00    +0.050 C 
ENDBRANCH  14  22
ENDBRANCH  13  19
ENDBRANCH   1  13
TORSDOF 6
