REMARK  Name = ZINCkj000005gxbK.1
REMARK                            x       y       z     vdW  Elec       q    Type
REMARK                         _______ _______ _______ _____ _____    ______ ____
ROOT
ATOM      1  C   LIG    1        3.127  -2.003  -2.239  0.00  0.00    +0.280 C 
ENDROOT
BRANCH   1   2
ATOM      2  N   LIG    1        3.873  -2.501  -3.397  0.00  0.00    -0.730 N 
ATOM      3  H   LIG    1        4.141  -1.889  -4.101  0.00  0.00    +0.410 HD
ATOM      4  C   LIG    1        4.186  -3.809  -3.486  0.00  0.00    +0.530 C 
ATOM      5  O   LIG    1        3.850  -4.574  -2.607  0.00  0.00    -0.510 OA
BRANCH   4   6
ATOM      6  C   LIG    1        4.953  -4.321  -4.678  0.00  0.00    +0.240 C 
BRANCH   6   7
ATOM      7  C   LIG    1        5.172  -5.805  -4.534  0.00  0.00    +0.160 A 
ATOM      8  N   LIG    1        4.381  -6.747  -4.964  0.00  0.00    -0.260 NA
ATOM      9  N   LIG    1        4.882  -7.894  -4.668  0.00  0.00    -0.290 NA
ATOM     10  C   LIG    1        6.010  -7.724  -4.038  0.00  0.00    +0.180 A 
ATOM     11  C   LIG    1        6.913  -8.812  -3.517  0.00  0.00    +0.250 C 
ATOM     12  O   LIG    1        6.222  -6.400  -3.943  0.00  0.00    -0.220 OA
ENDBRANCH   6   7
ENDBRANCH   4   6
ENDBRANCH   1   2
BRANCH   1  13
ATOM     13  C   LIG    1        2.904  -0.496  -2.385  0.00  0.00    +0.250 C 
BRANCH  13  19
ATOM     14  C   LIG    1        2.049   1.464  -1.304  0.00  0.00    +0.170 C 
ATOM     15  C   LIG    1        1.341   1.997  -0.056  0.00  0.00    +0.070 C 
ATOM     16  C   LIG    1       -0.059   1.385   0.030  0.00  0.00    +0.040 C 
ATOM     17  C   LIG    1        0.061  -0.142   0.039  0.00  0.00    +0.050 C 
ATOM     18  C   LIG    1        0.816  -0.595  -1.213  0.00  0.00    +0.250 C 
ATOM     19  N   LIG    1        2.156   0.003  -1.224  0.00  0.00    -0.380 N 
ATOM     20  H   LIG    1        2.644  -0.252  -0.377  0.00  0.00    +0.420 HD
BRANCH  14  22
ATOM     21  C   LIG    1        3.336   3.593  -1.538  0.00  0.00    +0.060 C 
ATOM     22  C   LIG    1        3.449   2.074  -1.395  0.00  0.00    +0.030 C 
ENDBRANCH  14  22
ENDBRANCH  13  19
ENDBRANCH   1  13
TORSDOF 6
