REMARK  Name = ZINCrg00000IZUQt.0
REMARK                            x       y       z     vdW  Elec       q    Type
REMARK                         _______ _______ _______ _____ _____    ______ ____
ROOT
ATOM      1  N   LIG    1        3.581   6.173  -2.404  0.00  0.00    -0.720 N 
ATOM      2  H   LIG    1        3.248   5.821  -3.245  0.00  0.00    +0.410 HD
ENDROOT
BRANCH   1   5
ATOM      3  C   LIG    1        1.728   4.101   0.008  0.00  0.00    +0.180 A 
ATOM      4  C   LIG    1        2.184   4.621  -1.194  0.00  0.00    -0.020 A 
ATOM      5  C   LIG    1        3.119   5.647  -1.194  0.00  0.00    +0.210 A 
ATOM      6  C   LIG    1        3.595   6.151   0.009  0.00  0.00    -0.010 A 
ATOM      7  C   LIG    1        3.139   5.632   1.207  0.00  0.00    +0.040 A 
ATOM      8  C   LIG    1        2.204   4.614   1.210  0.00  0.00    +0.060 A 
ATOM      9  F   LIG    1        1.756   4.113   2.382  0.00  0.00    -0.140 F 
BRANCH   3  16
ATOM     10  O   LIG    1        2.207   1.326  -0.011  0.00  0.00    -0.570 OA
ATOM     11  C   LIG    1        1.070   1.757   0.001  0.00  0.00    +0.700 C 
ATOM     12  N   LIG    1       -0.011   0.966   0.007  0.00  0.00    -0.740 N 
ATOM     13  H   LIG    1        0.002  -0.004   0.002  0.00  0.00    +0.430 HD
ATOM     14  C   LIG    1       -1.221   1.802   0.017  0.00  0.00    +0.270 C 
ATOM     15  C   LIG    1       -0.674   3.242   0.026  0.00  0.00    +0.270 C 
ATOM     16  N   LIG    1        0.785   3.066   0.011  0.00  0.00    -0.590 N 
ENDBRANCH   3  16
ENDBRANCH   1   5
BRANCH   1  17
ATOM     17  C   LIG    1        4.567   7.256  -2.404  0.00  0.00    +0.260 C 
ATOM     18  C   LIG    1        4.472   8.079  -3.705  0.00  0.00    +0.110 C 
ATOM     19  C   LIG    1        5.833   7.897  -4.340  0.00  0.00    +0.530 C 
ATOM     20  N   LIG    1        6.584   7.115  -3.555  0.00  0.00    -0.570 N 
ATOM     21  O   LIG    1        6.188   8.383  -5.392  0.00  0.00    -0.470 OA
ATOM     22  C   LIG    1        5.973   6.697  -2.440  0.00  0.00    +0.510 C 
ATOM     23  O   LIG    1        6.466   5.984  -1.593  0.00  0.00    -0.460 OA
BRANCH  20  24
ATOM     24  C   LIG    1        7.962   6.745  -3.889  0.00  0.00    +0.240 C 
ATOM     25  C   LIG    1        8.814   8.011  -4.020  0.00  0.00    -0.000 C 
ATOM     26  C   LIG    1       10.232   7.621  -4.446  0.00  0.00    +0.230 C 
ATOM     27  O   LIG    1       10.175   6.895  -5.676  0.00  0.00    -0.380 OA
ATOM     28  C   LIG    1        9.431   5.678  -5.602  0.00  0.00    +0.230 C 
ATOM     29  C   LIG    1        7.981   5.990  -5.222  0.00  0.00    -0.000 C 
ENDBRANCH  20  24
ENDBRANCH   1  17
TORSDOF 4
