REMARK  Name = ZINCkj000018RAio.0
REMARK                            x       y       z     vdW  Elec       q    Type
REMARK                         _______ _______ _______ _____ _____    ______ ____
ROOT
ATOM      1  C   LIG    1        2.085  -0.045  -1.185  0.00  0.00    +0.280 C 
ATOM      2  O   LIG    1        0.720  -0.463  -1.145  0.00  0.00    -0.350 OA
ATOM      3  C   LIG    1        0.002  -0.004   0.002  0.00  0.00    +0.220 C 
ATOM      4  C   LIG    1       -0.019   1.527   0.010  0.00  0.00    +0.010 C 
ATOM      5  C   LIG    1        1.421   2.049  -0.001  0.00  0.00    +0.020 C 
ATOM      6  C   LIG    1        2.148   1.484  -1.225  0.00  0.00    -0.020 C 
ENDROOT
BRANCH   1  12
ATOM      7  C   LIG    1        4.878  -1.378  -1.330  0.00  0.00    +0.330 C 
ATOM      8  N   LIG    1        3.967  -1.185  -2.461  0.00  0.00    -0.460 N 
ATOM      9  C   LIG    1        4.191  -1.560  -3.758  0.00  0.00    +0.140 A 
ATOM     10  C   LIG    1        3.105  -1.190  -4.464  0.00  0.00    +0.160 A 
ATOM     11  N   LIG    1        2.239  -0.610  -3.619  0.00  0.00    -0.450 NA
ATOM     12  C   LIG    1        2.747  -0.607  -2.417  0.00  0.00    +0.180 A 
ENDBRANCH   1  12
BRANCH   6  13
ATOM     13  C   LIG    1        3.610   1.937  -1.205  0.00  0.00    +0.250 C 
BRANCH  13  14
ATOM     14  N   LIG    1        3.673   3.396  -1.363  0.00  0.00    -0.370 N 
ATOM     15  C   LIG    1        3.169   3.766  -2.692  0.00  0.00    +0.330 C 
ATOM     16  H   LIG    1        3.106   3.836  -0.654  0.00  0.00    +0.420 HD
BRANCH  14  17
ATOM     17  C   LIG    1        5.065   3.843  -1.225  0.00  0.00    +0.150 C 
ATOM     18  C   LIG    1        5.515   4.014   0.236  0.00  0.00    +0.030 C 
ATOM     19  C   LIG    1        6.258   5.280  -0.224  0.00  0.00    +0.190 C 
ATOM     20  C   LIG    1        5.241   5.364  -1.375  0.00  0.00    +0.080 C 
BRANCH  19  21
ATOM     21  O   LIG    1        6.167   6.367   0.701  0.00  0.00    -0.550 OA
ATOM     22  H   LIG    1        6.803   6.320   1.427  0.00  0.00    +0.400 HD
ENDBRANCH  19  21
ENDBRANCH  14  17
ENDBRANCH  13  14
ENDBRANCH   6  13
TORSDOF 5
