REMARK  Name = ZINCkj000018RAio.1
REMARK                            x       y       z     vdW  Elec       q    Type
REMARK                         _______ _______ _______ _____ _____    ______ ____
ROOT
ATOM      1  C   LIG    1        1.857   3.928  -0.024  0.00  0.00    +0.280 C 
ATOM      2  O   LIG    1        1.503   4.740   1.097  0.00  0.00    -0.350 OA
ATOM      3  C   LIG    1        2.250   5.955   1.196  0.00  0.00    +0.220 C 
ATOM      4  C   LIG    1        1.998   6.809  -0.049  0.00  0.00    +0.010 C 
ATOM      5  C   LIG    1        2.387   6.009  -1.296  0.00  0.00    +0.020 C 
ATOM      6  C   LIG    1        1.590   4.701  -1.318  0.00  0.00    -0.020 C 
ENDROOT
BRANCH   1  12
ATOM      7  C   LIG    1        2.885   1.045  -0.510  0.00  0.00    +0.330 C 
ATOM      8  N   LIG    1        1.497   1.418  -0.226  0.00  0.00    -0.460 N 
ATOM      9  C   LIG    1        0.431   0.566  -0.128  0.00  0.00    +0.140 A 
ATOM     10  C   LIG    1       -0.650   1.323   0.138  0.00  0.00    +0.150 A 
ATOM     11  N   LIG    1       -0.254   2.602   0.208  0.00  0.00    -0.450 NA
ATOM     12  C   LIG    1        1.031   2.667  -0.012  0.00  0.00    +0.180 A 
ENDBRANCH   1  12
BRANCH   6  13
ATOM     13  C   LIG    1        2.026   3.857  -2.517  0.00  0.00    +0.260 C 
BRANCH  13  14
ATOM     14  N   LIG    1        1.776   4.603  -3.758  0.00  0.00    -0.380 N 
ATOM     15  C   LIG    1        2.394   3.895  -4.887  0.00  0.00    +0.320 C 
ATOM     16  H   LIG    1        2.175   5.526  -3.681  0.00  0.00    +0.420 HD
BRANCH  14  17
ATOM     17  C   LIG    1        0.329   4.712  -3.981  0.00  0.00    +0.150 C 
ATOM     18  C   LIG    1       -0.054   5.765  -5.035  0.00  0.00    +0.040 C 
ATOM     19  C   LIG    1       -1.230   6.141  -4.114  0.00  0.00    +0.190 C 
ATOM     20  C   LIG    1       -0.389   5.596  -2.947  0.00  0.00    +0.090 C 
BRANCH  19  21
ATOM     21  O   LIG    1       -1.471   7.548  -4.038  0.00  0.00    -0.550 OA
ATOM     22  H   LIG    1       -1.999   7.896  -4.769  0.00  0.00    +0.400 HD
ENDBRANCH  19  21
ENDBRANCH  14  17
ENDBRANCH  13  14
ENDBRANCH   6  13
TORSDOF 5
