REMARK  Name = ZINCb80000003Wnq.0
REMARK                            x       y       z     vdW  Elec       q    Type
REMARK                         _______ _______ _______ _____ _____    ______ ____
ROOT
ATOM      1  C   LIG    1       -0.800   1.527  -1.116  0.00  0.00    +0.180 C 
ATOM      2  C   LIG    1       -0.920   3.047  -0.994  0.00  0.00    +0.060 C 
ATOM      3  C   LIG    1        0.480   3.667  -0.997  0.00  0.00    +0.020 C 
ATOM      4  C   LIG    1        1.296   3.071   0.153  0.00  0.00    +0.190 C 
ATOM      5  C   LIG    1        1.352   1.550  -0.003  0.00  0.00    +0.190 C 
ATOM      6  F   LIG    1        2.594   3.592   0.123  0.00  0.00    -0.210 F 
ATOM      7  N   LIG    1       -0.012   1.005   0.008  0.00  0.00    -0.670 NA
ATOM      8  H   LIG    1        0.002  -0.004   0.002  0.00  0.00    +0.360 HD
ENDROOT
BRANCH   1   9
ATOM      9  C   LIG    1       -2.175   0.911  -1.093  0.00  0.00    +0.460 C 
ATOM     10  O   LIG    1       -2.600   0.419  -0.074  0.00  0.00    -0.480 OA
BRANCH   9  12
ATOM     11  C   LIG    1       -4.242   0.298  -2.109  0.00  0.00    +0.270 C 
ATOM     12  O   LIG    1       -2.928   0.908  -2.204  0.00  0.00    -0.360 OA
ENDBRANCH   9  12
ENDBRANCH   1   9
TORSDOF 2
