REMARK  Name = ZINCvU00000006hS.0
REMARK                            x       y       z     vdW  Elec       q    Type
REMARK                         _______ _______ _______ _____ _____    ______ ____
ROOT
ATOM      1  C   LIG    1       -4.340   4.813  -1.378  0.00  0.00    +0.290 A 
ATOM      2  N   LIG    1       -4.635   5.952  -0.810  0.00  0.00    -0.490 NA
ATOM      3  C   LIG    1       -5.932   6.231  -0.997  0.00  0.00    +0.280 A 
ATOM      4  N   LIG    1       -6.479   5.253  -1.687  0.00  0.00    -0.290 NA
ATOM      5  N   LIG    1       -5.460   4.321  -1.944  0.00  0.00    -0.320 N 
ENDROOT
BRANCH   5   6
ATOM      6  C   LIG    1       -5.584   3.117  -2.650  0.00  0.00    +0.140 A 
ATOM      7  C   LIG    1       -6.748   2.388  -2.555  0.00  0.00    +0.060 A 
ATOM      8  C   LIG    1       -6.868   1.182  -3.264  0.00  0.00    -0.040 A 
ATOM      9  C   LIG    1       -8.040   0.409  -3.193  0.00  0.00    +0.030 A 
ATOM     10  C   LIG    1       -8.124  -0.755  -3.893  0.00  0.00    +0.020 A 
ATOM     11  C   LIG    1       -7.063  -1.193  -4.683  0.00  0.00    +0.020 A 
ATOM     12  C   LIG    1       -5.913  -0.471  -4.777  0.00  0.00    +0.030 A 
ATOM     13  C   LIG    1       -5.789   0.735  -4.068  0.00  0.00    -0.050 A 
ATOM     14  C   LIG    1       -4.615   1.506  -4.142  0.00  0.00    +0.070 A 
ATOM     15  C   LIG    1       -4.525   2.672  -3.450  0.00  0.00    +0.010 A 
ENDBRANCH   5   6
BRANCH   3  16
ATOM     16  C   LIG    1       -6.637   7.439  -0.503  0.00  0.00    +0.190 A 
ATOM     17  C   LIG    1       -7.994   7.603  -0.769  0.00  0.00    +0.050 A 
ATOM     18  C   LIG    1       -8.641   8.732  -0.297  0.00  0.00    +0.050 A 
ATOM     19  C   LIG    1       -7.903   9.668   0.419  0.00  0.00    +0.060 A 
ATOM     20  C   LIG    1       -6.555   9.441   0.642  0.00  0.00    +0.260 A 
ATOM     21  F   LIG    1       -8.495  10.786   0.892  0.00  0.00    -0.120 F 
ATOM     22  N   LIG    1       -5.968   8.355   0.185  0.00  0.00    -0.420 NA
ENDBRANCH   3  16
BRANCH   1  24
ATOM     23  C   LIG    1       -1.977   5.083  -2.080  0.00  0.00    +0.070 C 
ATOM     24  C   LIG    1       -2.983   4.158  -1.391  0.00  0.00    +0.090 C 
BRANCH  24  25
ATOM     25  C   LIG    1       -2.530   3.893   0.046  0.00  0.00    +0.110 C 
BRANCH  25  26
ATOM     26  C   LIG    1       -1.231   3.129   0.030  0.00  0.00    -0.040 A 
ATOM     27  C   LIG    1       -1.223   1.742   0.017  0.00  0.00    -0.040 A 
ATOM     28  C   LIG    1       -0.013   1.076   0.008  0.00  0.00    +0.260 A 
ATOM     29  N   LIG    1        1.125   1.743   0.001  0.00  0.00    -0.490 NA
ATOM     30  C   LIG    1        1.155   3.061   0.007  0.00  0.00    +0.260 A 
ATOM     31  C   LIG    1       -0.015   3.796   0.022  0.00  0.00    -0.030 A 
ENDBRANCH  25  26
ENDBRANCH  24  25
ENDBRANCH   1  24
TORSDOF 5
