REMARK  Name = ZINCpk00000xIkvD.0
REMARK                            x       y       z     vdW  Elec       q    Type
REMARK                         _______ _______ _______ _____ _____    ______ ____
ROOT
ATOM      1  O   LIG    1       -2.240  -0.144  -2.320  0.00  0.00    -0.450 OA
ATOM      2  C   LIG    1       -2.924   0.225  -1.390  0.00  0.00    +0.500 C 
ATOM      3  N   LIG    1       -4.093   0.856  -1.622  0.00  0.00    -0.690 N 
ATOM      4  H   LIG    1       -4.640   1.151  -0.877  0.00  0.00    +0.410 HD
ATOM      5  C   LIG    1       -4.500   1.076  -2.887  0.00  0.00    +0.690 C 
ATOM      6  N   LIG    1       -5.668   1.707  -3.119  0.00  0.00    -0.730 N 
ATOM      7  H   LIG    1       -6.216   2.002  -2.375  0.00  0.00    +0.400 HD
ATOM      8  O   LIG    1       -3.814   0.707  -3.820  0.00  0.00    -0.530 OA
ENDROOT
BRANCH   6   9
ATOM      9  C   LIG    1       -6.111   1.947  -4.495  0.00  0.00    +0.340 C 
BRANCH   9  10
ATOM     10  C   LIG    1       -7.437   2.663  -4.478  0.00  0.00    -0.110 A 
ATOM     11  C   LIG    1       -8.614   1.937  -4.477  0.00  0.00    +0.030 A 
ATOM     12  C   LIG    1       -9.830   2.594  -4.457  0.00  0.00    +0.010 A 
ATOM     13  C   LIG    1       -9.870   3.976  -4.449  0.00  0.00    +0.010 A 
ATOM     14  C   LIG    1       -8.693   4.701  -4.455  0.00  0.00    +0.010 A 
ATOM     15  C   LIG    1       -7.477   4.044  -4.470  0.00  0.00    +0.020 A 
ENDBRANCH   9  10
ENDBRANCH   6   9
BRANCH   2  16
ATOM     16  C   LIG    1       -2.469  -0.022   0.025  0.00  0.00    +0.350 C 
BRANCH  16  17
ATOM     17  N   LIG    1       -1.180  -0.718   0.009  0.00  0.00    -0.500 N 
ATOM     18  C   LIG    1       -1.129  -2.068   0.002  0.00  0.00    +0.500 A 
ATOM     19  C   LIG    1        0.178  -2.734  -0.015  0.00  0.00    +0.300 A 
ATOM     20  N   LIG    1        1.274  -2.030  -0.021  0.00  0.00    -0.400 NA
ATOM     21  C   LIG    1        1.234  -0.684  -0.013  0.00  0.00    +0.020 A 
ATOM     22  C   LIG    1        2.428   0.055  -0.021  0.00  0.00    +0.120 A 
ATOM     23  C   LIG    1        2.385   1.418  -0.013  0.00  0.00    +0.000 A 
ATOM     24  C   LIG    1        1.169   2.089   0.002  0.00  0.00    +0.090 A 
ATOM     25  C   LIG    1       -0.017   1.387   0.010  0.00  0.00    -0.030 A 
ATOM     26  O   LIG    1       -2.155  -2.723   0.009  0.00  0.00    -0.510 OA
ATOM     27  C   LIG    1        0.002  -0.004   0.002  0.00  0.00    +0.160 A 
ENDBRANCH  16  17
ENDBRANCH   2  16
TORSDOF 4
