REMARK  Name = ZINCvU00000008TW.0
REMARK                            x       y       z     vdW  Elec       q    Type
REMARK                         _______ _______ _______ _____ _____    ______ ____
ROOT
ATOM      1  O   LIG    1       -0.410   6.684   1.966  0.00  0.00    -0.510 OA
ATOM      2  C   LIG    1        0.786   6.781   1.791  0.00  0.00    +0.540 C 
ATOM      3  N   LIG    1        1.416   7.939   2.072  0.00  0.00    -0.720 N 
ATOM      4  H   LIG    1        2.373   8.016   1.932  0.00  0.00    +0.410 HD
ENDROOT
BRANCH   3   5
ATOM      5  C   LIG    1        0.657   9.080   2.589  0.00  0.00    +0.390 C 
BRANCH   5   6
ATOM      6  C   LIG    1        1.575   9.979   3.376  0.00  0.00    -0.110 A 
ATOM      7  C   LIG    1        2.859  10.220   2.924  0.00  0.00    +0.050 A 
ATOM      8  C   LIG    1        3.700  11.049   3.642  0.00  0.00    -0.010 A 
ATOM      9  C   LIG    1        3.260  11.631   4.818  0.00  0.00    +0.110 A 
ATOM     10  C   LIG    1        1.975  11.385   5.272  0.00  0.00    -0.010 A 
ATOM     11  F   LIG    1        4.083  12.438   5.523  0.00  0.00    -0.140 F 
ATOM     12  C   LIG    1        1.134  10.560   4.550  0.00  0.00    +0.070 A 
ENDBRANCH   5   6
BRANCH   5  13
ATOM     13  C   LIG    1        0.062   9.850   1.439  0.00  0.00    -0.190 A 
ATOM     14  C   LIG    1       -1.162  10.380   1.419  0.00  0.00    +0.020 A 
ATOM     15  C   LIG    1       -1.489  11.048   0.252  0.00  0.00    +0.010 A 
ATOM     16  C   LIG    1       -0.534  11.053  -0.680  0.00  0.00    -0.040 A 
ATOM     17  S   LIG    1        0.873  10.182  -0.086  0.00  0.00    +0.110 S 
ENDBRANCH   5  13
ENDBRANCH   3   5
BRANCH   2  18
ATOM     18  C   LIG    1        1.567   5.607   1.259  0.00  0.00    +0.090 C 
BRANCH  18  19
ATOM     19  S   LIG    1        0.447   4.212   0.983  0.00  0.00    +0.100 S 
BRANCH  19  20
ATOM     20  C   LIG    1        1.591   3.016   0.380  0.00  0.00    +0.140 A 
ATOM     21  N   LIG    1        2.884   3.187   0.217  0.00  0.00    -0.280 NA
ATOM     22  N   LIG    1        3.417   2.114  -0.245  0.00  0.00    -0.260 NA
ATOM     23  C   LIG    1        2.498   1.186  -0.401  0.00  0.00    +0.260 A 
ATOM     24  N   LIG    1        1.300   1.736  -0.001  0.00  0.00    -0.430 N 
BRANCH  23  25
ATOM     25  C   LIG    1        2.710  -0.180  -0.907  0.00  0.00    -0.130 A 
ATOM     26  C   LIG    1        3.814  -0.609  -1.555  0.00  0.00    +0.080 A 
ATOM     27  C   LIG    1        3.780  -1.935  -1.933  0.00  0.00    +0.020 A 
ATOM     28  C   LIG    1        2.663  -2.590  -1.601  0.00  0.00    -0.030 A 
ATOM     29  S   LIG    1        1.567  -1.508  -0.754  0.00  0.00    +0.120 S 
ENDBRANCH  23  25
BRANCH  24  30
ATOM     30  C   LIG    1       -0.013   1.086   0.008  0.00  0.00    +0.190 C 
ATOM     31  C   LIG    1       -1.117   1.737   0.843  0.00  0.00    +0.080 C 
ATOM     32  C   LIG    1       -1.166   1.814  -0.685  0.00  0.00    +0.060 C 
ENDBRANCH  24  30
ENDBRANCH  19  20
ENDBRANCH  18  19
ENDBRANCH   2  18
TORSDOF 8
