REMARK  Name = ZINCpe00000VVGSC.0
REMARK                            x       y       z     vdW  Elec       q    Type
REMARK                         _______ _______ _______ _____ _____    ______ ____
ROOT
ATOM      1  C   LIG    1        1.478   4.658  -1.800  0.00  0.00    +0.510 C 
ATOM      2  N   LIG    1        0.672   4.215  -0.815  0.00  0.00    -0.610 N 
ATOM      3  C   LIG    1       -0.779   4.470  -0.917  0.00  0.00    +0.250 C 
ATOM      4  C   LIG    1       -1.594   3.238  -0.486  0.00  0.00    +0.040 C 
ATOM      5  C   LIG    1       -0.931   1.982  -1.008  0.00  0.00    +0.200 C 
ATOM      6  N   LIG    1       -0.018   1.465   0.010  0.00  0.00    -0.550 NA
ATOM      7  C   LIG    1        1.296   1.990   0.000  0.00  0.00    +0.170 C 
ATOM      8  C   LIG    1        1.261   3.507   0.303  0.00  0.00    +0.290 C 
ATOM      9  O   LIG    1        2.674   4.461  -1.739  0.00  0.00    -0.520 OA
ENDROOT
BRANCH   1  11
ATOM     10  C   LIG    1        0.185   6.660  -2.484  0.00  0.00    +0.060 C 
ATOM     11  C   LIG    1        0.895   5.397  -2.976  0.00  0.00    +0.240 C 
BRANCH  11  12
ATOM     12  N   LIG    1        1.969   5.770  -3.900  0.00  0.00    -0.590 N 
ATOM     13  C   LIG    1        1.908   5.255  -5.262  0.00  0.00    +0.250 C 
ATOM     14  C   LIG    1        2.795   6.087  -6.189  0.00  0.00    +0.030 C 
ATOM     15  C   LIG    1        4.189   6.205  -5.559  0.00  0.00    +0.030 C 
ATOM     16  C   LIG    1        4.076   7.056  -4.292  0.00  0.00    +0.070 C 
ATOM     17  C   LIG    1        2.939   6.563  -3.443  0.00  0.00    +0.530 C 
ATOM     18  O   LIG    1        2.904   6.901  -2.279  0.00  0.00    -0.530 OA
ENDBRANCH  11  12
ENDBRANCH   1  11
BRANCH   6  19
ATOM     19  C   LIG    1        0.002  -0.004   0.002  0.00  0.00    +0.310 C 
BRANCH  19  20
ATOM     20  C   LIG    1        0.598  -0.505   1.292  0.00  0.00    +0.210 A 
ATOM     21  N   LIG    1       -0.066  -0.774   2.383  0.00  0.00    -0.470 NA
ATOM     22  C   LIG    1        0.787  -1.197   3.328  0.00  0.00    +0.140 A 
ATOM     23  C   LIG    1        2.027  -1.189   2.802  0.00  0.00    +0.110 A 
ATOM     24  N   LIG    1        1.907  -0.756   1.509  0.00  0.00    -0.460 N 
ATOM     25  C   LIG    1        2.996  -0.592   0.543  0.00  0.00    +0.320 C 
ENDBRANCH  19  20
ENDBRANCH   6  19
TORSDOF 4
