REMARK  Name = ZINCnE000001KV6x.0
REMARK                            x       y       z     vdW  Elec       q    Type
REMARK                         _______ _______ _______ _____ _____    ______ ____
ROOT
ATOM      1  C   LIG    1        2.486   1.407  -0.864  0.00  0.00    +0.100 A 
ATOM      2  N   LIG    1        2.715   0.158  -0.573  0.00  0.00    -0.450 NA
ATOM      3  C   LIG    1        1.669  -0.603  -0.346  0.00  0.00    +0.120 A 
ATOM      4  C   LIG    1        0.479  -0.002  -0.442  0.00  0.00    -0.020 A 
ATOM      5  S   LIG    1        0.747   1.689  -0.860  0.00  0.00    +0.040 S 
ENDROOT
BRANCH   1   9
ATOM      6  C   LIG    1        5.456   4.332  -1.689  0.00  0.00    +0.130 A 
ATOM      7  C   LIG    1        4.112   4.682  -1.718  0.00  0.00    -0.010 A 
ATOM      8  C   LIG    1        3.146   3.736  -1.451  0.00  0.00    +0.070 A 
ATOM      9  C   LIG    1        3.519   2.424  -1.151  0.00  0.00    -0.050 A 
ATOM     10  C   LIG    1        4.871   2.078  -1.118  0.00  0.00    +0.110 A 
ATOM     11  C   LIG    1        5.831   3.028  -1.392  0.00  0.00    -0.080 A 
BRANCH   6  13
ATOM     12  C   LIG    1        7.768   4.839  -1.905  0.00  0.00    +0.250 C 
ATOM     13  O   LIG    1        6.405   5.267  -1.952  0.00  0.00    -0.320 OA
ENDBRANCH   6  13
ENDBRANCH   1   9
BRANCH   3  14
ATOM     14  C   LIG    1        1.802  -2.064   0.000  0.00  0.00    +0.170 C 
ATOM     15  C   LIG    1        2.935  -2.464   0.948  0.00  0.00    +0.020 C 
ATOM     16  C   LIG    1        3.023  -2.809  -0.541  0.00  0.00    -0.020 C 
BRANCH  14  17
ATOM     17  N   LIG    1        0.544  -2.807   0.098  0.00  0.00    -0.700 NA
ATOM     18  C   LIG    1       -0.012  -3.339  -1.009  0.00  0.00    +0.400 C 
ATOM     19  O   LIG    1        0.466  -3.108  -2.099  0.00  0.00    -0.630 OA
BRANCH  18  20
ATOM     20  C   LIG    1       -1.228  -4.222  -0.891  0.00  0.00    +0.450 C 
ATOM     21  F   LIG    1       -2.272  -3.501  -0.301  0.00  0.00    -0.190 F 
ATOM     22  F   LIG    1       -0.923  -5.333  -0.099  0.00  0.00    -0.190 F 
ATOM     23  F   LIG    1       -1.618  -4.650  -2.165  0.00  0.00    -0.190 F 
ENDBRANCH  18  20
ENDBRANCH  14  17
ENDBRANCH   3  14
TORSDOF 5
