REMARK  Name = ZINCqH0000035RL4.0
REMARK                            x       y       z     vdW  Elec       q    Type
REMARK                         _______ _______ _______ _____ _____    ______ ____
ROOT
ATOM      1  C   LIG    1       -3.091  -5.274   0.090  0.00  0.00    +0.520 C 
ATOM      2  N   LIG    1       -2.007  -4.478   0.006  0.00  0.00    -0.670 N 
ATOM      3  H   LIG    1       -1.121  -4.869  -0.055  0.00  0.00    +0.410 HD
ATOM      4  O   LIG    1       -4.203  -4.789   0.072  0.00  0.00    -0.500 OA
ENDROOT
BRANCH   2   5
ATOM      5  C   LIG    1       -2.159  -3.087   0.008  0.00  0.00    +0.140 A 
ATOM      6  C   LIG    1       -1.282  -2.291  -0.719  0.00  0.00    +0.000 A 
ATOM      7  C   LIG    1       -1.429  -0.917  -0.720  0.00  0.00    +0.030 A 
ATOM      8  C   LIG    1       -2.446  -0.327   0.003  0.00  0.00    +0.050 A 
ATOM      9  C   LIG    1       -3.331  -1.117   0.735  0.00  0.00    +0.000 A 
ATOM     10  C   LIG    1       -3.181  -2.501   0.740  0.00  0.00    +0.050 A 
BRANCH   9  11
ATOM     11  C   LIG    1       -4.426  -0.485   1.512  0.00  0.00    +0.270 A 
ATOM     12  N   LIG    1       -5.317  -1.122   2.239  0.00  0.00    -0.300 NA
ATOM     13  N   LIG    1       -6.157  -0.145   2.796  0.00  0.00    -0.480 N 
ATOM     14  H   LIG    1       -6.915  -0.297   3.382  0.00  0.00    +0.440 HD
ATOM     15  C   LIG    1       -5.705   1.044   2.358  0.00  0.00    +0.290 A 
ATOM     16  C   LIG    1       -6.291   2.390   2.694  0.00  0.00    +0.190 C 
ATOM     17  N   LIG    1       -4.668   0.830   1.591  0.00  0.00    -0.530 NA
ENDBRANCH   9  11
ENDBRANCH   2   5
BRANCH   1  18
ATOM     18  C   LIG    1       -2.922  -6.767   0.204  0.00  0.00    -0.030 C 
ATOM     19  C   LIG    1       -2.207  -7.101   1.515  0.00  0.00    +0.070 C 
ATOM     20  C   LIG    1       -2.092  -7.279  -0.975  0.00  0.00    +0.060 C 
BRANCH  18  24
ATOM     21  C   LIG    1       -6.763  -8.642   0.161  0.00  0.00    +0.130 A 
ATOM     22  C   LIG    1       -5.870  -8.862  -0.878  0.00  0.00    -0.020 A 
ATOM     23  C   LIG    1       -4.630  -8.254  -0.862  0.00  0.00    +0.060 A 
ATOM     24  C   LIG    1       -4.277  -7.428   0.189  0.00  0.00    -0.110 A 
ATOM     25  C   LIG    1       -5.162  -7.212   1.229  0.00  0.00    +0.070 A 
ATOM     26  C   LIG    1       -6.406  -7.812   1.215  0.00  0.00    -0.080 A 
BRANCH  21  28
ATOM     27  C   LIG    1       -8.850  -8.967   1.251  0.00  0.00    +0.250 C 
ATOM     28  O   LIG    1       -7.983  -9.239   0.148  0.00  0.00    -0.320 OA
ENDBRANCH  21  28
ENDBRANCH  18  24
ENDBRANCH   1  18
TORSDOF 5
