REMARK  Name = ZINCrD000000D1Nd.0
REMARK                            x       y       z     vdW  Elec       q    Type
REMARK                         _______ _______ _______ _____ _____    ______ ____
ROOT
ATOM      1  N   LIG    1       -0.116   7.609  -1.523  0.00  0.00    -1.000 NA
ATOM      2  C   LIG    1       -1.387   8.344  -1.448  0.00  0.00    +0.300 C 
ATOM      3  C   LIG    1       -1.339   9.266  -0.219  0.00  0.00    +0.160 C 
ATOM      4  N   LIG    1       -0.138  10.110  -0.293  0.00  0.00    -0.530 NA
ATOM      5  C   LIG    1        1.086   9.299  -0.242  0.00  0.00    +0.170 C 
ATOM      6  C   LIG    1        1.137   8.378  -1.465  0.00  0.00    +0.310 C 
ENDROOT
BRANCH   1   8
ATOM      7  O   LIG    1        1.140   5.684  -2.323  0.00  0.00    -0.940 OA
ATOM      8  S   LIG    1       -0.095   5.960  -1.677  0.00  0.00    +2.600 S 
ATOM      9  O   LIG    1       -1.333   5.651  -2.300  0.00  0.00    -0.940 OA
BRANCH   8  10
ATOM     10  C   LIG    1       -0.070   5.347   0.030  0.00  0.00    -0.300 C 
BRANCH  10  11
ATOM     11  C   LIG    1       -0.050   3.840   0.022  0.00  0.00    -0.100 A 
ATOM     12  C   LIG    1        1.156   3.165   0.008  0.00  0.00    +0.020 A 
ATOM     13  C   LIG    1        1.175   1.783   0.000  0.00  0.00    +0.010 A 
ATOM     14  C   LIG    1       -0.013   1.076   0.008  0.00  0.00    +0.020 A 
ATOM     15  C   LIG    1       -1.219   1.751   0.017  0.00  0.00    +0.010 A 
ATOM     16  C   LIG    1       -1.238   3.133   0.030  0.00  0.00    +0.020 A 
ENDBRANCH  10  11
ENDBRANCH   8  10
ENDBRANCH   1   8
BRANCH   4  17
ATOM     17  C   LIG    1       -0.142  11.126   0.767  0.00  0.00    +0.230 C 
BRANCH  17  18
ATOM     18  C   LIG    1       -1.503  11.769   0.841  0.00  0.00    -0.090 A 
ATOM     19  C   LIG    1       -2.475  11.237   1.667  0.00  0.00    +0.050 A 
ATOM     20  C   LIG    1       -3.724  11.827   1.735  0.00  0.00    +0.020 A 
ATOM     21  C   LIG    1       -3.999  12.950   0.978  0.00  0.00    +0.070 A 
ATOM     22  C   LIG    1       -3.026  13.483   0.153  0.00  0.00    -0.180 A 
ATOM     23  C   LIG    1       -1.777  12.896   0.088  0.00  0.00    +0.090 A 
BRANCH  22  24
ATOM     24  C   LIG    1       -3.326  14.708  -0.672  0.00  0.00    +0.510 C 
ATOM     25  F   LIG    1       -3.169  14.407  -2.029  0.00  0.00    -0.170 F 
ATOM     26  F   LIG    1       -2.446  15.736  -0.318  0.00  0.00    -0.180 F 
ATOM     27  F   LIG    1       -4.643  15.119  -0.435  0.00  0.00    -0.180 F 
ENDBRANCH  22  24
ENDBRANCH  17  18
ENDBRANCH   4  17
TORSDOF 6
