REMARK  Name = ZINCvU00000009Mg.0
REMARK                            x       y       z     vdW  Elec       q    Type
REMARK                         _______ _______ _______ _____ _____    ______ ____
ROOT
ATOM      1  C   LIG    1        1.535   0.026   3.651  0.00  0.00    -0.060 A 
ATOM      2  C   LIG    1        0.926   0.445   4.836  0.00  0.00    +0.070 A 
ATOM      3  C   LIG    1       -0.209   1.226   4.789  0.00  0.00    -0.040 A 
ATOM      4  C   LIG    1       -0.750   1.597   3.567  0.00  0.00    +0.120 A 
ATOM      5  C   LIG    1       -0.148   1.182   2.381  0.00  0.00    +0.100 A 
ATOM      6  C   LIG    1        0.987   0.395   2.420  0.00  0.00    +0.000 A 
ENDROOT
BRANCH   1   8
ATOM      7  N   LIG    1        3.254  -1.153   4.840  0.00  0.00    -0.340 NA
ATOM      8  C   LIG    1        2.750  -0.809   3.699  0.00  0.00    +0.280 C 
BRANCH   7   9
ATOM      9  O   LIG    1        4.420  -1.954   4.886  0.00  0.00    -0.230 OA
BRANCH   9  10
ATOM     10  C   LIG    1        4.865  -2.258   6.210  0.00  0.00    +0.230 C 
BRANCH  10  11
ATOM     11  C   LIG    1        6.125  -3.123   6.139  0.00  0.00    +0.220 C 
BRANCH  11  12
ATOM     12  O   LIG    1        7.186  -2.372   5.547  0.00  0.00    -0.310 OA
BRANCH  12  16
ATOM     13  C   LIG    1       10.825  -4.277   5.129  0.00  0.00    +0.090 A 
ATOM     14  C   LIG    1       10.675  -2.965   4.702  0.00  0.00    +0.030 A 
ATOM     15  C   LIG    1        9.458  -2.328   4.842  0.00  0.00    +0.030 A 
ATOM     16  C   LIG    1        8.384  -2.999   5.409  0.00  0.00    +0.090 A 
ATOM     17  C   LIG    1        8.535  -4.309   5.840  0.00  0.00    -0.040 A 
ATOM     18  C   LIG    1        9.752  -4.948   5.696  0.00  0.00    -0.040 A 
BRANCH  13  19
ATOM     19  O   LIG    1       12.023  -4.904   4.992  0.00  0.00    -0.320 OA
BRANCH  19  21
ATOM     20  C   LIG    1       13.520  -6.788   5.216  0.00  0.00    +0.070 C 
ATOM     21  C   LIG    1       12.106  -6.254   5.452  0.00  0.00    +0.170 C 
ENDBRANCH  19  21
ENDBRANCH  13  19
ENDBRANCH  12  16
ENDBRANCH  11  12
ENDBRANCH  10  11
ENDBRANCH   9  10
ENDBRANCH   7   9
ENDBRANCH   1   8
BRANCH   5  22
ATOM     22  O   LIG    1       -0.682   1.547   1.184  0.00  0.00    -0.300 OA
ATOM     23  C   LIG    1       -0.013   1.086   0.008  0.00  0.00    +0.240 C 
ENDBRANCH   5  22
BRANCH   4  24
ATOM     24  O   LIG    1       -1.870   2.367   3.526  0.00  0.00    -0.290 OA
BRANCH  24  25
ATOM     25  C   LIG    1       -2.435   2.756   4.780  0.00  0.00    +0.240 C 
BRANCH  25  26
ATOM     26  C   LIG    1       -3.660   3.599   4.537  0.00  0.00    -0.100 A 
ATOM     27  C   LIG    1       -3.545   4.973   4.431  0.00  0.00    +0.030 A 
ATOM     28  C   LIG    1       -4.668   5.745   4.205  0.00  0.00    +0.010 A 
ATOM     29  C   LIG    1       -5.909   5.146   4.094  0.00  0.00    +0.010 A 
ATOM     30  C   LIG    1       -6.025   3.773   4.205  0.00  0.00    +0.010 A 
ATOM     31  C   LIG    1       -4.901   2.999   4.427  0.00  0.00    +0.030 A 
ENDBRANCH  25  26
ENDBRANCH  24  25
ENDBRANCH   4  24
TORSDOF 12
