REMARK  Name = ZINCAx0000000eEF.0
REMARK                            x       y       z     vdW  Elec       q    Type
REMARK                         _______ _______ _______ _____ _____    ______ ____
ROOT
ATOM      1  C   LIG    1       -1.234   2.104   0.024  0.00  0.00    +0.180 C 
ATOM      2  N   LIG    1       -0.667   3.464   0.020  0.00  0.00    -0.710 N 
ATOM      3  H   LIG    1       -1.162   4.298   0.025  0.00  0.00    +0.440 HD
ATOM      4  C   LIG    1        0.671   3.323   0.005  0.00  0.00    +0.710 C 
ATOM      5  N   LIG    1        1.050   2.039   0.003  0.00  0.00    -0.560 N 
ATOM      6  O   LIG    1        1.449   4.257  -0.005  0.00  0.00    -0.540 OA
ATOM      7  C   LIG    1       -2.064   1.872   1.288  0.00  0.00    +0.100 C 
ATOM      8  C   LIG    1       -0.011   1.208   0.017  0.00  0.00    +0.540 C 
ATOM      9  O   LIG    1        0.009  -0.004   0.018  0.00  0.00    -0.450 OA
ENDROOT
BRANCH   1  13
ATOM     10  C   LIG    1       -3.599   1.446  -3.475  0.00  0.00    +0.150 A 
ATOM     11  C   LIG    1       -3.584   2.695  -2.871  0.00  0.00    -0.010 A 
ATOM     12  C   LIG    1       -2.819   2.905  -1.740  0.00  0.00    +0.080 A 
ATOM     13  C   LIG    1       -2.068   1.872  -1.210  0.00  0.00    -0.140 A 
ATOM     14  C   LIG    1       -2.076   0.628  -1.813  0.00  0.00    +0.080 A 
ATOM     15  C   LIG    1       -2.844   0.411  -2.941  0.00  0.00    -0.070 A 
BRANCH  10  16
ATOM     16  O   LIG    1       -4.350   1.237  -4.588  0.00  0.00    -0.310 OA
BRANCH  16  17
ATOM     17  C   LIG    1       -4.317  -0.074  -5.156  0.00  0.00    +0.190 C 
BRANCH  17  18
ATOM     18  C   LIG    1       -5.217  -0.117  -6.392  0.00  0.00    +0.040 C 
BRANCH  18  20
ATOM     19  C   LIG    1       -6.176  -1.598  -8.161  0.00  0.00    +0.030 C 
ATOM     20  C   LIG    1       -5.181  -1.520  -7.001  0.00  0.00    -0.020 C 
ATOM     21  C   LIG    1       -3.772  -1.817  -7.516  0.00  0.00    +0.020 C 
ENDBRANCH  18  20
ENDBRANCH  17  18
ENDBRANCH  16  17
ENDBRANCH  10  16
ENDBRANCH   1  13
BRANCH   5  22
ATOM     22  C   LIG    1        2.445   1.593  -0.013  0.00  0.00    +0.370 C 
BRANCH  22  23
ATOM     23  C   LIG    1        2.907   1.438  -1.439  0.00  0.00    +0.500 C 
ATOM     24  N   LIG    1        4.166   1.034  -1.699  0.00  0.00    -0.670 N 
ATOM     25  H   LIG    1        4.795   0.908  -0.972  0.00  0.00    +0.420 HD
ATOM     26  O   LIG    1        2.145   1.677  -2.352  0.00  0.00    -0.500 OA
BRANCH  24  27
ATOM     27  C   LIG    1        4.565   0.798  -3.019  0.00  0.00    +0.200 A 
ATOM     28  C   LIG    1        5.468  -0.220  -3.301  0.00  0.00    -0.020 A 
ATOM     29  C   LIG    1        5.856  -0.454  -4.605  0.00  0.00    +0.150 A 
ATOM     30  C   LIG    1        5.356   0.329  -5.629  0.00  0.00    -0.690 A 
ATOM     31  C   LIG    1        4.461   1.346  -5.351  0.00  0.00    +0.140 A 
ATOM     32  C   LIG    1        4.065   1.583  -4.049  0.00  0.00    +0.010 A 
BRANCH  30  33
ATOM     33  S   LIG    1        5.859   0.031  -7.291  0.00  0.00    +2.700 S 
ATOM     34  O   LIG    1        4.832   0.554  -8.122  0.00  0.00    -0.950 OA
ATOM     35  O   LIG    1        6.286  -1.324  -7.344  0.00  0.00    -0.950 OA
BRANCH  33  36
ATOM     36  N   LIG    1        7.203   0.956  -7.570  0.00  0.00    -1.010 NA
ATOM     37  C   LIG    1        7.060   2.319  -8.088  0.00  0.00    +0.300 C 
ATOM     38  C   LIG    1        8.536   0.412  -7.298  0.00  0.00    +0.300 C 
ENDBRANCH  33  36
ENDBRANCH  30  33
ENDBRANCH  24  27
ENDBRANCH  22  23
ENDBRANCH   5  22
TORSDOF 10
