REMARK  Name = ZINCpe00000zfGc5.0
REMARK                            x       y       z     vdW  Elec       q    Type
REMARK                         _______ _______ _______ _____ _____    ______ ____
ROOT
ATOM      1  C   LIG    1        3.519   0.674  -0.028  0.00  0.00    +0.340 C 
ATOM      2  N   LIG    1        2.055   0.658  -0.014  0.00  0.00    -0.490 N 
ATOM      3  C   LIG    1        1.212   1.745  -0.000  0.00  0.00    +0.260 A 
ATOM      4  N   LIG    1       -0.015   1.281   0.009  0.00  0.00    -0.250 NA
ATOM      5  N   LIG    1        0.002  -0.004   0.002  0.00  0.00    -0.250 NA
ATOM      6  C   LIG    1        1.241  -0.438  -0.012  0.00  0.00    +0.340 A 
ENDROOT
BRANCH   6   7
ATOM      7  N   LIG    1        1.648  -1.762  -0.024  0.00  0.00    -0.420 N 
ATOM      8  C   LIG    1        2.478  -2.072   1.162  0.00  0.00    +0.190 C 
ATOM      9  C   LIG    1        3.538  -3.101   0.714  0.00  0.00    +0.060 C 
ATOM     10  C   LIG    1        3.284  -3.295  -0.782  0.00  0.00    -0.080 C 
ATOM     11  C   LIG    1        2.520  -4.585  -1.079  0.00  0.00    +0.290 C 
ATOM     12  N   LIG    1        3.062  -5.066  -2.360  0.00  0.00    -0.730 N 
ATOM     13  H   LIG    1        2.639  -5.739  -2.916  0.00  0.00    +0.410 HD
ATOM     14  C   LIG    1        4.222  -4.453  -2.660  0.00  0.00    +0.520 C 
ATOM     15  O   LIG    1        4.883  -4.666  -3.655  0.00  0.00    -0.530 OA
ATOM     16  C   LIG    1        4.583  -3.457  -1.575  0.00  0.00    +0.070 C 
ATOM     17  C   LIG    1        2.500  -2.048  -1.210  0.00  0.00    +0.210 C 
ENDBRANCH   6   7
BRANCH   3  18
ATOM     18  C   LIG    1        1.613   3.169   0.003  0.00  0.00    +0.150 A 
ATOM     19  N   LIG    1        2.851   3.629  -0.001  0.00  0.00    -0.280 NA
ATOM     20  N   LIG    1        2.796   5.030   0.001  0.00  0.00    -0.450 N 
ATOM     21  H   LIG    1        3.559   5.630  -0.003  0.00  0.00    +0.440 HD
ATOM     22  C   LIG    1        1.503   5.398   0.014  0.00  0.00    +0.090 A 
ATOM     23  C   LIG    1        0.938   6.797   0.024  0.00  0.00    +0.110 C 
ATOM     24  C   LIG    1       -0.540   6.724  -0.379  0.00  0.00    +0.030 C 
ATOM     25  C   LIG    1       -1.247   5.657   0.462  0.00  0.00    +0.010 C 
ATOM     26  C   LIG    1       -0.762   4.266   0.035  0.00  0.00    +0.120 C 
ATOM     27  C   LIG    1        0.747   4.274   0.017  0.00  0.00    -0.190 A 
ENDBRANCH   3  18
TORSDOF 2
