REMARK  Name = ZINCc70000006kz8.1
REMARK                            x       y       z     vdW  Elec       q    Type
REMARK                         _______ _______ _______ _____ _____    ______ ____
ROOT
ATOM      1  C   LIG    1       -3.924   2.493   2.619  0.00  0.00    +0.170 C 
ATOM      2  N   LIG    1       -4.854   2.514   1.706  0.00  0.00    -0.230 NA
ENDROOT
BRANCH   1   7
ATOM      3  C   LIG    1       -0.186   1.617  -0.485  0.00  0.00    +0.160 C 
ATOM      4  C   LIG    1       -0.803   1.860   0.868  0.00  0.00    +0.060 A 
ATOM      5  C   LIG    1       -0.070   1.891   1.989  0.00  0.00    -0.080 A 
ATOM      6  S   LIG    1       -1.152   2.199   3.346  0.00  0.00    +0.220 S 
ATOM      7  C   LIG    1       -2.519   2.256   2.236  0.00  0.00    +0.080 A 
ATOM      8  N   LIG    1       -2.089   2.060   1.021  0.00  0.00    -0.420 NA
ENDBRANCH   1   7
BRANCH   1   9
ATOM      9  C   LIG    1       -4.278   2.708   4.042  0.00  0.00    +0.540 C 
ATOM     10  O   LIG    1       -3.405   2.920   4.860  0.00  0.00    -0.520 OA
ATOM     11  N   LIG    1       -5.568   2.669   4.429  0.00  0.00    -0.820 N 
ATOM     12  H   LIG    1       -5.806   2.873   5.347  0.00  0.00    +0.410 HD
ATOM     13  H   LIG    1       -6.260   2.438   3.789  0.00  0.00    +0.410 HD
ENDBRANCH   1   9
BRANCH   2  14
ATOM     14  O   LIG    1       -6.178   2.880   2.052  0.00  0.00    -0.390 OA
ATOM     15  H   LIG    1       -6.797   2.866   1.309  0.00  0.00    +0.420 HD
ENDBRANCH   2  14
TORSDOF 3
