REMARK  Name = ZINCpk000005TF16.0
REMARK                            x       y       z     vdW  Elec       q    Type
REMARK                         _______ _______ _______ _____ _____    ______ ____
ROOT
ATOM      1  N   LIG    1        2.606   0.953  -1.825  0.00  0.00    -0.410 N 
ATOM      2  C   LIG    1        1.669   2.044  -1.451  0.00  0.00    +0.210 C 
ATOM      3  C   LIG    1        1.248   1.716  -0.001  0.00  0.00    +0.280 C 
ATOM      4  C   LIG    1        2.389   0.850   0.558  0.00  0.00    -0.070 C 
ATOM      5  C   LIG    1        1.863  -0.525   0.957  0.00  0.00    +0.030 C 
ATOM      6  C   LIG    1        3.006  -1.346   1.563  0.00  0.00    +0.210 C 
ATOM      7  O   LIG    1        3.563  -0.635   2.671  0.00  0.00    -0.380 OA
ATOM      8  C   LIG    1        4.130   0.631   2.329  0.00  0.00    +0.210 C 
ATOM      9  C   LIG    1        3.036   1.539   1.757  0.00  0.00    +0.020 C 
ATOM     10  C   LIG    1        3.405   0.718  -0.593  0.00  0.00    +0.220 C 
ENDROOT
BRANCH   1  14
ATOM     11  C   LIG    1        4.965   2.276  -4.522  0.00  0.00    +0.080 A 
ATOM     12  N   LIG    1        4.282   1.224  -4.891  0.00  0.00    -0.180 NA
ATOM     13  N   LIG    1        3.485   0.745  -4.037  0.00  0.00    -0.230 NA
ATOM     14  C   LIG    1        3.417   1.336  -2.875  0.00  0.00    +0.190 A 
ATOM     15  S   LIG    1        4.492   2.670  -2.869  0.00  0.00    +0.150 S 
BRANCH  11  17
ATOM     16  N   LIG    1        6.679   3.546  -5.950  0.00  0.00    -0.340 NA
ATOM     17  C   LIG    1        5.921   2.984  -5.318  0.00  0.00    +0.280 C 
ENDBRANCH  11  17
ENDBRANCH   1  14
BRANCH   3  18
ATOM     18  N   LIG    1       -0.011   0.966   0.007  0.00  0.00    -0.710 N 
ATOM     19  H   LIG    1        0.002  -0.004   0.002  0.00  0.00    +0.410 HD
ATOM     20  C   LIG    1       -1.187   1.624   0.017  0.00  0.00    +0.610 C 
ATOM     21  O   LIG    1       -1.204   2.841   0.023  0.00  0.00    -0.520 OA
BRANCH  20  22
ATOM     22  C   LIG    1       -2.447   0.873   0.018  0.00  0.00    -0.090 A 
ATOM     23  C   LIG    1       -3.702   1.412   0.027  0.00  0.00    +0.050 A 
ATOM     24  C   LIG    1       -4.603   0.336   0.025  0.00  0.00    -0.070 A 
ATOM     25  C   LIG    1       -3.868  -0.798   0.015  0.00  0.00    +0.210 A 
ATOM     26  O   LIG    1       -2.570  -0.470   0.006  0.00  0.00    -0.160 OA
ENDBRANCH  20  22
ENDBRANCH   3  18
TORSDOF 4
