REMARK  Name = ZINCvU00000008F2.0
REMARK                            x       y       z     vdW  Elec       q    Type
REMARK                         _______ _______ _______ _____ _____    ______ ____
ROOT
ATOM      1  C   LIG    1       -1.620  -6.158  -0.431  0.00  0.00    +0.150 C 
ATOM      2  C   LIG    1       -1.489  -4.921   0.419  0.00  0.00    -0.200 A 
ATOM      3  C   LIG    1       -1.079  -4.920   1.673  0.00  0.00    -0.030 A 
ATOM      4  C   LIG    1       -1.032  -3.610   2.297  0.00  0.00    -0.230 A 
ATOM      5  C   LIG    1       -1.437  -2.600   1.427  0.00  0.00    +0.090 A 
ATOM      6  N   LIG    1       -1.452  -1.321   1.850  0.00  0.00    -0.510 NA
ATOM      7  C   LIG    1       -1.092  -0.996   3.068  0.00  0.00    +0.370 A 
ATOM      8  N   LIG    1       -0.679  -1.939   3.967  0.00  0.00    -0.470 N 
ATOM      9  C   LIG    1       -0.643  -3.240   3.619  0.00  0.00    +0.570 A 
ATOM     10  O   LIG    1       -0.281  -4.086   4.418  0.00  0.00    -0.500 OA
ATOM     11  C   LIG    1       -0.689  -6.180   2.401  0.00  0.00    +0.120 C 
ATOM     12  S   LIG    1       -1.863  -3.299  -0.131  0.00  0.00    +0.200 S 
ENDROOT
BRANCH   8  13
ATOM     13  C   LIG    1       -0.296  -1.552   5.258  0.00  0.00    +0.090 A 
ATOM     14  C   LIG    1        0.855  -0.798   5.446  0.00  0.00    +0.030 A 
ATOM     15  C   LIG    1        1.226  -0.413   6.719  0.00  0.00    +0.030 A 
ATOM     16  C   LIG    1        0.460  -0.787   7.808  0.00  0.00    +0.030 A 
ATOM     17  C   LIG    1       -0.684  -1.543   7.625  0.00  0.00    +0.020 A 
ATOM     18  C   LIG    1       -1.064  -1.926   6.353  0.00  0.00    +0.050 A 
ENDBRANCH   8  13
BRANCH   7  19
ATOM     19  S   LIG    1       -1.135   0.697   3.555  0.00  0.00    +0.100 S 
BRANCH  19  20
ATOM     20  C   LIG    1       -1.728   1.451   2.020  0.00  0.00    +0.010 C 
ATOM     21  C   LIG    1       -0.680   1.261   0.921  0.00  0.00    +0.090 C 
BRANCH  20  22
ATOM     22  C   LIG    1       -1.963   2.923   2.242  0.00  0.00    +0.540 C 
ATOM     23  N   LIG    1       -2.843   3.589   1.468  0.00  0.00    -0.570 N 
ATOM     24  C   LIG    1       -3.490   2.909   0.343  0.00  0.00    +0.300 C 
ATOM     25  O   LIG    1       -1.360   3.508   3.117  0.00  0.00    -0.510 OA
BRANCH  23  26
ATOM     26  C   LIG    1       -3.138   4.929   1.738  0.00  0.00    +0.130 A 
ATOM     27  C   LIG    1       -4.259   5.258   2.489  0.00  0.00    +0.010 A 
ATOM     28  C   LIG    1       -4.545   6.582   2.758  0.00  0.00    +0.020 A 
ATOM     29  C   LIG    1       -3.721   7.581   2.273  0.00  0.00    +0.020 A 
ATOM     30  C   LIG    1       -2.607   7.258   1.521  0.00  0.00    +0.020 A 
ATOM     31  C   LIG    1       -2.313   5.935   1.252  0.00  0.00    +0.020 A 
ENDBRANCH  23  26
ENDBRANCH  20  22
ENDBRANCH  19  20
ENDBRANCH   7  19
TORSDOF 5
