REMARK  Name = ZINCpk00000KfKiU.0
REMARK                            x       y       z     vdW  Elec       q    Type
REMARK                         _______ _______ _______ _____ _____    ______ ____
ROOT
ATOM      1  N   LIG    1       -1.697  -1.786   0.241  0.00  0.00    -0.730 N 
ATOM      2  H   LIG    1       -0.990  -2.435   0.105  0.00  0.00    +0.400 HD
ATOM      3  C   LIG    1       -1.414  -0.468   0.229  0.00  0.00    +0.520 C 
ATOM      4  O   LIG    1       -2.298   0.344   0.400  0.00  0.00    -0.520 OA
ENDROOT
BRANCH   3   5
ATOM      5  C   LIG    1        0.002  -0.004   0.002  0.00  0.00    +0.110 C 
ATOM      6  C   LIG    1        0.489  -0.500  -1.361  0.00  0.00    +0.070 C 
BRANCH   5   7
ATOM      7  N   LIG    1        0.047   1.464   0.034  0.00  0.00    -0.440 NA
ATOM      8  C   LIG    1        1.436   1.948   0.135  0.00  0.00    +0.180 C 
ATOM      9  C   LIG    1        0.938   2.999   1.137  0.00  0.00    +0.270 C 
ATOM     10  C   LIG    1       -0.170   1.970   1.402  0.00  0.00    +0.180 C 
BRANCH   9  11
ATOM     11  N   LIG    1        1.837   3.217   2.273  0.00  0.00    -0.360 N 
ATOM     12  C   LIG    1        2.925   2.479   2.579  0.00  0.00    +0.220 A 
ATOM     13  C   LIG    1        3.480   3.005   3.695  0.00  0.00    -0.120 A 
ATOM     14  C   LIG    1        2.704   4.101   4.086  0.00  0.00    +0.230 A 
ATOM     15  N   LIG    1        1.723   4.233   3.231  0.00  0.00    -0.290 NA
ENDBRANCH   9  11
ENDBRANCH   5   7
ENDBRANCH   3   5
BRANCH   1  16
ATOM     16  C   LIG    1       -3.073  -2.237   0.462  0.00  0.00    +0.330 C 
BRANCH  16  20
ATOM     17  C   LIG    1       -3.206  -6.511   0.364  0.00  0.00    +0.110 A 
ATOM     18  C   LIG    1       -3.384  -5.782  -0.801  0.00  0.00    -0.030 A 
ATOM     19  C   LIG    1       -3.345  -4.401  -0.765  0.00  0.00    +0.040 A 
ATOM     20  C   LIG    1       -3.119  -3.743   0.429  0.00  0.00    -0.110 A 
ATOM     21  C   LIG    1       -2.941  -4.464   1.596  0.00  0.00    -0.010 A 
ATOM     22  C   LIG    1       -2.983  -5.848   1.568  0.00  0.00    +0.100 A 
BRANCH  17  24
ATOM     23  C   LIG    1       -3.481  -8.481  -0.939  0.00  0.00    +0.240 C 
ATOM     24  O   LIG    1       -3.249  -7.870   0.332  0.00  0.00    -0.310 OA
ENDBRANCH  17  24
BRANCH  22  25
ATOM     25  O   LIG    1       -2.808  -6.559   2.714  0.00  0.00    -0.300 OA
ATOM     26  C   LIG    1       -2.583  -5.813   3.912  0.00  0.00    +0.240 C 
ENDBRANCH  22  25
ENDBRANCH  16  20
ENDBRANCH   1  16
TORSDOF 7
