REMARK  Name = ZINCpk00000y6wYP.0
REMARK                            x       y       z     vdW  Elec       q    Type
REMARK                         _______ _______ _______ _____ _____    ______ ____
ROOT
ATOM      1  C   LIG    1        2.130   4.345  -0.402  0.00  0.00    +0.610 C 
ATOM      2  N   LIG    1        1.383   3.263  -0.698  0.00  0.00    -0.600 N 
ATOM      3  C   LIG    1        1.634   1.889  -0.225  0.00  0.00    +0.230 C 
ATOM      4  C   LIG    1        0.253   1.190  -0.289  0.00  0.00    +0.170 C 
ATOM      5  C   LIG    1       -0.351   1.809  -1.577  0.00  0.00    +0.070 C 
ATOM      6  C   LIG    1        0.182   3.257  -1.546  0.00  0.00    +0.270 C 
ATOM      7  O   LIG    1        1.881   5.416  -0.920  0.00  0.00    -0.500 OA
ENDROOT
BRANCH   1  13
ATOM      8  C   LIG    1        3.949   4.016   4.259  0.00  0.00    +0.160 C 
ATOM      9  C   LIG    1        4.144   4.071   2.765  0.00  0.00    +0.060 A 
ATOM     10  N   LIG    1        5.349   4.015   2.268  0.00  0.00    -0.210 NA
ATOM     11  N   LIG    1        5.587   4.056   1.008  0.00  0.00    -0.340 N 
ATOM     12  C   LIG    1        4.598   4.155   0.099  0.00  0.00    +0.500 A 
ATOM     13  C   LIG    1        3.250   4.229   0.549  0.00  0.00    -0.210 A 
ATOM     14  O   LIG    1        4.855   4.187  -1.092  0.00  0.00    -0.510 OA
ATOM     15  C   LIG    1        6.975   3.987   0.544  0.00  0.00    +0.360 C 
ATOM     16  C   LIG    1        3.030   4.181   1.924  0.00  0.00    +0.010 A 
ATOM     17  C   LIG    1        1.634   4.246   2.489  0.00  0.00    +0.130 C 
ENDBRANCH   1  13
BRANCH   6  18
ATOM     18  C   LIG    1        0.536   3.705  -2.941  0.00  0.00    -0.100 A 
ATOM     19  C   LIG    1        1.734   3.313  -3.509  0.00  0.00    +0.060 A 
ATOM     20  C   LIG    1        2.058   3.719  -4.789  0.00  0.00    -0.020 A 
ATOM     21  C   LIG    1        1.188   4.529  -5.499  0.00  0.00    +0.100 A 
ATOM     22  C   LIG    1       -0.009   4.926  -4.927  0.00  0.00    -0.010 A 
ATOM     23  F   LIG    1        1.506   4.931  -6.749  0.00  0.00    -0.140 F 
ATOM     24  C   LIG    1       -0.333   4.514  -3.648  0.00  0.00    +0.060 A 
ENDBRANCH   6  18
BRANCH   4  25
ATOM     25  O   LIG    1        0.402  -0.226  -0.422  0.00  0.00    -0.550 OA
ATOM     26  H   LIG    1        0.864  -0.644   0.318  0.00  0.00    +0.380 HD
ENDBRANCH   4  25
TORSDOF 3
