REMARK  Name = ZINCAx0000000fLu.1
REMARK                            x       y       z     vdW  Elec       q    Type
REMARK                         _______ _______ _______ _____ _____    ______ ____
ROOT
ATOM      1  C   LIG    1       -0.873  -0.006  -0.348  0.00  0.00    +0.040 C 
ATOM      2  C   LIG    1        0.112   0.918  -1.016  0.00  0.00    +0.250 C 
ATOM      3  N   LIG    1       -0.250   2.092  -1.412  0.00  0.00    -0.470 NA
ATOM      4  C   LIG    1       -1.500   2.546  -1.228  0.00  0.00    +0.670 C 
ATOM      5  N   LIG    1       -2.345   1.941  -0.375  0.00  0.00    -0.740 N 
ATOM      6  H   LIG    1       -3.264   2.245  -0.307  0.00  0.00    +0.420 HD
ATOM      7  O   LIG    1       -1.875   3.524  -1.845  0.00  0.00    -0.500 OA
ATOM      8  C   LIG    1       -1.881   0.823   0.452  0.00  0.00    +0.310 C 
ENDROOT
BRANCH   8   9
ATOM      9  C   LIG    1       -3.055  -0.042   0.835  0.00  0.00    -0.120 A 
ATOM     10  C   LIG    1       -4.113  -0.198  -0.041  0.00  0.00    +0.010 A 
ATOM     11  C   LIG    1       -5.187  -0.996   0.307  0.00  0.00    +0.020 A 
ATOM     12  C   LIG    1       -5.208  -1.628   1.536  0.00  0.00    +0.030 A 
ATOM     13  C   LIG    1       -4.152  -1.467   2.415  0.00  0.00    +0.020 A 
ATOM     14  C   LIG    1       -3.076  -0.674   2.064  0.00  0.00    +0.040 A 
ENDBRANCH   8   9
BRANCH   1  15
ATOM     15  C   LIG    1       -1.601  -0.809  -1.396  0.00  0.00    +0.480 C 
ATOM     16  O   LIG    1       -1.879  -0.304  -2.458  0.00  0.00    -0.490 OA
BRANCH  15  17
ATOM     17  O   LIG    1       -1.940  -2.084  -1.149  0.00  0.00    -0.340 OA
BRANCH  17  19
ATOM     18  C   LIG    1       -2.939  -4.224  -1.743  0.00  0.00    +0.070 C 
ATOM     19  C   LIG    1       -2.639  -2.796  -2.204  0.00  0.00    +0.200 C 
ENDBRANCH  17  19
ENDBRANCH  15  17
ENDBRANCH   1  15
BRANCH   2  20
ATOM     20  C   LIG    1        1.535   0.466  -1.224  0.00  0.00    +0.330 C 
BRANCH  20  21
ATOM     21  O   LIG    1        2.286   1.521  -1.882  0.00  0.00    -0.320 OA
BRANCH  21  22
ATOM     22  C   LIG    1        3.580   1.276  -2.141  0.00  0.00    +0.470 C 
ATOM     23  O   LIG    1        4.069   0.216  -1.829  0.00  0.00    -0.500 OA
BRANCH  22  24
ATOM     24  C   LIG    1        4.423   2.324  -2.822  0.00  0.00    +0.040 C 
ATOM     25  C   LIG    1        3.915   2.596  -4.257  0.00  0.00    +0.090 C 
ATOM     26  C   LIG    1        4.741   1.672  -5.125  0.00  0.00    +0.520 C 
ATOM     27  N   LIG    1        5.815   1.236  -4.444  0.00  0.00    -0.610 N 
ATOM     28  O   LIG    1        4.474   1.370  -6.268  0.00  0.00    -0.520 OA
ATOM     29  C   LIG    1        5.851   1.798  -3.087  0.00  0.00    +0.300 C 
BRANCH  27  30
ATOM     30  C   LIG    1        6.820   0.318  -4.986  0.00  0.00    +0.350 C 
BRANCH  30  31
ATOM     31  C   LIG    1        7.917   1.110  -5.650  0.00  0.00    -0.120 A 
ATOM     32  C   LIG    1        7.826   1.426  -6.992  0.00  0.00    +0.040 A 
ATOM     33  C   LIG    1        8.829   2.156  -7.600  0.00  0.00    +0.000 A 
ATOM     34  C   LIG    1        9.930   2.562  -6.868  0.00  0.00    -0.080 A 
ATOM     35  C   LIG    1       10.024   2.241  -5.527  0.00  0.00    +0.000 A 
ATOM     36  C   LIG    1       11.027   3.352  -7.533  0.00  0.00    +0.090 C 
ATOM     37  C   LIG    1        9.017   1.515  -4.918  0.00  0.00    +0.020 A 
ENDBRANCH  30  31
ENDBRANCH  27  30
ENDBRANCH  22  24
ENDBRANCH  21  22
ENDBRANCH  20  21
ENDBRANCH   2  20
TORSDOF 10
