REMARK  Name = ZINCAx0000000fLu.0
REMARK                            x       y       z     vdW  Elec       q    Type
REMARK                         _______ _______ _______ _____ _____    ______ ____
ROOT
ATOM      1  C   LIG    1       -3.219  -0.287   6.107  0.00  0.00    -0.220 C 
ATOM      2  C   LIG    1       -1.970   0.171   5.878  0.00  0.00    +0.200 C 
ATOM      3  N   LIG    1       -1.439   1.178   6.633  0.00  0.00    -0.640 N 
ATOM      4  H   LIG    1       -0.539   1.477   6.429  0.00  0.00    +0.430 HD
ATOM      5  C   LIG    1       -2.091   1.775   7.638  0.00  0.00    +0.710 C 
ATOM      6  N   LIG    1       -3.344   1.424   7.989  0.00  0.00    -0.710 N 
ATOM      7  H   LIG    1       -3.798   1.870   8.721  0.00  0.00    +0.440 HD
ATOM      8  O   LIG    1       -1.535   2.664   8.254  0.00  0.00    -0.560 OA
ATOM      9  C   LIG    1       -4.007   0.346   7.236  0.00  0.00    +0.340 C 
ENDROOT
BRANCH   9  10
ATOM     10  C   LIG    1       -5.280   0.902   6.653  0.00  0.00    -0.120 A 
ATOM     11  C   LIG    1       -5.301   2.183   6.134  0.00  0.00    +0.030 A 
ATOM     12  C   LIG    1       -6.468   2.691   5.594  0.00  0.00    +0.000 A 
ATOM     13  C   LIG    1       -7.617   1.922   5.584  0.00  0.00    +0.010 A 
ATOM     14  C   LIG    1       -7.597   0.643   6.107  0.00  0.00    +0.000 A 
ATOM     15  C   LIG    1       -6.429   0.133   6.642  0.00  0.00    +0.010 A 
ENDBRANCH   9  10
BRANCH   1  16
ATOM     16  C   LIG    1       -3.773  -1.326   5.322  0.00  0.00    +0.540 C 
ATOM     17  O   LIG    1       -3.809  -2.462   5.755  0.00  0.00    -0.490 OA
BRANCH  16  18
ATOM     18  O   LIG    1       -4.261  -1.056   4.093  0.00  0.00    -0.340 OA
BRANCH  18  20
ATOM     19  C   LIG    1       -5.304  -1.656   1.997  0.00  0.00    +0.060 C 
ATOM     20  C   LIG    1       -4.804  -2.153   3.356  0.00  0.00    +0.200 C 
ENDBRANCH  18  20
ENDBRANCH  16  18
ENDBRANCH   1  16
BRANCH   2  21
ATOM     21  C   LIG    1       -1.150  -0.434   4.767  0.00  0.00    +0.300 C 
BRANCH  21  22
ATOM     22  O   LIG    1       -0.904   0.568   3.746  0.00  0.00    -0.340 OA
BRANCH  22  23
ATOM     23  C   LIG    1       -0.183   0.188   2.680  0.00  0.00    +0.480 C 
ATOM     24  O   LIG    1        0.230  -0.945   2.603  0.00  0.00    -0.490 OA
BRANCH  23  25
ATOM     25  C   LIG    1        0.113   1.174   1.579  0.00  0.00    +0.040 C 
ATOM     26  C   LIG    1       -1.178   1.558   0.816  0.00  0.00    +0.090 C 
ATOM     27  C   LIG    1       -0.733   1.690  -0.624  0.00  0.00    +0.520 C 
ATOM     28  N   LIG    1        0.465   1.104  -0.793  0.00  0.00    -0.610 N 
ATOM     29  O   LIG    1       -1.365   2.244  -1.499  0.00  0.00    -0.520 OA
ATOM     30  C   LIG    1        0.953   0.518   0.461  0.00  0.00    +0.290 C 
BRANCH  28  31
ATOM     31  C   LIG    1        1.189   1.056  -2.065  0.00  0.00    +0.350 C 
BRANCH  31  32
ATOM     32  C   LIG    1        0.793  -0.185  -2.822  0.00  0.00    -0.120 A 
ATOM     33  C   LIG    1        1.502  -1.359  -2.646  0.00  0.00    +0.020 A 
ATOM     34  C   LIG    1        1.135  -2.499  -3.337  0.00  0.00    +0.000 A 
ATOM     35  C   LIG    1        0.066  -2.462  -4.212  0.00  0.00    -0.080 A 
ATOM     36  C   LIG    1       -0.640  -1.288  -4.393  0.00  0.00    +0.000 A 
ATOM     37  C   LIG    1       -0.330  -3.703  -4.970  0.00  0.00    +0.090 C 
ATOM     38  C   LIG    1       -0.276  -0.149  -3.698  0.00  0.00    +0.040 A 
ENDBRANCH  31  32
ENDBRANCH  28  31
ENDBRANCH  23  25
ENDBRANCH  22  23
ENDBRANCH  21  22
ENDBRANCH   2  21
TORSDOF 10
