REMARK  Name = ZINCpk00000xSyiT.0
REMARK                            x       y       z     vdW  Elec       q    Type
REMARK                         _______ _______ _______ _____ _____    ______ ____
ROOT
ATOM      1  C   LIG    1       -3.309   0.966  -2.820  0.00  0.00    +0.230 C 
ATOM      2  N   LIG    1       -2.797  -0.312  -3.345  0.00  0.00    -0.710 N 
ATOM      3  H   LIG    1       -2.932  -0.667  -4.237  0.00  0.00    +0.450 HD
ATOM      4  C   LIG    1       -2.108  -0.889  -2.344  0.00  0.00    +0.700 C 
ATOM      5  N   LIG    1       -2.105  -0.148  -1.230  0.00  0.00    -0.580 N 
ATOM      6  O   LIG    1       -1.550  -1.965  -2.442  0.00  0.00    -0.540 OA
ATOM      7  C   LIG    1       -2.802   0.994  -1.392  0.00  0.00    +0.530 C 
ATOM      8  O   LIG    1       -2.985   1.863  -0.567  0.00  0.00    -0.450 OA
ENDROOT
BRANCH   1   9
ATOM      9  C   LIG    1       -2.744   2.142  -3.619  0.00  0.00    +0.170 C 
BRANCH   9  12
ATOM     10  N   LIG    1       -4.225   2.603  -6.907  0.00  0.00    -0.280 N 
ATOM     11  C   LIG    1       -3.941   3.084  -5.674  0.00  0.00    +0.150 A 
ATOM     12  C   LIG    1       -3.280   2.096  -5.027  0.00  0.00    -0.030 A 
ATOM     13  N   LIG    1       -3.200   1.069  -5.881  0.00  0.00    -0.270 NA
ATOM     14  N   LIG    1       -3.769   1.401  -6.986  0.00  0.00    -0.080 NA
BRANCH  10  16
ATOM     15  C   LIG    1       -6.444   3.166  -7.767  0.00  0.00    +0.060 C 
ATOM     16  C   LIG    1       -4.935   3.323  -7.967  0.00  0.00    +0.260 C 
ATOM     17  C   LIG    1       -4.564   4.806  -7.912  0.00  0.00    +0.060 C 
ENDBRANCH  10  16
ENDBRANCH   9  12
ENDBRANCH   1   9
BRANCH   5  18
ATOM     18  C   LIG    1       -1.433  -0.534   0.013  0.00  0.00    +0.350 C 
BRANCH  18  19
ATOM     19  C   LIG    1        0.002  -0.004   0.002  0.00  0.00    +0.190 C 
BRANCH  19  20
ATOM     20  O   LIG    1       -0.017   1.425   0.010  0.00  0.00    -0.310 OA
BRANCH  20  21
ATOM     21  C   LIG    1        1.185   2.058   0.002  0.00  0.00    +0.130 A 
ATOM     22  C   LIG    1        2.359   1.320  -0.008  0.00  0.00    -0.080 A 
ATOM     23  C   LIG    1        3.580   1.966  -0.021  0.00  0.00    +0.040 A 
ATOM     24  C   LIG    1        3.633   3.348  -0.015  0.00  0.00    -0.040 A 
ATOM     25  C   LIG    1        2.464   4.086   0.000  0.00  0.00    +0.050 A 
ATOM     26  C   LIG    1        1.240   3.444   0.009  0.00  0.00    -0.020 A 
ENDBRANCH  20  21
ENDBRANCH  19  20
ENDBRANCH  18  19
ENDBRANCH   5  18
TORSDOF 7
