REMARK  Name = ZINCrH000004u7Jo.0
REMARK                            x       y       z     vdW  Elec       q    Type
REMARK                         _______ _______ _______ _____ _____    ______ ____
ROOT
ATOM      1  C   LIG    1       -1.417   6.998   0.054  0.00  0.00    +0.570 C 
ATOM      2  N   LIG    1       -0.731   8.158   0.053  0.00  0.00    -0.710 N 
ATOM      3  H   LIG    1        0.239   8.147   0.044  0.00  0.00    +0.400 HD
ATOM      4  O   LIG    1       -2.633   7.011   0.066  0.00  0.00    -0.520 OA
ENDROOT
BRANCH   2   5
ATOM      5  C   LIG    1       -1.450   9.434   0.068  0.00  0.00    +0.370 C 
ATOM      6  C   LIG    1       -1.826   9.808  -1.340  0.00  0.00    -0.170 A 
ATOM      7  C   LIG    1       -2.303   8.832  -2.197  0.00  0.00    +0.070 A 
ATOM      8  C   LIG    1       -2.654   9.155  -3.494  0.00  0.00    -0.010 A 
ATOM      9  C   LIG    1       -2.529  10.457  -3.940  0.00  0.00    +0.060 A 
ATOM     10  C   LIG    1       -2.056  11.434  -3.090  0.00  0.00    +0.000 A 
ATOM     11  C   LIG    1       -1.700  11.113  -1.786  0.00  0.00    +0.120 A 
ATOM     12  O   LIG    1       -1.233  12.087  -0.968  0.00  0.00    -0.240 OA
ATOM     13  C   LIG    1       -0.506  11.763   0.128  0.00  0.00    +0.130 A 
ATOM     14  C   LIG    1        0.315  12.724   0.707  0.00  0.00    +0.010 A 
ATOM     15  C   LIG    1        1.064  12.413   1.824  0.00  0.00    +0.060 A 
ATOM     16  C   LIG    1        0.998  11.144   2.370  0.00  0.00    -0.010 A 
ATOM     17  C   LIG    1        0.182  10.187   1.797  0.00  0.00    +0.060 A 
ATOM     18  C   LIG    1       -0.570  10.492   0.676  0.00  0.00    -0.170 A 
ENDBRANCH   2   5
BRANCH   1  25
ATOM     19  O   LIG    1        0.002  -0.004   0.002  0.00  0.00    -0.480 OA
ATOM     20  C   LIG    1       -0.014   1.212   0.009  0.00  0.00    +0.640 A 
ATOM     21  N   LIG    1       -1.125   1.974   0.018  0.00  0.00    -0.650 N 
ATOM     22  H   LIG    1       -2.041   1.655   0.019  0.00  0.00    +0.450 HD
ATOM     23  C   LIG    1       -0.717   3.309   0.027  0.00  0.00    +0.060 A 
ATOM     24  C   LIG    1       -1.403   4.509   0.040  0.00  0.00    +0.110 A 
ATOM     25  C   LIG    1       -0.693   5.711   0.039  0.00  0.00    -0.120 A 
ATOM     26  C   LIG    1        0.705   5.694   0.026  0.00  0.00    +0.080 A 
ATOM     27  C   LIG    1        1.383   4.496   0.013  0.00  0.00    +0.070 A 
ATOM     28  C   LIG    1        0.680   3.298   0.013  0.00  0.00    +0.070 A 
ATOM     29  O   LIG    1        1.071   2.001   0.003  0.00  0.00    -0.230 OA
ENDBRANCH   1  25
TORSDOF 2
