REMARK  Name = ZINCpk00000kIYTE.0
REMARK                            x       y       z     vdW  Elec       q    Type
REMARK                         _______ _______ _______ _____ _____    ______ ____
ROOT
ATOM      1  C   LIG    1       -0.010  -0.058  -0.040  0.00  0.00    +0.300 C 
ENDROOT
BRANCH   1   3
ATOM      2  C   LIG    1       -1.222   2.038  -0.317  0.00  0.00    +0.570 C 
ATOM      3  N   LIG    1       -0.042   1.388  -0.274  0.00  0.00    -0.710 N 
ATOM      4  H   LIG    1        0.786   1.877  -0.402  0.00  0.00    +0.400 HD
ATOM      5  O   LIG    1       -2.260   1.424  -0.162  0.00  0.00    -0.510 OA
BRANCH   2  11
ATOM      6  C   LIG    1       -1.186   6.700   1.461  0.00  0.00    +0.110 C 
ATOM      7  C   LIG    1       -1.237   5.743   0.299  0.00  0.00    -0.060 A 
ATOM      8  C   LIG    1       -1.315   6.231  -0.994  0.00  0.00    +0.080 A 
ATOM      9  C   LIG    1       -1.362   5.361  -2.067  0.00  0.00    +0.020 A 
ATOM     10  C   LIG    1       -1.327   3.995  -1.857  0.00  0.00    +0.130 A 
ATOM     11  C   LIG    1       -1.254   3.495  -0.552  0.00  0.00    -0.130 A 
ATOM     12  F   LIG    1       -1.368   3.146  -2.907  0.00  0.00    -0.120 F 
ATOM     13  C   LIG    1       -1.206   4.382   0.526  0.00  0.00    -0.040 A 
ATOM     14 BR   LIG    1       -1.101   3.719   2.294  0.00  0.00    -0.010 Br
ENDBRANCH   2  11
ENDBRANCH   1   3
BRANCH   1  15
ATOM     15  C   LIG    1        1.419  -0.536  -0.045  0.00  0.00    -0.020 C 
ATOM     16  C   LIG    1        1.877  -1.240   0.960  0.00  0.00    -0.020 C 
BRANCH  16  17
ATOM     17  C   LIG    1        0.938  -1.715   2.038  0.00  0.00    +0.300 C 
BRANCH  17  18
ATOM     18  N   LIG    1        1.089  -3.162   2.213  0.00  0.00    -0.710 N 
ATOM     19  H   LIG    1        1.725  -3.653   1.670  0.00  0.00    +0.410 HD
ATOM     20  C   LIG    1        0.343  -3.811   3.130  0.00  0.00    +0.530 C 
ATOM     21  O   LIG    1       -0.452  -3.197   3.809  0.00  0.00    -0.530 OA
BRANCH  20  22
ATOM     22  C   LIG    1        0.498  -5.299   3.310  0.00  0.00    -0.010 C 
ATOM     23  C   LIG    1       -0.423  -5.806   4.444  0.00  0.00    +0.080 C 
ATOM     24  C   LIG    1        0.451  -6.900   5.095  0.00  0.00    +0.270 C 
ATOM     25  N   LIG    1        1.838  -6.525   4.793  0.00  0.00    -0.730 N 
ATOM     26  H   LIG    1        2.613  -6.878   5.256  0.00  0.00    +0.420 HD
ATOM     27  C   LIG    1        1.895  -5.632   3.787  0.00  0.00    +0.530 C 
ATOM     28  O   LIG    1        2.916  -5.161   3.330  0.00  0.00    -0.520 OA
ENDBRANCH  20  22
ENDBRANCH  17  18
ENDBRANCH  16  17
ENDBRANCH   1  15
TORSDOF 6
