REMARK  Name = ZINCqH0000001oEJ.0
REMARK                            x       y       z     vdW  Elec       q    Type
REMARK                         _______ _______ _______ _____ _____    ______ ____
ROOT
ATOM      1  N   LIG    1       -1.581   4.832   2.669  0.00  0.00    -0.500 NA
ATOM      2  C   LIG    1       -0.220   5.367   2.804  0.00  0.00    +0.210 C 
ENDROOT
BRANCH   1   3
ATOM      3  C   LIG    1       -1.570   3.363   2.653  0.00  0.00    +0.190 C 
BRANCH   3   5
ATOM      4  N   LIG    1       -0.738   1.557   1.183  0.00  0.00    -0.610 N 
ATOM      5  C   LIG    1       -0.869   2.879   1.411  0.00  0.00    +0.520 C 
ATOM      6  O   LIG    1       -0.422   3.679   0.616  0.00  0.00    -0.510 OA
BRANCH   4   7
ATOM      7  C   LIG    1       -0.056   1.086  -0.026  0.00  0.00    +0.240 C 
ATOM      8  C   LIG    1       -0.794   1.604  -1.262  0.00  0.00    +0.010 C 
ATOM      9  C   LIG    1       -0.082   1.112  -2.524  0.00  0.00    +0.010 C 
ATOM     10  C   LIG    1        1.357   1.633  -2.534  0.00  0.00    +0.010 C 
ATOM     11  C   LIG    1        2.094   1.115  -1.297  0.00  0.00    +0.010 C 
ATOM     12  C   LIG    1        1.382   1.607  -0.035  0.00  0.00    +0.010 C 
ENDBRANCH   4   7
BRANCH   4  14
ATOM     13  C   LIG    1       -2.320  -0.289   1.450  0.00  0.00    +0.030 C 
ATOM     14  C   LIG    1       -1.278   0.591   2.143  0.00  0.00    +0.220 C 
ATOM     15  C   LIG    1       -0.143  -0.286   2.676  0.00  0.00    +0.030 C 
ENDBRANCH   4  14
ENDBRANCH   3   5
ENDBRANCH   1   3
BRANCH   1  16
ATOM     16  C   LIG    1       -2.455   5.341   3.733  0.00  0.00    +0.220 C 
BRANCH  16  17
ATOM     17  C   LIG    1       -2.636   6.828   3.567  0.00  0.00    +0.520 C 
ATOM     18  N   LIG    1       -3.405   7.515   4.436  0.00  0.00    -0.670 N 
ATOM     19  H   LIG    1       -3.893   7.044   5.129  0.00  0.00    +0.410 HD
ATOM     20  O   LIG    1       -2.091   7.407   2.651  0.00  0.00    -0.490 OA
BRANCH  18  21
ATOM     21  C   LIG    1       -3.498   8.908   4.338  0.00  0.00    +0.160 A 
ATOM     22  C   LIG    1       -3.466   9.522   3.093  0.00  0.00    +0.040 A 
ATOM     23  C   LIG    1       -3.559  10.897   3.000  0.00  0.00    +0.040 A 
ATOM     24  C   LIG    1       -3.683  11.663   4.144  0.00  0.00    +0.010 A 
ATOM     25  C   LIG    1       -3.715  11.056   5.386  0.00  0.00    +0.050 A 
ATOM     26  C   LIG    1       -3.628   9.680   5.487  0.00  0.00    -0.070 A 
ATOM     27 CL   LIG    1       -3.674   8.918   7.045  0.00  0.00    -0.070 Cl
ENDBRANCH  18  21
ENDBRANCH  16  17
ENDBRANCH   1  16
TORSDOF 7
