REMARK  Name = ZINCpk00000eb88J.0
REMARK                            x       y       z     vdW  Elec       q    Type
REMARK                         _______ _______ _______ _____ _____    ______ ____
ROOT
ATOM      1  N   LIG    1       -1.552   7.460   0.488  0.00  0.00    -0.650 N 
ATOM      2  H   LIG    1       -0.723   7.928   0.300  0.00  0.00    +0.420 HD
ATOM      3  C   LIG    1       -2.729   8.110   0.393  0.00  0.00    +0.490 C 
ATOM      4  O   LIG    1       -3.758   7.550   0.709  0.00  0.00    -0.490 OA
ENDROOT
BRANCH   1  11
ATOM      5  C   LIG    1       -0.524  -0.163   1.820  0.00  0.00    +0.190 C 
ATOM      6  C   LIG    1       -0.534   1.286   1.406  0.00  0.00    +0.450 A 
ATOM      7  N   LIG    1        0.342   1.683   0.526  0.00  0.00    -0.600 NA
ATOM      8  C   LIG    1        0.396   2.961   0.106  0.00  0.00    +0.530 A 
ATOM      9  C   LIG    1       -0.573   3.918   0.671  0.00  0.00    -0.190 A 
ATOM     10  C   LIG    1       -0.591   5.258   0.295  0.00  0.00    +0.110 A 
ATOM     11  C   LIG    1       -1.525   6.110   0.860  0.00  0.00    +0.110 A 
ATOM     12  C   LIG    1       -2.439   5.630   1.796  0.00  0.00    +0.100 A 
ATOM     13  C   LIG    1       -2.428   4.305   2.173  0.00  0.00    +0.000 A 
ATOM     14  C   LIG    1       -1.497   3.438   1.617  0.00  0.00    +0.170 A 
ATOM     15  O   LIG    1        1.221   3.317  -0.718  0.00  0.00    -0.480 OA
ATOM     16  N   LIG    1       -1.450   2.100   1.959  0.00  0.00    -0.620 N 
ATOM     17  H   LIG    1       -2.080   1.746   2.606  0.00  0.00    +0.420 HD
ENDBRANCH   1  11
BRANCH   3  18
ATOM     18  C   LIG    1       -2.767   9.531  -0.107  0.00  0.00    +0.090 C 
BRANCH  18  19
ATOM     19  C   LIG    1       -2.808   9.533  -1.636  0.00  0.00    +0.490 C 
ATOM     20  F   LIG    1       -1.654   8.920  -2.135  0.00  0.00    -0.180 F 
ATOM     21  F   LIG    1       -2.873  10.852  -2.099  0.00  0.00    -0.140 F 
ATOM     22  F   LIG    1       -3.936   8.830  -2.073  0.00  0.00    -0.170 F 
ENDBRANCH  18  19
BRANCH  18  23
ATOM     23  O   LIG    1       -1.599  10.224   0.339  0.00  0.00    -0.520 OA
ATOM     24  H   LIG    1       -1.507  10.262   1.301  0.00  0.00    +0.400 HD
ENDBRANCH  18  23
BRANCH  18  25
ATOM     25  C   LIG    1       -4.014  10.230   0.439  0.00  0.00    +0.220 C 
BRANCH  25  26
ATOM     26  N   LIG    1       -4.125  11.568  -0.158  0.00  0.00    -0.540 NA
ATOM     27  C   LIG    1       -3.121  12.481   0.404  0.00  0.00    +0.200 C 
ATOM     28  C   LIG    1       -5.481  12.108   0.010  0.00  0.00    +0.200 C 
ENDBRANCH  25  26
ENDBRANCH  18  25
ENDBRANCH   3  18
TORSDOF 6
