REMARK  Name = ZINCrD00000dddZz.0
REMARK                            x       y       z     vdW  Elec       q    Type
REMARK                         _______ _______ _______ _____ _____    ______ ____
ROOT
ATOM      1  C   LIG    1        7.900   1.511  -0.162  0.00  0.00    +0.250 A 
ATOM      2  N   LIG    1        6.670   1.953  -0.115  0.00  0.00    -0.280 NA
ATOM      3  N   LIG    1        5.833   0.832   0.012  0.00  0.00    -0.320 N 
ATOM      4  C   LIG    1        6.657  -0.254   0.038  0.00  0.00    +0.400 A 
ATOM      5  N   LIG    1        7.898   0.184  -0.073  0.00  0.00    -0.510 NA
ENDROOT
BRANCH   3   6
ATOM      6  C   LIG    1        4.438   0.831   0.099  0.00  0.00    +0.510 A 
ATOM      7  N   LIG    1        3.683   1.902   0.236  0.00  0.00    -0.300 NA
ATOM      8  N   LIG    1        2.352   1.465   0.281  0.00  0.00    -0.280 N 
ATOM      9  C   LIG    1        1.165   2.115   0.410  0.00  0.00    +0.300 A 
ATOM     10  C   LIG    1        0.002   1.426   0.424  0.00  0.00    +0.020 A 
ATOM     11  C   LIG    1        0.008   0.028   0.307  0.00  0.00    +0.120 A 
ATOM     12  C   LIG    1        1.192  -0.631   0.178  0.00  0.00    +0.050 A 
ATOM     13  C   LIG    1        2.391   0.104   0.165  0.00  0.00    +0.310 A 
ATOM     14  N   LIG    1        3.667  -0.251   0.056  0.00  0.00    -0.570 NA
ENDBRANCH   3   6
BRANCH   4  15
ATOM     15  C   LIG    1        6.240  -1.660   0.165  0.00  0.00    +0.040 A 
ATOM     16  C   LIG    1        6.965  -2.752  -0.217  0.00  0.00    -0.080 A 
ATOM     17  C   LIG    1        6.197  -3.887   0.082  0.00  0.00    -0.040 A 
ATOM     18  C   LIG    1        5.036  -3.467   0.633  0.00  0.00    +0.200 A 
ATOM     19  N   LIG    1        5.053  -2.107   0.694  0.00  0.00    -0.520 N 
ATOM     20  H   LIG    1        4.345  -1.547   1.049  0.00  0.00    +0.420 HD
BRANCH  16  21
ATOM     21  C   LIG    1        8.335  -2.740  -0.844  0.00  0.00    +0.260 C 
BRANCH  21  22
ATOM     22  O   LIG    1        8.755  -4.083  -1.097  0.00  0.00    -0.390 OA
ATOM     23  C   LIG    1       10.049  -4.184  -1.695  0.00  0.00    +0.200 C 
ENDBRANCH  21  22
ENDBRANCH  16  21
ENDBRANCH   4  15
BRANCH   1  24
ATOM     24  C   LIG    1        9.130   2.372  -0.295  0.00  0.00    +0.100 C 
ATOM     25  C   LIG    1        9.209   3.336   0.890  0.00  0.00    +0.040 C 
BRANCH  24  26
ATOM     26  C   LIG    1        9.054   3.171  -1.598  0.00  0.00    +0.020 C 
BRANCH  26  28
ATOM     27  C   LIG    1       10.280   4.748  -3.098  0.00  0.00    +0.010 C 
ATOM     28  C   LIG    1       10.356   3.950  -1.795  0.00  0.00    +0.020 C 
ENDBRANCH  26  28
ENDBRANCH  24  26
ENDBRANCH   1  24
TORSDOF 7
