REMARK  Name = ZINCrD00000lbEeK.0
REMARK                            x       y       z     vdW  Elec       q    Type
REMARK                         _______ _______ _______ _____ _____    ______ ____
ROOT
ATOM      1  O   LIG    1       -2.624   8.214  -0.363  0.00  0.00    -0.320 OA
ENDROOT
BRANCH   1   2
ATOM      2  C   LIG    1       -2.790   9.351  -1.069  0.00  0.00    +0.540 C 
ATOM      3  O   LIG    1       -1.822   9.943  -1.506  0.00  0.00    -0.490 OA
BRANCH   2   5
ATOM      4  C   LIG    1       -4.899   9.534  -2.399  0.00  0.00    +0.050 A 
ATOM      5  C   LIG    1       -4.137   9.873  -1.310  0.00  0.00    -0.200 A 
ATOM      6  C   LIG    1       -4.809  10.796  -0.421  0.00  0.00    -0.050 A 
ATOM      7  C   LIG    1       -6.019  11.137  -0.842  0.00  0.00    -0.250 A 
ATOM      8  C   LIG    1       -6.940  12.085  -0.118  0.00  0.00    +0.150 C 
ATOM      9  C   LIG    1       -4.194  11.320   0.851  0.00  0.00    +0.120 C 
ATOM     10  S   LIG    1       -6.406  10.330  -2.350  0.00  0.00    +0.310 S 
BRANCH   4  13
ATOM     11  C   LIG    1       -4.890   7.453  -5.522  0.00  0.00    +0.140 C 
ATOM     12  C   LIG    1       -5.325   8.398  -4.432  0.00  0.00    +0.510 C 
ATOM     13  N   LIG    1       -4.499   8.665  -3.402  0.00  0.00    -0.630 N 
ATOM     14  H   LIG    1       -3.624   8.248  -3.362  0.00  0.00    +0.420 HD
ATOM     15  O   LIG    1       -6.420   8.919  -4.482  0.00  0.00    -0.500 OA
ENDBRANCH   4  13
ENDBRANCH   2   5
ENDBRANCH   1   2
BRANCH   1  16
ATOM     16  C   LIG    1       -1.261   7.756  -0.163  0.00  0.00    +0.190 C 
ATOM     17  C   LIG    1       -0.702   8.363   1.125  0.00  0.00    +0.070 C 
BRANCH  16  18
ATOM     18  C   LIG    1       -1.247   6.253  -0.057  0.00  0.00    +0.520 C 
ATOM     19  N   LIG    1       -0.074   5.594   0.031  0.00  0.00    -0.670 N 
ATOM     20  H   LIG    1        0.757   6.090   0.092  0.00  0.00    +0.420 HD
ATOM     21  O   LIG    1       -2.291   5.635  -0.050  0.00  0.00    -0.490 OA
BRANCH  19  22
ATOM     22  C   LIG    1       -0.056   4.199   0.033  0.00  0.00    +0.170 A 
ATOM     23  C   LIG    1        0.988   3.518  -0.585  0.00  0.00    +0.000 A 
ATOM     24  C   LIG    1        1.009   2.141  -0.585  0.00  0.00    +0.090 A 
ATOM     25  C   LIG    1       -0.020   1.428   0.036  0.00  0.00    -0.040 A 
ATOM     26  C   LIG    1       -1.069   2.115   0.652  0.00  0.00    +0.090 A 
ATOM     27  C   LIG    1       -1.081   3.492   0.653  0.00  0.00    +0.030 A 
BRANCH  25  28
ATOM     28  C   LIG    1       -0.002  -0.004   0.038  0.00  0.00    +0.250 C 
ATOM     29  N   LIG    1        0.013  -1.140   0.039  0.00  0.00    -0.410 NA
ENDBRANCH  25  28
ENDBRANCH  19  22
ENDBRANCH  16  18
ENDBRANCH   1  16
TORSDOF 7
