REMARK  Name = ZINCpe00000FUfVG.0
REMARK                            x       y       z     vdW  Elec       q    Type
REMARK                         _______ _______ _______ _____ _____    ______ ____
ROOT
ATOM      1  C   LIG    1       -4.034  -0.505   6.044  0.00  0.00    +0.360 C 
ATOM      2  N   LIG    1       -3.317   0.760   6.223  0.00  0.00    -0.410 N 
ATOM      3  C   LIG    1       -3.518   1.663   7.203  0.00  0.00    +0.500 A 
ATOM      4  N   LIG    1       -2.697   2.671   7.049  0.00  0.00    -0.500 NA
ATOM      5  C   LIG    1       -1.932   2.471   5.972  0.00  0.00    +0.320 A 
ATOM      6  N   LIG    1       -0.922   3.198   5.363  0.00  0.00    -0.510 N 
ATOM      7  C   LIG    1       -0.508   4.487   5.923  0.00  0.00    +0.340 C 
ATOM      8  C   LIG    1       -0.318   2.720   4.258  0.00  0.00    +0.710 A 
ATOM      9  O   LIG    1        0.569   3.370   3.740  0.00  0.00    -0.530 OA
ATOM     10  N   LIG    1       -0.675   1.545   3.712  0.00  0.00    -0.550 N 
ATOM     11  C   LIG    1       -1.651   0.791   4.260  0.00  0.00    +0.600 A 
ATOM     12  O   LIG    1       -1.961  -0.274   3.758  0.00  0.00    -0.510 OA
ATOM     13  C   LIG    1       -2.307   1.252   5.421  0.00  0.00    -0.160 A 
ENDROOT
BRANCH  10  14
ATOM     14  C   LIG    1        0.011   1.072   2.506  0.00  0.00    +0.340 C 
BRANCH  14  15
ATOM     15  C   LIG    1       -0.729   1.579   1.267  0.00  0.00    +0.050 C 
BRANCH  15  16
ATOM     16  C   LIG    1       -0.013   1.086   0.008  0.00  0.00    +0.110 C 
BRANCH  16  17
ATOM     17  S   LIG    1       -0.888   1.685  -1.458  0.00  0.00    +0.070 S 
BRANCH  17  18
ATOM     18  C   LIG    1        0.122   0.990  -2.724  0.00  0.00    +0.130 A 
ATOM     19  N   LIG    1        1.197   0.259  -2.547  0.00  0.00    -0.280 NA
ATOM     20  N   LIG    1        1.675  -0.078  -3.693  0.00  0.00    -0.280 NA
ATOM     21  C   LIG    1        0.938   0.427  -4.638  0.00  0.00    +0.200 A 
ATOM     22  O   LIG    1       -0.062   1.115  -4.051  0.00  0.00    -0.200 OA
BRANCH  21  23
ATOM     23  C   LIG    1        1.161   0.272  -6.120  0.00  0.00    +0.050 C 
ATOM     24  C   LIG    1        2.236  -0.718  -6.573  0.00  0.00    +0.080 C 
ATOM     25  C   LIG    1        2.482   0.788  -6.694  0.00  0.00    +0.060 C 
ENDBRANCH  21  23
ENDBRANCH  17  18
ENDBRANCH  16  17
ENDBRANCH  15  16
ENDBRANCH  14  15
ENDBRANCH  10  14
TORSDOF 6
