REMARK  Name = ZINCrD000000D6Pw.0
REMARK                            x       y       z     vdW  Elec       q    Type
REMARK                         _______ _______ _______ _____ _____    ______ ____
ROOT
ATOM      1  O   LIG    1        3.673   1.881   0.522  0.00  0.00    -0.950 OA
ATOM      2  S   LIG    1        2.724   0.971  -0.018  0.00  0.00    +2.700 S 
ATOM      3  O   LIG    1        2.494  -0.323   0.522  0.00  0.00    -0.950 OA
ENDROOT
BRANCH   2   4
ATOM      4  N   LIG    1        3.142   0.748  -1.605  0.00  0.00    -1.000 NA
ATOM      5  C   LIG    1        2.740  -0.471  -2.321  0.00  0.00    +0.280 C 
ATOM      6  C   LIG    1        3.978  -1.117  -2.938  0.00  0.00    +0.020 C 
ATOM      7  C   LIG    1        4.708  -0.089  -3.807  0.00  0.00    +0.000 C 
ATOM      8  C   LIG    1        5.157   1.088  -2.938  0.00  0.00    +0.020 C 
ATOM      9  C   LIG    1        3.927   1.762  -2.322  0.00  0.00    +0.290 C 
BRANCH   7  10
ATOM     10  C   LIG    1        5.931  -0.743  -4.452  0.00  0.00    +0.060 C 
BRANCH  10  11
ATOM     11  C   LIG    1        5.482  -1.823  -5.402  0.00  0.00    -0.080 A 
ATOM     12  C   LIG    1        5.322  -3.119  -4.949  0.00  0.00    +0.000 A 
ATOM     13  C   LIG    1        4.905  -4.109  -5.819  0.00  0.00    +0.000 A 
ATOM     14  C   LIG    1        4.657  -3.804  -7.145  0.00  0.00    -0.010 A 
ATOM     15  C   LIG    1        4.822  -2.509  -7.599  0.00  0.00    +0.000 A 
ATOM     16  C   LIG    1        5.234  -1.519  -6.727  0.00  0.00    +0.000 A 
ENDBRANCH  10  11
ENDBRANCH   7  10
ENDBRANCH   2   4
BRANCH   2  17
ATOM     17  C   LIG    1        1.171   1.802   0.001  0.00  0.00    -0.760 A 
ATOM     18  C   LIG    1       -0.013   1.076   0.008  0.00  0.00    +0.190 A 
ATOM     19  C   LIG    1       -1.211   1.767   0.017  0.00  0.00    -0.050 A 
ATOM     20  C   LIG    1       -1.190   3.158   0.030  0.00  0.00    +0.350 A 
ATOM     21  N   LIG    1       -0.040   3.814   0.023  0.00  0.00    -0.530 NA
ATOM     22  C   LIG    1        1.118   3.181   0.009  0.00  0.00    +0.400 A 
BRANCH  20  23
ATOM     23  N   LIG    1       -2.386   3.865   0.045  0.00  0.00    -0.460 N 
ATOM     24  C   LIG    1       -3.158   3.580   1.282  0.00  0.00    +0.190 C 
ATOM     25  C   LIG    1       -4.126   4.785   1.381  0.00  0.00    +0.040 C 
ATOM     26  C   LIG    1       -3.259   5.967   0.890  0.00  0.00    +0.020 C 
ATOM     27  C   LIG    1       -2.140   5.323   0.050  0.00  0.00    +0.210 C 
ENDBRANCH  20  23
ENDBRANCH   2  17
TORSDOF 5
