REMARK  Name = ZINCpk00000y6wEH.0
REMARK                            x       y       z     vdW  Elec       q    Type
REMARK                         _______ _______ _______ _____ _____    ______ ____
ROOT
ATOM      1  O   LIG    1       -2.596   4.950  -0.935  0.00  0.00    -0.510 OA
ATOM      2  C   LIG    1       -2.684   3.741  -1.023  0.00  0.00    +0.550 C 
ATOM      3  N   LIG    1       -3.820   3.119  -0.649  0.00  0.00    -0.610 N 
ATOM      4  C   LIG    1       -3.945   1.656  -0.734  0.00  0.00    +0.250 C 
ATOM      5  C   LIG    1       -5.245   1.324  -1.476  0.00  0.00    +0.210 C 
ATOM      6  O   LIG    1       -6.330   2.020  -0.859  0.00  0.00    -0.380 OA
ATOM      7  C   LIG    1       -6.220   3.444  -0.915  0.00  0.00    +0.220 C 
ATOM      8  C   LIG    1       -4.969   3.884  -0.138  0.00  0.00    +0.220 C 
ENDROOT
BRANCH   2   9
ATOM      9  C   LIG    1       -1.546   2.953  -1.540  0.00  0.00    -0.110 A 
ATOM     10  C   LIG    1       -0.867   2.071  -0.696  0.00  0.00    +0.040 A 
ATOM     11  C   LIG    1        0.197   1.341  -1.177  0.00  0.00    +0.060 A 
ATOM     12  C   LIG    1        0.589   1.474  -2.510  0.00  0.00    +0.000 A 
ATOM     13  C   LIG    1       -0.093   2.350  -3.354  0.00  0.00    +0.070 A 
ATOM     14  C   LIG    1       -1.153   3.085  -2.874  0.00  0.00    +0.050 A 
BRANCH  12  15
ATOM     15  C   LIG    1        1.730   0.682  -3.028  0.00  0.00    +0.260 A 
ATOM     16  N   LIG    1        2.452  -0.169  -2.332  0.00  0.00    -0.300 NA
ATOM     17  N   LIG    1        3.417  -0.692  -3.209  0.00  0.00    -0.480 N 
ATOM     18  H   LIG    1        4.099  -1.348  -2.997  0.00  0.00    +0.450 HD
ATOM     19  C   LIG    1        3.212  -0.100  -4.400  0.00  0.00    +0.500 A 
ATOM     20  N   LIG    1        2.202   0.720  -4.282  0.00  0.00    -0.530 NA
ENDBRANCH  12  15
ENDBRANCH   2   9
BRANCH   8  21
ATOM     21  C   LIG    1       -4.728   5.380  -0.350  0.00  0.00    +0.030 C 
ATOM     22  C   LIG    1       -3.843   5.952   0.785  0.00  0.00    +0.030 C 
ATOM     23  C   LIG    1       -4.202   7.459   0.771  0.00  0.00    +0.010 C 
ATOM     24  C   LIG    1       -5.717   7.484   0.484  0.00  0.00    -0.010 C 
ATOM     25  C   LIG    1       -6.052   6.162  -0.229  0.00  0.00    +0.150 C 
BRANCH  25  26
ATOM     26  O   LIG    1       -6.993   5.415   0.543  0.00  0.00    -0.560 OA
ATOM     27  H   LIG    1       -7.847   5.854   0.656  0.00  0.00    +0.380 HD
ENDBRANCH  25  26
ENDBRANCH   8  21
TORSDOF 4
