REMARK  Name = ZINCpk00000y6wEH.1
REMARK                            x       y       z     vdW  Elec       q    Type
REMARK                         _______ _______ _______ _____ _____    ______ ____
ROOT
ATOM      1  O   LIG    1        3.504  -0.656  -0.755  0.00  0.00    -0.500 OA
ATOM      2  C   LIG    1        4.010  -1.395   0.067  0.00  0.00    +0.550 C 
ATOM      3  N   LIG    1        3.333  -1.720   1.186  0.00  0.00    -0.610 N 
ATOM      4  C   LIG    1        3.861  -2.723   2.126  0.00  0.00    +0.240 C 
ATOM      5  C   LIG    1        2.756  -3.744   2.414  0.00  0.00    +0.200 C 
ATOM      6  O   LIG    1        1.571  -3.055   2.821  0.00  0.00    -0.380 OA
ATOM      7  C   LIG    1        1.028  -2.186   1.824  0.00  0.00    +0.220 C 
ATOM      8  C   LIG    1        2.045  -1.085   1.505  0.00  0.00    +0.230 C 
ENDROOT
BRANCH   2   9
ATOM      9  C   LIG    1        5.365  -1.935  -0.161  0.00  0.00    -0.110 A 
ATOM     10  C   LIG    1        5.663  -3.251   0.203  0.00  0.00    +0.040 A 
ATOM     11  C   LIG    1        6.925  -3.756  -0.013  0.00  0.00    +0.020 A 
ATOM     12  C   LIG    1        7.911  -2.949  -0.587  0.00  0.00    +0.000 A 
ATOM     13  C   LIG    1        7.615  -1.632  -0.945  0.00  0.00    +0.080 A 
ATOM     14  C   LIG    1        6.352  -1.128  -0.734  0.00  0.00    +0.080 A 
BRANCH  12  15
ATOM     15  C   LIG    1        9.268  -3.490  -0.813  0.00  0.00    +0.210 A 
ATOM     16  N   LIG    1       10.288  -2.848  -1.340  0.00  0.00    -0.270 NA
ATOM     17  N   LIG    1       11.310  -3.627  -1.384  0.00  0.00    -0.290 NA
ATOM     18  C   LIG    1       11.002  -4.798  -0.893  0.00  0.00    +0.400 A 
ATOM     19  N   LIG    1        9.704  -4.752  -0.510  0.00  0.00    -0.580 N 
ATOM     20  H   LIG    1        9.188  -5.466  -0.105  0.00  0.00    +0.430 HD
ENDBRANCH  12  15
ENDBRANCH   2   9
BRANCH   8  21
ATOM     21  C   LIG    1        1.562  -0.269   0.304  0.00  0.00    +0.040 C 
ATOM     22  C   LIG    1        2.309   1.086   0.233  0.00  0.00    +0.030 C 
ATOM     23  C   LIG    1        1.333   1.973  -0.579  0.00  0.00    +0.010 C 
ATOM     24  C   LIG    1       -0.065   1.550  -0.082  0.00  0.00    -0.020 C 
ATOM     25  C   LIG    1        0.081   0.125   0.480  0.00  0.00    +0.150 C 
BRANCH  25  26
ATOM     26  O   LIG    1       -0.270   0.107   1.865  0.00  0.00    -0.560 OA
ATOM     27  H   LIG    1       -1.184   0.366   2.043  0.00  0.00    +0.380 HD
ENDBRANCH  25  26
ENDBRANCH   8  21
TORSDOF 4
