REMARK  Name = ZINCrg000000sBqd.0
REMARK                            x       y       z     vdW  Elec       q    Type
REMARK                         _______ _______ _______ _____ _____    ______ ____
ROOT
ATOM      1  N   LIG    1        1.496  -1.861  -0.170  0.00  0.00    -0.610 N 
ATOM      2  C   LIG    1        0.222  -2.595  -0.269  0.00  0.00    +0.270 C 
ATOM      3  C   LIG    1        0.587  -4.068   0.043  0.00  0.00    +0.050 C 
ATOM      4  C   LIG    1        1.977  -4.194  -0.635  0.00  0.00    +0.060 C 
ATOM      5  C   LIG    1        2.601  -2.800  -0.410  0.00  0.00    +0.280 C 
ENDROOT
BRANCH   1  10
ATOM      6  C   LIG    1        1.959   3.601   0.848  0.00  0.00    +0.350 C 
ATOM      7  N   LIG    1        1.862   2.161   0.600  0.00  0.00    -0.560 N 
ATOM      8  C   LIG    1        2.724   1.322   1.208  0.00  0.00    +0.580 A 
ATOM      9  C   LIG    1        2.625  -0.074   0.963  0.00  0.00    -0.280 A 
ATOM     10  C   LIG    1        1.628  -0.530   0.094  0.00  0.00    +0.560 A 
ATOM     11  N   LIG    1        0.787   0.380  -0.488  0.00  0.00    -0.530 N 
ATOM     12  C   LIG    1       -0.262  -0.082  -1.401  0.00  0.00    +0.350 C 
ATOM     13  O   LIG    1        3.579   1.756   1.959  0.00  0.00    -0.510 OA
ATOM     14  C   LIG    1        0.914   1.693  -0.231  0.00  0.00    +0.710 A 
ATOM     15  O   LIG    1        0.156   2.478  -0.766  0.00  0.00    -0.520 OA
BRANCH   9  16
ATOM     16  C   LIG    1        3.524  -0.994   1.592  0.00  0.00    +0.300 C 
ATOM     17  N   LIG    1        4.238  -1.723   2.091  0.00  0.00    -0.430 NA
ENDBRANCH   9  16
ENDBRANCH   1  10
BRANCH   5  18
ATOM     18  C   LIG    1        3.376  -2.380  -1.633  0.00  0.00    -0.110 A 
ATOM     19  C   LIG    1        2.703  -2.012  -2.783  0.00  0.00    +0.030 A 
ATOM     20  C   LIG    1        3.410  -1.626  -3.907  0.00  0.00    +0.030 A 
ATOM     21  C   LIG    1        4.796  -1.607  -3.883  0.00  0.00    +0.060 A 
ATOM     22  O   LIG    1        5.478  -1.232  -4.999  0.00  0.00    -0.310 OA
ATOM     23  C   LIG    1        6.851  -0.867  -4.822  0.00  0.00    +0.230 C 
ATOM     24  C   LIG    1        7.519  -1.925  -3.933  0.00  0.00    +0.230 C 
ATOM     25  O   LIG    1        6.832  -1.955  -2.678  0.00  0.00    -0.300 OA
ATOM     26  C   LIG    1        5.472  -1.974  -2.725  0.00  0.00    +0.060 A 
ATOM     27  C   LIG    1        4.757  -2.356  -1.600  0.00  0.00    +0.050 A 
ENDBRANCH   5  18
TORSDOF 3
