REMARK  Name = ZINCrH000004jY4g.0
REMARK                            x       y       z     vdW  Elec       q    Type
REMARK                         _______ _______ _______ _____ _____    ______ ____
ROOT
ATOM      1  C   LIG    1        2.177   6.349  -1.921  0.00  0.00    +0.280 C 
ATOM      2  N   LIG    1        0.859   6.142  -1.315  0.00  0.00    -0.610 N 
ATOM      3  C   LIG    1       -0.256   6.465  -2.000  0.00  0.00    +0.590 C 
ATOM      4  O   LIG    1       -1.350   6.295  -1.496  0.00  0.00    -0.510 OA
ENDROOT
BRANCH   3   5
ATOM      5  C   LIG    1       -0.150   7.025  -3.355  0.00  0.00    +0.010 A 
ATOM      6  C   LIG    1       -1.173   7.566  -4.066  0.00  0.00    +0.080 A 
ATOM      7  C   LIG    1       -0.656   7.988  -5.313  0.00  0.00    -0.130 A 
ATOM      8  C   LIG    1       -1.230   8.608  -6.436  0.00  0.00    +0.170 A 
ATOM      9  C   LIG    1       -0.443   8.896  -7.533  0.00  0.00    -0.090 A 
ATOM     10  C   LIG    1        0.907   8.577  -7.532  0.00  0.00    +0.090 A 
ATOM     11  C   LIG    1        1.486   7.969  -6.440  0.00  0.00    -0.030 A 
ATOM     12  C   LIG    1        0.716   7.668  -5.320  0.00  0.00    +0.140 A 
ATOM     13  N   LIG    1        1.006   7.079  -4.112  0.00  0.00    -0.580 N 
ATOM     14  H   LIG    1        1.878   6.755  -3.836  0.00  0.00    +0.430 HD
BRANCH   8  15
ATOM     15  O   LIG    1       -2.551   8.921  -6.442  0.00  0.00    -0.310 OA
BRANCH  15  16
ATOM     16  C   LIG    1       -3.064   9.550  -7.619  0.00  0.00    +0.590 C 
ATOM     17  F   LIG    1       -2.873   8.707  -8.719  0.00  0.00    -0.200 F 
ATOM     18  F   LIG    1       -2.390  10.757  -7.833  0.00  0.00    -0.200 F 
ENDBRANCH  15  16
ENDBRANCH   8  15
ENDBRANCH   3   5
BRANCH   2  19
ATOM     19  C   LIG    1        0.753   5.582   0.034  0.00  0.00    +0.350 C 
BRANCH  19  20
ATOM     20  C   LIG    1        0.672   4.079  -0.050  0.00  0.00    -0.110 A 
ATOM     21  C   LIG    1       -0.559   3.460  -0.155  0.00  0.00    +0.070 A 
ATOM     22  C   LIG    1       -0.638   2.082  -0.237  0.00  0.00    +0.040 A 
ATOM     23  C   LIG    1        0.517   1.318  -0.206  0.00  0.00    +0.040 A 
ATOM     24  O   LIG    1        0.711  -0.032  -0.268  0.00  0.00    -0.310 OA
ATOM     25  C   LIG    1        2.052  -0.249   0.211  0.00  0.00    +0.430 C 
ATOM     26  O   LIG    1        2.729   0.984  -0.097  0.00  0.00    -0.310 OA
ATOM     27  C   LIG    1        1.758   1.942  -0.101  0.00  0.00    +0.030 A 
ATOM     28  C   LIG    1        1.830   3.323  -0.023  0.00  0.00    +0.040 A 
ENDBRANCH  19  20
ENDBRANCH   2  19
TORSDOF 5
