REMARK  Name = ZINCrH000004sQ4i.0
REMARK                            x       y       z     vdW  Elec       q    Type
REMARK                         _______ _______ _______ _____ _____    ______ ____
ROOT
ATOM      1  C   LIG    1       -3.419   1.786  -5.492  0.00  0.00    +0.210 C 
ATOM      2  C   LIG    1       -4.700   1.209  -4.947  0.00  0.00    +0.160 A 
ATOM      3  N   LIG    1       -5.670   0.696  -5.641  0.00  0.00    -0.270 NA
ATOM      4  O   LIG    1       -6.699   0.261  -4.776  0.00  0.00    -0.080 OA
ATOM      5  C   LIG    1       -6.348   0.516  -3.499  0.00  0.00    +0.300 A 
ATOM      6  N   LIG    1       -6.950   0.306  -2.340  0.00  0.00    -0.460 NA
ATOM      7  C   LIG    1       -6.394   0.652  -1.189  0.00  0.00    +0.250 A 
ATOM      8  C   LIG    1       -5.133   1.252  -1.141  0.00  0.00    -0.020 A 
ATOM      9  C   LIG    1       -4.457   1.503  -2.332  0.00  0.00    +0.000 A 
ATOM     10  C   LIG    1       -5.080   1.122  -3.538  0.00  0.00    -0.210 A 
ENDROOT
BRANCH   7  11
ATOM     11  C   LIG    1       -7.120   0.389   0.076  0.00  0.00    -0.070 A 
ATOM     12  C   LIG    1       -6.548   0.740   1.298  0.00  0.00    +0.040 A 
ATOM     13  C   LIG    1       -7.231   0.498   2.472  0.00  0.00    +0.010 A 
ATOM     14  C   LIG    1       -8.477  -0.103   2.439  0.00  0.00    +0.030 A 
ATOM     15  C   LIG    1       -9.048  -0.458   1.230  0.00  0.00    +0.000 A 
ATOM     16  C   LIG    1       -8.376  -0.216   0.049  0.00  0.00    +0.070 A 
ENDBRANCH   7  11
BRANCH   9  17
ATOM     17  C   LIG    1       -3.123   2.144  -2.331  0.00  0.00    +0.560 C 
ATOM     18  N   LIG    1       -2.609   2.630  -1.184  0.00  0.00    -0.710 N 
ATOM     19  H   LIG    1       -3.114   2.560  -0.359  0.00  0.00    +0.400 HD
ATOM     20  O   LIG    1       -2.490   2.231  -3.365  0.00  0.00    -0.510 OA
BRANCH  18  21
ATOM     21  C   LIG    1       -1.288   3.264  -1.183  0.00  0.00    +0.250 C 
ATOM     22  C   LIG    1       -1.430   4.737  -1.573  0.00  0.00    +0.020 C 
BRANCH  21  23
ATOM     23  C   LIG    1       -0.675   3.163   0.214  0.00  0.00    -0.040 C 
ATOM     24  C   LIG    1        0.710   3.819   0.214  0.00  0.00    +0.030 C 
ATOM     25  C   LIG    1        1.346   3.643   1.596  0.00  0.00    -0.010 C 
ATOM     26  C   LIG    1        1.410   2.151   1.934  0.00  0.00    +0.210 C 
ATOM     27  O   LIG    1        0.094   1.597   1.886  0.00  0.00    -0.380 OA
ATOM     28  C   LIG    1       -0.533   1.690   0.605  0.00  0.00    +0.210 C 
ENDBRANCH  21  23
ENDBRANCH  18  21
ENDBRANCH   9  17
TORSDOF 4
