REMARK  Name = ZINCqH0000005sf7.0
REMARK                            x       y       z     vdW  Elec       q    Type
REMARK                         _______ _______ _______ _____ _____    ______ ____
ROOT
ATOM      1  N   LIG    1        4.888   0.111  -0.144  0.00  0.00    -0.660 N 
ATOM      2  H   LIG    1        4.849   1.066   0.021  0.00  0.00    +0.410 HD
ATOM      3  C   LIG    1        3.749  -0.601  -0.256  0.00  0.00    +0.570 C 
ATOM      4  O   LIG    1        3.796  -1.809  -0.379  0.00  0.00    -0.500 OA
ENDROOT
BRANCH   3   5
ATOM      5  C   LIG    1        2.441   0.089  -0.231  0.00  0.00    -0.070 A 
ATOM      6  C   LIG    1        2.353   1.451   0.029  0.00  0.00    +0.010 A 
ATOM      7  C   LIG    1        1.104   2.068   0.045  0.00  0.00    +0.180 A 
ATOM      8  N   LIG    1       -0.001   1.401  -0.177  0.00  0.00    -0.440 NA
ATOM      9  C   LIG    1        0.007   0.090  -0.432  0.00  0.00    +0.130 A 
ATOM     10  C   LIG    1       -1.190  -0.609  -0.669  0.00  0.00    +0.040 A 
ATOM     11  C   LIG    1       -1.153  -1.945  -0.927  0.00  0.00    +0.040 A 
ATOM     12  C   LIG    1        0.056  -2.636  -0.961  0.00  0.00    +0.020 A 
ATOM     13  C   LIG    1        1.236  -1.992  -0.737  0.00  0.00    +0.060 A 
ATOM     14  C   LIG    1        1.235  -0.618  -0.469  0.00  0.00    -0.070 A 
BRANCH   7  15
ATOM     15  C   LIG    1        1.023   3.546   0.327  0.00  0.00    +0.020 C 
ATOM     16  C   LIG    1        2.250   4.216   0.948  0.00  0.00    +0.040 C 
ATOM     17  C   LIG    1        0.994   3.986   1.792  0.00  0.00    +0.050 C 
ENDBRANCH   7  15
ENDBRANCH   3   5
BRANCH   1  21
ATOM     18  C   LIG    1        8.575  -1.793  -0.501  0.00  0.00    -0.150 A 
ATOM     19  C   LIG    1        8.405  -0.498  -0.997  0.00  0.00    +0.100 A 
ATOM     20  C   LIG    1        7.185   0.129  -0.877  0.00  0.00    -0.010 A 
ATOM     21  C   LIG    1        6.121  -0.526  -0.264  0.00  0.00    +0.170 A 
ATOM     22  C   LIG    1        6.289  -1.814   0.236  0.00  0.00    +0.020 A 
ATOM     23  C   LIG    1        7.505  -2.449   0.114  0.00  0.00    +0.060 A 
BRANCH  18  27
ATOM     24  C   LIG    1       11.341  -4.387  -0.275  0.00  0.00    +0.290 C 
ATOM     25  N   LIG    1       10.043  -3.717  -0.150  0.00  0.00    -0.730 N 
ATOM     26  H   LIG    1        9.302  -4.173   0.278  0.00  0.00    +0.400 HD
ATOM     27  C   LIG    1        9.881  -2.468  -0.628  0.00  0.00    +0.560 C 
ATOM     28  O   LIG    1       10.811  -1.896  -1.163  0.00  0.00    -0.540 OA
ENDBRANCH  18  27
ENDBRANCH   1  21
TORSDOF 4
