REMARK  Name = ZINC9p0000002ovC.0
REMARK                            x       y       z     vdW  Elec       q    Type
REMARK                         _______ _______ _______ _____ _____    ______ ____
ROOT
ATOM      1  C   LIG    1        1.417   2.055  -0.000  0.00  0.00    +0.170 C 
ENDROOT
BRANCH   1   2
ATOM      2  C   LIG    1        1.451   3.582  -0.103  0.00  0.00    -0.020 C 
ATOM      3  C   LIG    1        0.937   4.030  -1.487  0.00  0.00    +0.010 C 
ATOM      4  C   LIG    1        1.829   5.244  -1.849  0.00  0.00    +0.040 C 
ATOM      5  C   LIG    1        3.217   4.821  -1.307  0.00  0.00    +0.020 C 
ATOM      6  C   LIG    1        2.901   4.085   0.011  0.00  0.00    +0.040 C 
ENDBRANCH   1   2
BRANCH   1   7
ATOM      7  N   LIG    1        0.042   1.581  -0.211  0.00  0.00    -0.640 N 
ATOM      8  H   LIG    1        0.032   0.572  -0.220  0.00  0.00    +0.430 HD
ATOM      9  H   LIG    1       -0.302   1.929  -1.094  0.00  0.00    +0.430 HD
ATOM     10  H   LIG    1       -0.547   1.917   0.535  0.00  0.00    +0.430 HD
ENDBRANCH   1   7
BRANCH   1  12
ATOM     11  C   LIG    1        1.981   0.100   1.449  0.00  0.00    +0.020 C 
ATOM     12  C   LIG    1        1.897   1.627   1.388  0.00  0.00    +0.050 C 
ENDBRANCH   1  12
TORSDOF 3
