REMARK  Name = ZINCvU0000000ETj.0
REMARK                            x       y       z     vdW  Elec       q    Type
REMARK                         _______ _______ _______ _____ _____    ______ ____
ROOT
ATOM      1  N   LIG    1       -0.698   1.558   1.213  0.00  0.00    -0.480 N 
ATOM      2  C   LIG    1       -1.711   0.906   1.888  0.00  0.00    +0.060 A 
ATOM      3  C   LIG    1       -2.378  -0.297   1.701  0.00  0.00    +0.010 A 
ATOM      4  C   LIG    1       -3.372  -0.671   2.581  0.00  0.00    +0.040 A 
ATOM      5  C   LIG    1       -3.708   0.147   3.650  0.00  0.00    +0.000 A 
ATOM      6  C   LIG    1       -3.061   1.334   3.850  0.00  0.00    +0.070 A 
ATOM      7  C   LIG    1       -2.051   1.733   2.971  0.00  0.00    +0.040 A 
ATOM      8  N   LIG    1       -1.246   2.824   2.904  0.00  0.00    -0.470 NA
ATOM      9  C   LIG    1       -0.451   2.719   1.879  0.00  0.00    +0.260 A 
ENDROOT
BRANCH   1  10
ATOM     10  C   LIG    1       -0.013   1.086   0.008  0.00  0.00    +0.310 C 
BRANCH  10  11
ATOM     11  C   LIG    1       -0.753   1.593  -1.232  0.00  0.00    +0.020 C 
BRANCH  11  12
ATOM     12  C   LIG    1       -0.037   1.099  -2.490  0.00  0.00    +0.040 C 
BRANCH  12  13
ATOM     13  C   LIG    1       -0.777   1.606  -3.730  0.00  0.00    +0.180 C 
BRANCH  13  14
ATOM     14  O   LIG    1       -0.108   1.145  -4.906  0.00  0.00    -0.320 OA
BRANCH  14  19
ATOM     15  C   LIG    1       -2.316   2.655  -9.862  0.00  0.00    +0.090 C 
ATOM     16  C   LIG    1       -1.725   2.252  -8.536  0.00  0.00    -0.120 A 
ATOM     17  C   LIG    1       -2.324   2.663  -7.360  0.00  0.00    +0.040 A 
ATOM     18  C   LIG    1       -1.787   2.290  -6.143  0.00  0.00    -0.080 A 
ATOM     19  C   LIG    1       -0.640   1.510  -6.101  0.00  0.00    +0.130 A 
ATOM     20  C   LIG    1       -0.042   1.097  -7.283  0.00  0.00    -0.020 A 
ATOM     21  C   LIG    1       -0.586   1.469  -8.498  0.00  0.00    -0.050 A 
ATOM     22  C   LIG    1        0.064   1.022  -9.782  0.00  0.00    +0.090 C 
ENDBRANCH  14  19
ENDBRANCH  13  14
ENDBRANCH  12  13
ENDBRANCH  11  12
ENDBRANCH  10  11
ENDBRANCH   1  10
BRANCH   9  23
ATOM     23  C   LIG    1        0.588   3.736   1.484  0.00  0.00    +0.400 C 
BRANCH  23  24
ATOM     24  N   LIG    1       -0.008   4.714   0.571  0.00  0.00    -0.720 N 
ATOM     25  H   LIG    1       -0.941   4.635   0.317  0.00  0.00    +0.410 HD
ATOM     26  C   LIG    1        0.740   5.724   0.084  0.00  0.00    +0.610 C 
ATOM     27  O   LIG    1        1.910   5.823   0.403  0.00  0.00    -0.510 OA
BRANCH  26  28
ATOM     28  C   LIG    1        0.143   6.704  -0.830  0.00  0.00    -0.090 A 
ATOM     29  C   LIG    1        0.783   7.773  -1.389  0.00  0.00    +0.050 A 
ATOM     30  C   LIG    1       -0.161   8.432  -2.192  0.00  0.00    -0.060 A 
ATOM     31  C   LIG    1       -1.322   7.751  -2.083  0.00  0.00    +0.210 A 
ATOM     32  O   LIG    1       -1.135   6.710  -1.260  0.00  0.00    -0.170 OA
ENDBRANCH  26  28
ENDBRANCH  23  24
ENDBRANCH   9  23
TORSDOF 9
