REMARK  Name = ZINCkj000005heN3.0
REMARK                            x       y       z     vdW  Elec       q    Type
REMARK                         _______ _______ _______ _____ _____    ______ ____
ROOT
ATOM      1  N   LIG    1       -1.131  -4.172   1.433  0.00  0.00    -0.380 N 
ATOM      2  C   LIG    1       -2.385  -4.677   0.858  0.00  0.00    +0.330 C 
ATOM      3  H   LIG    1       -0.353  -4.493   0.878  0.00  0.00    +0.420 HD
ENDROOT
BRANCH   1   4
ATOM      4  C   LIG    1       -1.153  -2.703   1.442  0.00  0.00    +0.220 C 
BRANCH   4   5
ATOM      5  C   LIG    1       -1.175  -2.185   0.002  0.00  0.00    +0.310 C 
BRANCH   5   7
ATOM      6  C   LIG    1       -2.476  -0.007   0.027  0.00  0.00    +0.300 C 
ATOM      7  N   LIG    1       -1.197  -0.720   0.010  0.00  0.00    -0.630 N 
BRANCH   7   8
ATOM      8  C   LIG    1        0.002  -0.004   0.002  0.00  0.00    +0.190 A 
ATOM      9  C   LIG    1       -0.017   1.385   0.010  0.00  0.00    -0.050 A 
ATOM     10  C   LIG    1        1.171   2.090   0.002  0.00  0.00    +0.060 A 
ATOM     11  C   LIG    1        2.377   1.415  -0.013  0.00  0.00    -0.030 A 
ATOM     12  C   LIG    1        2.400   0.032  -0.021  0.00  0.00    +0.060 A 
ATOM     13  C   LIG    1        1.216  -0.679  -0.013  0.00  0.00    -0.090 A 
ENDBRANCH   7   8
ENDBRANCH   5   7
ENDBRANCH   4   5
ENDBRANCH   1   4
BRANCH   1  14
ATOM     14  C   LIG    1       -0.990  -4.667   2.809  0.00  0.00    +0.260 C 
BRANCH  14  15
ATOM     15  C   LIG    1       -0.842  -6.190   2.791  0.00  0.00    +0.190 C 
BRANCH  15  16
ATOM     16  N   LIG    1       -0.700  -6.685   4.166  0.00  0.00    -0.530 NA
ATOM     17  C   LIG    1        0.561  -6.225   4.764  0.00  0.00    +0.150 C 
ATOM     18  C   LIG    1        0.640  -6.712   6.214  0.00  0.00    +0.230 C 
ATOM     19  O   LIG    1        0.517  -8.137   6.239  0.00  0.00    -0.380 OA
ATOM     20  C   LIG    1       -0.701  -8.620   5.665  0.00  0.00    +0.240 C 
ATOM     21  C   LIG    1       -0.793  -8.151   4.210  0.00  0.00    +0.160 C 
ENDBRANCH  15  16
ENDBRANCH  14  15
ENDBRANCH   1  14
TORSDOF 7
