REMARK  Name = ZINCkj000005heN3.1
REMARK                            x       y       z     vdW  Elec       q    Type
REMARK                         _______ _______ _______ _____ _____    ______ ____
ROOT
ATOM      1  N   LIG    1        0.002  -0.004   0.002  0.00  0.00    -0.380 N 
ATOM      2  C   LIG    1       -0.018   1.465   0.010  0.00  0.00    +0.320 C 
ATOM      3  H   LIG    1       -0.945  -0.353   0.009  0.00  0.00    +0.430 HD
ENDROOT
BRANCH   1   4
ATOM      4  C   LIG    1        0.713  -0.491   1.192  0.00  0.00    +0.220 C 
BRANCH   4   5
ATOM      5  C   LIG    1       -0.071  -0.103   2.448  0.00  0.00    +0.310 C 
BRANCH   5   7
ATOM      6  C   LIG    1        0.350  -1.924   4.165  0.00  0.00    +0.290 C 
ATOM      7  N   LIG    1        0.637  -0.589   3.635  0.00  0.00    -0.630 N 
BRANCH   7   8
ATOM      8  C   LIG    1        1.587   0.222   4.261  0.00  0.00    +0.190 A 
ATOM      9  C   LIG    1        1.865   1.486   3.757  0.00  0.00    -0.090 A 
ATOM     10  C   LIG    1        2.801   2.286   4.381  0.00  0.00    +0.050 A 
ATOM     11  C   LIG    1        3.469   1.827   5.502  0.00  0.00    -0.030 A 
ATOM     12  C   LIG    1        3.199   0.567   6.003  0.00  0.00    +0.060 A 
ATOM     13  C   LIG    1        2.260  -0.237   5.387  0.00  0.00    -0.050 A 
ENDBRANCH   7   8
ENDBRANCH   5   7
ENDBRANCH   4   5
ENDBRANCH   1   4
BRANCH   1  14
ATOM     14  C   LIG    1        0.690  -0.478  -1.207  0.00  0.00    +0.260 C 
BRANCH  14  15
ATOM     15  C   LIG    1       -0.118  -0.077  -2.443  0.00  0.00    +0.190 C 
BRANCH  15  16
ATOM     16  N   LIG    1        0.570  -0.551  -3.651  0.00  0.00    -0.530 NA
ATOM     17  C   LIG    1        1.850   0.147  -3.837  0.00  0.00    +0.150 C 
ATOM     18  C   LIG    1        2.559  -0.418  -5.071  0.00  0.00    +0.230 C 
ATOM     19  O   LIG    1        1.702  -0.288  -6.208  0.00  0.00    -0.380 OA
ATOM     20  C   LIG    1        0.446  -0.956  -6.062  0.00  0.00    +0.240 C 
ATOM     21  C   LIG    1       -0.284  -0.397  -4.838  0.00  0.00    +0.160 C 
ENDBRANCH  15  16
ENDBRANCH  14  15
ENDBRANCH   1  14
TORSDOF 7
