REMARK  Name = ZINCvU0000000FcZ.0
REMARK                            x       y       z     vdW  Elec       q    Type
REMARK                         _______ _______ _______ _____ _____    ______ ____
ROOT
ATOM      1  N   LIG    1       -8.278  -3.243  -1.174  0.00  0.00    -0.220 NA
ATOM      2  C   LIG    1       -8.200  -2.708   0.005  0.00  0.00    +0.160 C 
ENDROOT
BRANCH   1   6
ATOM      3  N   LIG    1      -10.120  -6.898  -1.694  0.00  0.00    -0.530 NA
ATOM      4  C   LIG    1       -9.768  -6.408  -0.354  0.00  0.00    +0.180 C 
ATOM      5  C   LIG    1       -9.948  -4.887  -0.307  0.00  0.00    +0.250 C 
ATOM      6  N   LIG    1       -9.177  -4.292  -1.410  0.00  0.00    -0.540 N 
ATOM      7  C   LIG    1       -9.380  -4.822  -2.766  0.00  0.00    +0.330 C 
ATOM      8  C   LIG    1       -9.218  -6.350  -2.715  0.00  0.00    +0.170 C 
BRANCH   3   9
ATOM      9  C   LIG    1      -10.127  -8.367  -1.731  0.00  0.00    +0.220 C 
BRANCH   9  14
ATOM     10  C   LIG    1      -12.996 -10.159  -6.417  0.00  0.00    +0.090 C 
ATOM     11  C   LIG    1      -12.248  -9.691  -5.195  0.00  0.00    -0.080 A 
ATOM     12  C   LIG    1      -10.871  -9.805  -5.142  0.00  0.00    -0.010 A 
ATOM     13  C   LIG    1      -10.185  -9.371  -4.023  0.00  0.00    +0.010 A 
ATOM     14  C   LIG    1      -10.876  -8.834  -2.953  0.00  0.00    -0.090 A 
ATOM     15  C   LIG    1      -12.252  -8.721  -3.006  0.00  0.00    -0.050 A 
ATOM     16  C   LIG    1      -13.005  -8.130  -1.842  0.00  0.00    +0.090 C 
ATOM     17  C   LIG    1      -12.938  -9.149  -4.127  0.00  0.00    -0.010 A 
ENDBRANCH   9  14
ENDBRANCH   3   9
ENDBRANCH   1   6
BRANCH   2  18
ATOM     18  C   LIG    1       -7.202  -1.655   0.273  0.00  0.00    -0.070 A 
ATOM     19  C   LIG    1       -7.116  -1.078   1.542  0.00  0.00    +0.070 A 
ATOM     20  C   LIG    1       -6.182  -0.095   1.787  0.00  0.00    -0.020 A 
ATOM     21  C   LIG    1       -5.327   0.323   0.775  0.00  0.00    +0.140 A 
ATOM     22  C   LIG    1       -5.413  -0.245  -0.489  0.00  0.00    -0.080 A 
ATOM     23  C   LIG    1       -6.340  -1.232  -0.743  0.00  0.00    +0.080 A 
BRANCH  21  24
ATOM     24  O   LIG    1       -4.408   1.293   1.021  0.00  0.00    -0.310 OA
BRANCH  24  25
ATOM     25  C   LIG    1       -3.561   1.674  -0.064  0.00  0.00    +0.240 C 
BRANCH  25  26
ATOM     26  C   LIG    1       -2.614   2.753   0.393  0.00  0.00    -0.100 A 
ATOM     27  C   LIG    1       -1.386   2.414   0.929  0.00  0.00    +0.020 A 
ATOM     28  C   LIG    1       -0.517   3.404   1.348  0.00  0.00    +0.010 A 
ATOM     29  C   LIG    1       -0.877   4.734   1.233  0.00  0.00    +0.010 A 
ATOM     30  C   LIG    1       -2.104   5.073   0.697  0.00  0.00    +0.010 A 
ATOM     31  C   LIG    1       -2.973   4.083   0.277  0.00  0.00    +0.020 A 
ENDBRANCH  25  26
ENDBRANCH  24  25
ENDBRANCH  21  24
ENDBRANCH   2  18
TORSDOF 7
