REMARK  Name = ZINCtV00000L6kIV.0
REMARK                            x       y       z     vdW  Elec       q    Type
REMARK                         _______ _______ _______ _____ _____    ______ ____
ROOT
ATOM      1  C   LIG    1       -1.204   6.757  -2.094  0.00  0.00    +0.280 A 
ATOM      2  N   LIG    1       -0.857   7.184  -3.273  0.00  0.00    -0.460 NA
ATOM      3  C   LIG    1        0.497   7.229  -3.361  0.00  0.00    +0.040 A 
ATOM      4  C   LIG    1        1.385   7.602  -4.374  0.00  0.00    +0.070 A 
ATOM      5  C   LIG    1        2.732   7.537  -4.155  0.00  0.00    +0.000 A 
ATOM      6  C   LIG    1        3.232   7.103  -2.936  0.00  0.00    +0.040 A 
ATOM      7  C   LIG    1        2.374   6.731  -1.922  0.00  0.00    +0.010 A 
ATOM      8  C   LIG    1        1.003   6.796  -2.123  0.00  0.00    +0.060 A 
ATOM      9  N   LIG    1       -0.098   6.499  -1.345  0.00  0.00    -0.470 N 
ENDROOT
BRANCH   1  10
ATOM     10  C   LIG    1       -2.625   6.574  -1.627  0.00  0.00    +0.320 C 
BRANCH  10  11
ATOM     11  O   LIG    1       -3.087   7.785  -1.023  0.00  0.00    -0.300 OA
BRANCH  11  17
ATOM     12  C   LIG    1       -7.296   5.426  -0.287  0.00  0.00    +0.090 C 
ATOM     13  C   LIG    1       -6.440   6.660  -0.168  0.00  0.00    -0.050 A 
ATOM     14  C   LIG    1       -6.949   7.799   0.429  0.00  0.00    -0.030 A 
ATOM     15  C   LIG    1       -6.165   8.933   0.539  0.00  0.00    +0.060 A 
ATOM     16  C   LIG    1       -4.872   8.931   0.053  0.00  0.00    -0.110 A 
ATOM     17  C   LIG    1       -4.359   7.789  -0.545  0.00  0.00    +0.130 A 
ATOM     18  C   LIG    1       -5.149   6.654  -0.659  0.00  0.00    -0.080 A 
BRANCH  16  19
ATOM     19  C   LIG    1       -4.020  10.168   0.173  0.00  0.00    +0.030 C 
ATOM     20  C   LIG    1       -3.859  10.536   1.650  0.00  0.00    +0.030 C 
ATOM     21  C   LIG    1       -4.692  11.325  -0.570  0.00  0.00    +0.040 C 
ENDBRANCH  16  19
ENDBRANCH  11  17
ENDBRANCH  10  11
ENDBRANCH   1  10
BRANCH   9  22
ATOM     22  C   LIG    1       -0.079   6.003   0.033  0.00  0.00    +0.370 C 
BRANCH  22  23
ATOM     23  C   LIG    1       -0.059   4.497   0.025  0.00  0.00    -0.110 A 
ATOM     24  C   LIG    1        1.148   3.822   0.011  0.00  0.00    +0.050 A 
ATOM     25  C   LIG    1        1.167   2.440   0.004  0.00  0.00    +0.030 A 
ATOM     26  C   LIG    1       -0.021   1.732   0.012  0.00  0.00    -0.020 A 
ATOM     27  C   LIG    1       -1.229   2.407   0.021  0.00  0.00    +0.030 A 
ATOM     28 CL   LIG    1        0.002  -0.004   0.002  0.00  0.00    -0.060 Cl
ATOM     29  C   LIG    1       -1.247   3.789   0.033  0.00  0.00    +0.040 A 
ENDBRANCH  22  23
ENDBRANCH   9  22
TORSDOF 6
