REMARK  Name = ZINCtV000002AyAn.0
REMARK                            x       y       z     vdW  Elec       q    Type
REMARK                         _______ _______ _______ _____ _____    ______ ____
ROOT
ATOM      1  C   LIG    1        0.622  -2.712  -0.030  0.00  0.00    +0.100 A 
ATOM      2  C   LIG    1        1.637  -1.775  -0.043  0.00  0.00    +0.000 A 
ATOM      3  C   LIG    1        1.325  -0.418  -0.037  0.00  0.00    -0.090 A 
ATOM      4  C   LIG    1       -0.011   0.003  -0.019  0.00  0.00    +0.070 A 
ATOM      5  O   LIG    1       -0.035   1.355  -0.018  0.00  0.00    -0.190 OA
ATOM      6  C   LIG    1        1.213   1.873  -0.034  0.00  0.00    +0.090 A 
ATOM      7  C   LIG    1        1.683   3.181  -0.038  0.00  0.00    +0.020 A 
ATOM      8  C   LIG    1        3.040   3.428  -0.056  0.00  0.00    +0.060 A 
ATOM      9  C   LIG    1        3.947   2.380  -0.069  0.00  0.00    -0.010 A 
ATOM     10  C   LIG    1        3.500   1.076  -0.065  0.00  0.00    +0.070 A 
ATOM     11  C   LIG    1       -1.024  -0.948  -0.007  0.00  0.00    +0.080 A 
ATOM     12  C   LIG    1        2.133   0.816  -0.047  0.00  0.00    -0.130 A 
ATOM     13  C   LIG    1       -0.711  -2.296  -0.012  0.00  0.00    +0.150 A 
ENDROOT
BRANCH  13  14
ATOM     14  N   LIG    1       -1.736  -3.249   0.002  0.00  0.00    -0.650 N 
ATOM     15  H   LIG    1       -1.629  -4.084  -0.480  0.00  0.00    +0.420 HD
ATOM     16  C   LIG    1       -2.873  -3.005   0.683  0.00  0.00    +0.610 C 
ATOM     17  O   LIG    1       -3.042  -1.926   1.218  0.00  0.00    -0.490 OA
BRANCH  16  18
ATOM     18  C   LIG    1       -3.908  -4.044   0.780  0.00  0.00    -0.040 A 
ATOM     19  C   LIG    1       -5.089  -3.911   1.439  0.00  0.00    -0.060 A 
ATOM     20  C   LIG    1       -5.792  -5.182   1.268  0.00  0.00    -0.140 A 
ATOM     21  C   LIG    1       -7.028  -5.675   1.693  0.00  0.00    +0.120 A 
ATOM     22  C   LIG    1       -7.403  -6.946   1.356  0.00  0.00    -0.110 A 
ATOM     23  C   LIG    1       -6.563  -7.748   0.594  0.00  0.00    +0.100 A 
ATOM     24  C   LIG    1       -5.340  -7.279   0.164  0.00  0.00    +0.050 A 
ATOM     25 BR   LIG    1       -9.075  -7.617   1.931  0.00  0.00    -0.030 Br
ATOM     26  C   LIG    1       -4.938  -5.990   0.495  0.00  0.00    +0.090 A 
ATOM     27  C   LIG    1       -5.575  -2.700   2.192  0.00  0.00    +0.150 C 
ATOM     28  O   LIG    1       -3.831  -5.271   0.224  0.00  0.00    -0.180 OA
ENDBRANCH  16  18
ENDBRANCH  13  14
BRANCH   1  30
ATOM     29  C   LIG    1        2.306  -4.393  -0.053  0.00  0.00    +0.250 C 
ATOM     30  O   LIG    1        0.921  -4.039  -0.035  0.00  0.00    -0.310 OA
ENDBRANCH   1  30
TORSDOF 3
