REMARK  Name = ZINCvU0000000Ibq.0
REMARK                            x       y       z     vdW  Elec       q    Type
REMARK                         _______ _______ _______ _____ _____    ______ ____
ROOT
ATOM      1  C   LIG    1        4.826   4.232  -0.248  0.00  0.00    -0.160 A 
ATOM      2  C   LIG    1        6.045   3.547  -0.250  0.00  0.00    +0.070 A 
ATOM      3  C   LIG    1        7.225   4.246  -0.363  0.00  0.00    -0.020 A 
ATOM      4  C   LIG    1        7.207   5.634  -0.463  0.00  0.00    +0.180 A 
ATOM      5  C   LIG    1        5.996   6.319  -0.455  0.00  0.00    +0.020 A 
ATOM      6  C   LIG    1        4.812   5.626  -0.349  0.00  0.00    +0.110 A 
ENDROOT
BRANCH   1   9
ATOM      7  N   LIG    1        3.574   2.142  -0.036  0.00  0.00    -0.660 N 
ATOM      8  H   LIG    1        4.419   1.671   0.040  0.00  0.00    +0.410 HD
ATOM      9  C   LIG    1        3.558   3.486  -0.133  0.00  0.00    +0.560 C 
ATOM     10  O   LIG    1        2.499   4.084  -0.126  0.00  0.00    -0.520 OA
BRANCH   7  16
ATOM     11  C   LIG    1        2.303   0.167   0.551  0.00  0.00    +0.100 A 
ATOM     12  C   LIG    1        1.110  -0.537   0.540  0.00  0.00    -0.060 A 
ATOM     13  C   LIG    1       -0.009   0.008  -0.061  0.00  0.00    +0.030 A 
ATOM     14  C   LIG    1        0.057   1.256  -0.652  0.00  0.00    +0.000 A 
ATOM     15  C   LIG    1        1.244   1.966  -0.645  0.00  0.00    +0.050 A 
ATOM     16  C   LIG    1        2.371   1.425  -0.044  0.00  0.00    +0.120 A 
BRANCH  11  18
ATOM     17  C   LIG    1        3.261  -1.662   1.732  0.00  0.00    +0.250 C 
ATOM     18  O   LIG    1        3.405  -0.368   1.141  0.00  0.00    -0.320 OA
ENDBRANCH  11  18
ENDBRANCH   7  16
ENDBRANCH   1   9
BRANCH   4  19
ATOM     19  N   LIG    1        8.405   6.338  -0.572  0.00  0.00    -0.670 N 
ATOM     20  H   LIG    1        9.148   5.958  -1.065  0.00  0.00    +0.410 HD
ATOM     21  C   LIG    1        8.529   7.549   0.007  0.00  0.00    +0.560 C 
ATOM     22  O   LIG    1        7.571   8.065   0.550  0.00  0.00    -0.500 OA
BRANCH  21  23
ATOM     23  C   LIG    1        9.827   8.249  -0.018  0.00  0.00    -0.170 A 
ATOM     24  C   LIG    1       10.929   7.656  -0.636  0.00  0.00    +0.080 A 
ATOM     25  C   LIG    1       12.142   8.309  -0.665  0.00  0.00    -0.020 A 
ATOM     26  C   LIG    1       12.273   9.553  -0.068  0.00  0.00    +0.090 A 
ATOM     27  C   LIG    1       11.194  10.144   0.552  0.00  0.00    -0.180 A 
ATOM     28  C   LIG    1       11.039  11.464   1.283  0.00  0.00    +0.020 C 
ATOM     29  C   LIG    1       12.190  11.684   2.266  0.00  0.00    +0.060 C 
ATOM     30  C   LIG    1        9.702  11.256   2.034  0.00  0.00    +0.160 C 
ATOM     31  C   LIG    1        8.901  12.559   2.085  0.00  0.00    +0.070 C 
ATOM     32  O   LIG    1        9.032  10.274   1.225  0.00  0.00    -0.270 OA
ATOM     33  C   LIG    1        9.958   9.513   0.586  0.00  0.00    +0.180 A 
ENDBRANCH  21  23
ENDBRANCH   4  19
TORSDOF 5
