REMARK  Name = ZINCqH0000034IXR.1
REMARK                            x       y       z     vdW  Elec       q    Type
REMARK                         _______ _______ _______ _____ _____    ______ ____
ROOT
ATOM      1  C   LIG    1        1.184   2.081   0.018  0.00  0.00    +0.080 A 
ATOM      2  C   LIG    1        2.387   1.390   0.013  0.00  0.00    +0.020 A 
ATOM      3  C   LIG    1        2.390   0.008   0.008  0.00  0.00    +0.050 A 
ATOM      4  C   LIG    1        1.196  -0.691   0.009  0.00  0.00    -0.070 A 
ATOM      5  C   LIG    1       -0.008  -0.010   0.014  0.00  0.00    +0.060 A 
ATOM      6 BR   LIG    1        1.210  -2.582   0.002  0.00  0.00    -0.040 Br
ATOM      7  C   LIG    1       -0.020   1.377   0.019  0.00  0.00    +0.170 A 
ENDROOT
BRANCH   1  12
ATOM      8  C   LIG    1        2.363   7.535  -0.007  0.00  0.00    +0.190 C 
ATOM      9  N   LIG    1        2.369   6.066  -0.012  0.00  0.00    -0.550 NA
ATOM     10  C   LIG    1        1.769   5.533   1.219  0.00  0.00    +0.190 C 
ATOM     11  C   LIG    1        1.866   4.006   1.211  0.00  0.00    +0.190 C 
ATOM     12  N   LIG    1        1.179   3.480   0.023  0.00  0.00    -0.510 N 
ATOM     13  C   LIG    1        1.779   4.013  -1.208  0.00  0.00    +0.190 C 
ATOM     14  C   LIG    1        1.682   5.540  -1.200  0.00  0.00    +0.180 C 
ENDBRANCH   1  12
BRANCH   7  15
ATOM     15  N   LIG    1       -1.238   2.068   0.019  0.00  0.00    -0.640 N 
ATOM     16  H   LIG    1       -1.319   2.907   0.499  0.00  0.00    +0.420 HD
ATOM     17  C   LIG    1       -2.297   1.568  -0.648  0.00  0.00    +0.600 C 
ATOM     18  O   LIG    1       -2.220   0.479  -1.182  0.00  0.00    -0.500 OA
BRANCH  17  19
ATOM     19  C   LIG    1       -3.556   2.347  -0.731  0.00  0.00    -0.030 A 
ATOM     20  N   LIG    1       -3.790   3.524  -0.205  0.00  0.00    -0.330 NA
ATOM     21  O   LIG    1       -4.912   3.901  -0.450  0.00  0.00    +0.130 OA
ATOM     22  C   LIG    1       -5.593   3.005  -1.176  0.00  0.00    -0.010 A 
ATOM     23  C   LIG    1       -4.756   1.964  -1.392  0.00  0.00    +0.000 A 
BRANCH  22  24
ATOM     24  C   LIG    1       -7.015   3.131  -1.660  0.00  0.00    +0.010 C 
ATOM     25  C   LIG    1       -7.041   3.071  -3.188  0.00  0.00    +0.050 C 
ATOM     26  C   LIG    1       -7.595   4.468  -1.192  0.00  0.00    +0.040 C 
ATOM     27  C   LIG    1       -7.852   1.984  -1.089  0.00  0.00    +0.050 C 
ENDBRANCH  22  24
ENDBRANCH  17  19
ENDBRANCH   7  15
TORSDOF 4
