REMARK  Name = ZINCkj000011xvML.0
REMARK                            x       y       z     vdW  Elec       q    Type
REMARK                         _______ _______ _______ _____ _____    ______ ____
ROOT
ATOM      1  C   LIG    1        0.002  -0.004   0.002  0.00  0.00    +0.170 C 
ATOM      2  C   LIG    1        1.508  -0.330  -0.067  0.00  0.00    +0.010 C 
ATOM      3  C   LIG    1        2.194   0.910   0.559  0.00  0.00    +0.060 C 
ATOM      4  C   LIG    1        1.327   2.081   0.035  0.00  0.00    +0.040 C 
ATOM      5  C   LIG    1       -0.113   1.529   0.066  0.00  0.00    +0.180 C 
ENDROOT
BRANCH   1   9
ATOM      6  C   LIG    1       -0.675  -2.428  -2.639  0.00  0.00    +0.180 C 
ATOM      7  C   LIG    1        0.380  -1.429  -3.182  0.00  0.00    +0.010 C 
ATOM      8  C   LIG    1        0.051  -0.128  -2.420  0.00  0.00    +0.150 C 
ATOM      9  N   LIG    1       -0.679  -0.510  -1.197  0.00  0.00    -0.540 NA
ATOM     10  C   LIG    1       -0.794  -1.983  -1.159  0.00  0.00    +0.220 C 
BRANCH   6  11
ATOM     11  O   LIG    1       -0.203  -3.773  -2.732  0.00  0.00    -0.560 OA
ATOM     12  H   LIG    1       -0.021  -4.064  -3.636  0.00  0.00    +0.390 HD
ENDBRANCH   6  11
ENDBRANCH   1   9
BRANCH   5  13
ATOM     13  N   LIG    1       -0.868   2.026  -1.092  0.00  0.00    -0.500 N 
ATOM     14  H   LIG    1       -1.763   1.562  -1.134  0.00  0.00    +0.440 HD
ATOM     15  H   LIG    1       -0.351   1.837  -1.937  0.00  0.00    +0.420 HD
BRANCH  13  16
ATOM     16  C   LIG    1       -1.074   3.474  -0.957  0.00  0.00    +0.250 C 
BRANCH  16  17
ATOM     17  C   LIG    1       -1.861   3.992  -2.163  0.00  0.00    +0.030 C 
BRANCH  17  18
ATOM     18  C   LIG    1       -2.075   5.500  -2.023  0.00  0.00    +0.050 C 
BRANCH  18  19
ATOM     19  C   LIG    1       -2.862   6.018  -3.229  0.00  0.00    -0.030 C 
ATOM     20  C   LIG    1       -3.200   7.515  -3.053  0.00  0.00    +0.010 C 
ATOM     21  C   LIG    1       -2.491   8.203  -4.240  0.00  0.00    +0.200 C 
ATOM     22  O   LIG    1       -2.352   7.167  -5.237  0.00  0.00    -0.370 OA
ATOM     23  C   LIG    1       -1.988   5.978  -4.502  0.00  0.00    +0.200 C 
ENDBRANCH  18  19
ENDBRANCH  17  18
ENDBRANCH  16  17
ENDBRANCH  13  16
ENDBRANCH   5  13
TORSDOF 7
