REMARK  Name = ZINCpe000000TslJ.0
REMARK                            x       y       z     vdW  Elec       q    Type
REMARK                         _______ _______ _______ _____ _____    ______ ____
ROOT
ATOM      1  N   LIG    1       -2.545  -5.009  -4.067  0.00  0.00    -0.630 N 
ATOM      2  C   LIG    1       -1.465  -5.418  -3.371  0.00  0.00    +0.710 C 
ATOM      3  N   LIG    1       -0.750  -4.529  -2.653  0.00  0.00    -0.640 N 
ATOM      4  C   LIG    1        0.049  -4.962  -1.496  0.00  0.00    +0.310 C 
ATOM      5  C   LIG    1       -0.311  -4.077  -0.298  0.00  0.00    +0.200 C 
ATOM      6  N   LIG    1       -0.151  -2.665  -0.670  0.00  0.00    -0.550 NA
ATOM      7  C   LIG    1       -1.077  -2.290  -1.747  0.00  0.00    +0.180 C 
ATOM      8  C   LIG    1       -0.749  -3.101  -3.005  0.00  0.00    +0.270 C 
ATOM      9  O   LIG    1       -1.136  -6.588  -3.392  0.00  0.00    -0.580 OA
ENDROOT
BRANCH   1  11
ATOM     10  C   LIG    1       -4.225  -6.782  -4.188  0.00  0.00    +0.010 C 
ATOM     11  C   LIG    1       -3.224  -5.935  -4.976  0.00  0.00    +0.290 C 
ENDBRANCH   1  11
BRANCH   1  12
ATOM     12  C   LIG    1       -3.039  -3.638  -3.913  0.00  0.00    +0.260 C 
ATOM     13  C   LIG    1       -2.678  -2.823  -5.156  0.00  0.00    +0.030 C 
ENDBRANCH   1  12
BRANCH   6  14
ATOM     14  C   LIG    1       -0.320  -1.791   0.498  0.00  0.00    +0.490 C 
BRANCH  14  15
ATOM     15  N   LIG    1        0.398  -0.533   0.274  0.00  0.00    -0.450 N 
ATOM     16  N   LIG    1       -0.128   0.424  -0.597  0.00  0.00    +0.080 NA
ATOM     17  N   LIG    1        0.452   1.544  -0.836  0.00  0.00    -0.200 NA
ATOM     18  C   LIG    1        1.629   1.883  -0.253  0.00  0.00    +0.060 A 
ATOM     19  C   LIG    1        2.248   3.106  -0.521  0.00  0.00    +0.080 A 
ATOM     20  C   LIG    1        3.443   3.415   0.090  0.00  0.00    +0.060 A 
ATOM     21  C   LIG    1        4.042   2.526   0.972  0.00  0.00    +0.040 A 
ATOM     22  C   LIG    1        3.450   1.313   1.253  0.00  0.00    +0.100 A 
ATOM     23  C   LIG    1        2.241   0.981   0.645  0.00  0.00    -0.150 A 
ATOM     24  C   LIG    1        1.569  -0.300   0.912  0.00  0.00    +0.540 A 
ATOM     25  O   LIG    1        2.047  -1.119   1.676  0.00  0.00    -0.500 OA
ENDBRANCH  14  15
ENDBRANCH   6  14
TORSDOF 4
