REMARK  Name = ZINCrH000004q7d6.0
REMARK                            x       y       z     vdW  Elec       q    Type
REMARK                         _______ _______ _______ _____ _____    ______ ____
ROOT
ATOM      1  C   LIG    1        1.281   1.716   2.783  0.00  0.00    +0.590 C 
ATOM      2  N   LIG    1        1.702   1.922   4.046  0.00  0.00    -0.610 N 
ATOM      3  C   LIG    1        0.748   2.282   5.104  0.00  0.00    +0.280 C 
ATOM      4  C   LIG    1        0.914   1.294   6.269  0.00  0.00    +0.030 C 
ATOM      5  C   LIG    1        2.377   1.284   6.718  0.00  0.00    +0.010 C 
ATOM      6  C   LIG    1        3.265   0.819   5.562  0.00  0.00    +0.020 C 
ATOM      7  C   LIG    1        3.125   1.797   4.391  0.00  0.00    +0.270 C 
ATOM      8  O   LIG    1        0.112   1.892   2.495  0.00  0.00    -0.520 OA
ENDROOT
BRANCH   1  11
ATOM      9  C   LIG    1        0.721  -0.452   0.601  0.00  0.00    +0.140 C 
ATOM     10  C   LIG    1        1.994   0.331   0.796  0.00  0.00    -0.010 A 
ATOM     11  C   LIG    1        2.232   1.278   1.754  0.00  0.00    -0.070 A 
ATOM     12  N   LIG    1        3.519   1.754   1.589  0.00  0.00    -0.510 N 
ATOM     13  H   LIG    1        3.940   2.435   2.137  0.00  0.00    +0.420 HD
ATOM     14  C   LIG    1        4.091   1.131   0.558  0.00  0.00    +0.110 A 
ATOM     15  C   LIG    1        5.479   1.298  -0.006  0.00  0.00    +0.130 C 
ATOM     16  C   LIG    1        5.851   0.044  -0.807  0.00  0.00    +0.050 C 
ATOM     17  C   LIG    1        4.772  -0.266  -1.849  0.00  0.00    +0.040 C 
ATOM     18  C   LIG    1        3.487  -0.627  -1.117  0.00  0.00    +0.430 C 
ATOM     19  O   LIG    1        2.780  -1.551  -1.461  0.00  0.00    -0.460 OA
ATOM     20  C   LIG    1        3.166   0.226   0.037  0.00  0.00    -0.270 A 
ENDBRANCH   1  11
BRANCH   5  21
ATOM     21  C   LIG    1        2.541   0.330   7.902  0.00  0.00    +0.180 C 
BRANCH  21  22
ATOM     22  O   LIG    1        1.803   0.827   9.021  0.00  0.00    -0.310 OA
BRANCH  22  23
ATOM     23  C   LIG    1        1.843   0.091  10.162  0.00  0.00    +0.130 A 
ATOM     24  C   LIG    1        2.572  -1.088  10.204  0.00  0.00    -0.080 A 
ATOM     25  C   LIG    1        2.615  -1.832  11.367  0.00  0.00    +0.040 A 
ATOM     26  C   LIG    1        1.924  -1.407  12.487  0.00  0.00    -0.040 A 
ATOM     27  C   LIG    1        1.192  -0.234  12.446  0.00  0.00    +0.050 A 
ATOM     28  C   LIG    1        1.150   0.515  11.287  0.00  0.00    -0.020 A 
ENDBRANCH  22  23
ENDBRANCH  21  22
ENDBRANCH   5  21
TORSDOF 4
