REMARK  Name = ZINCvU0000000IBF.0
REMARK                            x       y       z     vdW  Elec       q    Type
REMARK                         _______ _______ _______ _____ _____    ______ ____
ROOT
ATOM      1  C   LIG    1       -1.243   2.069  -0.047  0.00  0.00    -0.280 A 
ATOM      2  C   LIG    1       -1.341   3.447  -0.161  0.00  0.00    +0.220 A 
ATOM      3  N   LIG    1       -2.584   3.885  -0.175  0.00  0.00    -0.500 NA
ATOM      4  C   LIG    1       -3.529   2.998  -0.083  0.00  0.00    +0.230 A 
ATOM      5  S   LIG    1       -2.880   1.422   0.030  0.00  0.00    +0.190 S 
ENDROOT
BRANCH   4   6
ATOM      6  N   LIG    1       -4.876   3.290  -0.084  0.00  0.00    -0.440 N 
ATOM      7  C   LIG    1       -5.208   4.247   0.979  0.00  0.00    +0.210 C 
ATOM      8  C   LIG    1       -6.677   4.658   0.857  0.00  0.00    +0.040 C 
ATOM      9  C   LIG    1       -7.561   3.413   0.971  0.00  0.00    +0.000 C 
ATOM     10  C   LIG    1       -7.162   2.412  -0.117  0.00  0.00    +0.050 C 
ATOM     11  C   LIG    1       -5.679   2.066   0.034  0.00  0.00    +0.190 C 
ENDBRANCH   4   6
BRANCH   2  12
ATOM     12  C   LIG    1       -0.165   4.339  -0.257  0.00  0.00    -0.040 A 
ATOM     13  C   LIG    1        1.003   4.039   0.447  0.00  0.00    +0.030 A 
ATOM     14  C   LIG    1        2.098   4.872   0.348  0.00  0.00    +0.010 A 
ATOM     15  C   LIG    1        2.037   6.009  -0.437  0.00  0.00    +0.030 A 
ATOM     16  C   LIG    1        0.881   6.316  -1.132  0.00  0.00    +0.010 A 
ATOM     17  C   LIG    1       -0.219   5.489  -1.047  0.00  0.00    +0.060 A 
ENDBRANCH   2  12
BRANCH   1  19
ATOM     18  C   LIG    1       -0.106  -0.060   0.025  0.00  0.00    -0.040 C 
ATOM     19  C   LIG    1       -0.055   1.323  -0.006  0.00  0.00    +0.240 C 
BRANCH  18  20
ATOM     20  C   LIG    1       -1.403  -0.747   0.165  0.00  0.00    +0.200 A 
ATOM     21  N   LIG    1       -2.161  -1.203  -0.812  0.00  0.00    -0.240 NA
ATOM     22  N   LIG    1       -3.218  -1.752  -0.324  0.00  0.00    -0.280 NA
ATOM     23  C   LIG    1       -3.196  -1.682   0.977  0.00  0.00    +0.190 A 
ATOM     24  C   LIG    1       -4.228  -2.217   1.936  0.00  0.00    +0.160 C 
ATOM     25  C   LIG    1       -4.547  -1.142   2.979  0.00  0.00    +0.020 C 
ATOM     26  C   LIG    1       -3.578  -1.261   4.151  0.00  0.00    +0.020 C 
ATOM     27  C   LIG    1       -2.206  -1.729   3.669  0.00  0.00    +0.030 C 
ATOM     28  C   LIG    1       -1.624  -0.703   2.692  0.00  0.00    +0.290 C 
ATOM     29  N   LIG    1       -2.050  -1.038   1.333  0.00  0.00    -0.460 N 
ENDBRANCH  18  20
BRANCH  18  31
ATOM     30  N   LIG    1        2.058  -1.431  -0.160  0.00  0.00    -0.400 NA
ATOM     31  C   LIG    1        1.101  -0.825  -0.078  0.00  0.00    +0.260 C 
ENDBRANCH  18  31
ENDBRANCH   1  19
TORSDOF 5
