REMARK  Name = ZINCrg000000sEev.0
REMARK                            x       y       z     vdW  Elec       q    Type
REMARK                         _______ _______ _______ _____ _____    ______ ____
ROOT
ATOM      1  N   LIG    1       -4.138  -4.895   0.988  0.00  0.00    -0.460 N 
ATOM      2  C   LIG    1       -5.246  -3.942   1.138  0.00  0.00    +0.190 C 
ATOM      3  C   LIG    1       -5.180  -2.906   0.011  0.00  0.00    +0.300 C 
ATOM      4  N   LIG    1       -3.838  -2.304   0.008  0.00  0.00    -0.610 N 
ATOM      5  C   LIG    1       -2.673  -3.201  -0.009  0.00  0.00    +0.290 C 
ATOM      6  C   LIG    1       -3.680  -0.965   0.014  0.00  0.00    +0.520 C 
ATOM      7  O   LIG    1       -4.652  -0.240   0.023  0.00  0.00    -0.510 OA
ATOM      8  C   LIG    1       -2.838  -4.226   1.125  0.00  0.00    +0.180 C 
ENDROOT
BRANCH   1  12
ATOM      9  C   LIG    1       -3.265  -9.045   3.499  0.00  0.00    +0.360 C 
ATOM     10  N   LIG    1       -3.877  -7.801   3.026  0.00  0.00    -0.370 N 
ATOM     11  C   LIG    1       -3.404  -7.004   2.031  0.00  0.00    +0.220 A 
ATOM     12  C   LIG    1       -4.258  -5.957   1.905  0.00  0.00    -0.050 A 
ATOM     13  C   LIG    1       -5.278  -6.117   2.853  0.00  0.00    +0.200 A 
ATOM     14  N   LIG    1       -5.053  -7.221   3.519  0.00  0.00    -0.280 NA
ENDBRANCH   1  12
BRANCH   6  15
ATOM     15  C   LIG    1       -2.296  -0.370   0.011  0.00  0.00    +0.220 C 
BRANCH  15  16
ATOM     16  O   LIG    1       -2.391   1.056   0.019  0.00  0.00    -0.290 OA
BRANCH  16  17
ATOM     17  C   LIG    1       -1.223   1.753   0.017  0.00  0.00    +0.110 A 
ATOM     18  C   LIG    1       -0.013   1.076   0.008  0.00  0.00    -0.050 A 
ATOM     19  C   LIG    1        1.174   1.782   0.000  0.00  0.00    +0.020 A 
ATOM     20  C   LIG    1        1.155   3.170   0.008  0.00  0.00    +0.120 A 
ATOM     21  N   LIG    1        2.356   3.890  -0.000  0.00  0.00    -0.660 N 
ATOM     22  H   LIG    1        3.177   3.454  -0.278  0.00  0.00    +0.410 HD
ATOM     23  C   LIG    1        2.379   5.182   0.374  0.00  0.00    +0.520 C 
ATOM     24  C   LIG    1        1.122   5.875   0.827  0.00  0.00    +0.080 C 
ATOM     25  C   LIG    1       -0.075   5.353   0.032  0.00  0.00    +0.110 C 
ATOM     26  O   LIG    1        3.425   5.796   0.346  0.00  0.00    -0.530 OA
ATOM     27  C   LIG    1       -0.058   3.847   0.023  0.00  0.00    -0.080 A 
ATOM     28  C   LIG    1       -1.243   3.140   0.031  0.00  0.00    +0.030 A 
ENDBRANCH  16  17
ENDBRANCH  15  16
ENDBRANCH   6  15
TORSDOF 4
