REMARK  Name = ZINCpe000000TllS.0
REMARK                            x       y       z     vdW  Elec       q    Type
REMARK                         _______ _______ _______ _____ _____    ______ ____
ROOT
ATOM      1  N   LIG    1       -0.806   3.062  -1.200  0.00  0.00    -0.520 NA
ATOM      2  C   LIG    1       -0.754   1.593  -1.231  0.00  0.00    +0.190 C 
ATOM      3  C   LIG    1       -0.013   1.086   0.008  0.00  0.00    +0.240 C 
ATOM      4  N   LIG    1       -0.701   1.560   1.216  0.00  0.00    -0.460 N 
ATOM      5  C   LIG    1       -0.754   3.029   1.247  0.00  0.00    +0.210 C 
ATOM      6  C   LIG    1       -1.495   3.536   0.008  0.00  0.00    +0.210 C 
ENDROOT
BRANCH   4   7
ATOM      7  C   LIG    1       -0.092   1.055   2.372  0.00  0.00    +0.340 A 
ATOM      8  C   LIG    1       -0.484   1.303   3.648  0.00  0.00    -0.060 A 
ATOM      9  N   LIG    1        0.374   0.621   4.473  0.00  0.00    -0.330 N 
ATOM     10  C   LIG    1        0.453   0.508   5.830  0.00  0.00    +0.230 A 
ATOM     11  C   LIG    1        1.417  -0.244   6.402  0.00  0.00    +0.040 A 
ATOM     12  C   LIG    1        2.353  -0.921   5.605  0.00  0.00    +0.090 A 
ATOM     13  C   LIG    1        2.285  -0.817   4.249  0.00  0.00    +0.080 A 
ATOM     14  C   LIG    1        1.273  -0.029   3.668  0.00  0.00    +0.290 A 
ATOM     15  N   LIG    1        0.970   0.243   2.405  0.00  0.00    -0.500 NA
BRANCH   8  16
ATOM     16  N   LIG    1       -1.628   2.151   4.072  0.00  0.00    +0.050 N 
ATOM     17  O   LIG    1       -2.733   1.659   4.213  0.00  0.00    -0.110 OA
ATOM     18  O   LIG    1       -1.460   3.340   4.278  0.00  0.00    -0.130 OA
ENDBRANCH   8  16
ENDBRANCH   4   7
BRANCH   1  19
ATOM     19  C   LIG    1       -1.445   3.591  -2.413  0.00  0.00    +0.220 C 
BRANCH  19  22
ATOM     20  N   LIG    1       -1.770   5.792  -3.495  0.00  0.00    -0.730 N 
ATOM     21  H   LIG    1       -2.251   5.337  -4.204  0.00  0.00    +0.400 HD
ATOM     22  C   LIG    1       -1.263   5.086  -2.464  0.00  0.00    +0.510 C 
ATOM     23  O   LIG    1       -0.661   5.655  -1.578  0.00  0.00    -0.520 OA
BRANCH  20  24
ATOM     24  C   LIG    1       -1.593   7.245  -3.545  0.00  0.00    +0.260 C 
BRANCH  24  26
ATOM     25  C   LIG    1       -2.074   9.315  -4.860  0.00  0.00    +0.030 C 
ATOM     26  C   LIG    1       -2.258   7.797  -4.808  0.00  0.00    +0.000 C 
ENDBRANCH  24  26
ENDBRANCH  20  24
ENDBRANCH  19  22
ENDBRANCH   1  19
TORSDOF 6
