REMARK  Name = ZINCpk00000y6vtO.0
REMARK                            x       y       z     vdW  Elec       q    Type
REMARK                         _______ _______ _______ _____ _____    ______ ____
ROOT
ATOM      1  N   LIG    1       -0.259   3.621   1.421  0.00  0.00    -0.290 N 
ATOM      2  N   LIG    1       -0.993   4.598   1.009  0.00  0.00    -0.240 NA
ATOM      3  C   LIG    1       -0.404   5.735   1.217  0.00  0.00    -0.010 A 
ATOM      4  C   LIG    1        0.834   5.471   1.823  0.00  0.00    -0.110 A 
ATOM      5  C   LIG    1        1.803   6.555   2.212  0.00  0.00    +0.110 C 
ATOM      6  C   LIG    1        1.371   7.840   1.488  0.00  0.00    +0.150 C 
ATOM      7  O   LIG    1       -0.033   8.043   1.654  0.00  0.00    -0.370 OA
ATOM      8  C   LIG    1        2.130   9.033   2.073  0.00  0.00    +0.060 C 
ATOM      9  C   LIG    1       -0.865   7.139   0.912  0.00  0.00    +0.260 C 
ATOM     10  C   LIG    1       -2.325   7.310   1.337  0.00  0.00    +0.070 C 
ATOM     11  C   LIG    1        0.907   4.111   1.952  0.00  0.00    -0.040 A 
ENDROOT
BRANCH  11  12
ATOM     12  C   LIG    1        2.010   3.333   2.538  0.00  0.00    +0.590 C 
ATOM     13  N   LIG    1        2.034   1.992   2.406  0.00  0.00    -0.750 N 
ATOM     14  H   LIG    1        1.300   1.535   1.965  0.00  0.00    +0.400 HD
ATOM     15  O   LIG    1        2.901   3.900   3.141  0.00  0.00    -0.500 OA
BRANCH  13  16
ATOM     16  C   LIG    1        3.167   1.224   2.928  0.00  0.00    +0.360 C 
BRANCH  16  17
ATOM     17  C   LIG    1        2.995   1.021   4.434  0.00  0.00    +0.060 C 
ATOM     18  C   LIG    1        3.640   2.051   5.364  0.00  0.00    +0.080 C 
ATOM     19  C   LIG    1        4.238   0.647   5.243  0.00  0.00    +0.090 C 
BRANCH  17  20
ATOM     20  N   LIG    1        1.716   0.441   4.852  0.00  0.00    -0.340 N 
ATOM     21  C   LIG    1        0.489   0.839   4.474  0.00  0.00    +0.450 A 
ATOM     22  N   LIG    1       -0.387   0.067   5.064  0.00  0.00    -0.540 NA
ATOM     23  C   LIG    1        0.239  -0.832   5.823  0.00  0.00    +0.420 A 
ATOM     24  N   LIG    1        1.530  -0.646   5.721  0.00  0.00    -0.310 NA
ENDBRANCH  17  20
ENDBRANCH  16  17
ENDBRANCH  13  16
ENDBRANCH  11  12
BRANCH   1  26
ATOM     25  C   LIG    1        0.153   1.546   0.194  0.00  0.00    +0.050 C 
ATOM     26  C   LIG    1       -0.618   2.203   1.340  0.00  0.00    +0.310 C 
ENDBRANCH   1  26
TORSDOF 5
