REMARK  Name = ZINCpk00001AZiJj.0
REMARK                            x       y       z     vdW  Elec       q    Type
REMARK                         _______ _______ _______ _____ _____    ______ ____
ROOT
ATOM      1  N   LIG    1       -1.899   5.796   3.118  0.00  0.00    -0.680 N 
ATOM      2  H   LIG    1       -2.591   5.186   3.419  0.00  0.00    +0.410 HD
ATOM      3  C   LIG    1       -1.350   5.641   1.897  0.00  0.00    +0.700 C 
ATOM      4  N   LIG    1       -1.686   4.580   1.137  0.00  0.00    -0.730 N 
ATOM      5  H   LIG    1       -2.324   3.928   1.468  0.00  0.00    +0.400 HD
ATOM      6  O   LIG    1       -0.551   6.457   1.482  0.00  0.00    -0.560 OA
ENDROOT
BRANCH   1  11
ATOM      7  C   LIG    1        0.270   8.292   4.744  0.00  0.00    -0.020 A 
ATOM      8  C   LIG    1       -0.640   8.900   5.610  0.00  0.00    +0.010 A 
ATOM      9  C   LIG    1       -1.953   8.475   5.641  0.00  0.00    +0.050 A 
ATOM     10  C   LIG    1       -2.371   7.448   4.816  0.00  0.00    +0.020 A 
ATOM     11  C   LIG    1       -1.472   6.836   3.951  0.00  0.00    +0.170 A 
ATOM     12  C   LIG    1       -0.150   7.252   3.917  0.00  0.00    +0.080 A 
BRANCH   7  17
ATOM     13  N   LIG    1        2.159   9.922   5.185  0.00  0.00    -0.370 N 
ATOM     14  N   LIG    1        3.540   9.888   4.926  0.00  0.00    -0.080 NA
ATOM     15  N   LIG    1        3.783   8.767   4.338  0.00  0.00    -0.040 NA
ATOM     16  N   LIG    1        2.701   8.088   4.205  0.00  0.00    -0.320 NA
ATOM     17  C   LIG    1        1.679   8.746   4.709  0.00  0.00    +0.290 A 
BRANCH  13  19
ATOM     18  C   LIG    1        1.444  10.804   7.351  0.00  0.00    +0.050 C 
ATOM     19  C   LIG    1        1.401  10.995   5.834  0.00  0.00    +0.320 C 
ENDBRANCH  13  19
ENDBRANCH   7  17
ENDBRANCH   1  11
BRANCH   4  20
ATOM     20  C   LIG    1       -1.089   4.411  -0.190  0.00  0.00    +0.250 C 
ATOM     21  C   LIG    1       -1.112   2.930  -0.576  0.00  0.00    +0.030 C 
ATOM     22  C   LIG    1       -0.459   2.749  -1.949  0.00  0.00    +0.040 C 
ATOM     23  C   LIG    1       -1.254   3.535  -2.996  0.00  0.00    +0.300 C 
ATOM     24  N   LIG    1       -1.359   4.933  -2.559  0.00  0.00    -0.570 N 
ATOM     25  C   LIG    1       -1.891   5.216  -1.218  0.00  0.00    +0.290 C 
BRANCH  24  26
ATOM     26  C   LIG    1       -0.975   5.943  -3.376  0.00  0.00    +0.420 C 
ATOM     27  N   LIG    1       -0.652   6.790  -4.061  0.00  0.00    -0.440 NA
ENDBRANCH  24  26
ENDBRANCH   4  20
TORSDOF 5
