REMARK  Name = ZINCvU00000007h7.0
REMARK                            x       y       z     vdW  Elec       q    Type
REMARK                         _______ _______ _______ _____ _____    ______ ____
ROOT
ATOM      1  C   LIG    1       -4.398  -2.262   1.781  0.00  0.00    +0.600 C 
ATOM      2  N   LIG    1       -4.435  -0.934   1.554  0.00  0.00    -0.710 N 
ATOM      3  H   LIG    1       -4.227  -0.313   2.270  0.00  0.00    +0.400 HD
ATOM      4  O   LIG    1       -4.659  -3.040   0.883  0.00  0.00    -0.510 OA
ENDROOT
BRANCH   1   7
ATOM      5  C   LIG    1       -6.367  -2.875   4.218  0.00  0.00    +0.200 C 
ATOM      6  C   LIG    1       -4.870  -3.041   4.178  0.00  0.00    +0.030 A 
ATOM      7  C   LIG    1       -4.043  -2.771   3.117  0.00  0.00    -0.250 A 
ATOM      8  C   LIG    1       -2.706  -3.111   3.648  0.00  0.00    +0.090 A 
ATOM      9  N   LIG    1       -2.919  -3.516   4.874  0.00  0.00    -0.320 NA
ATOM     10  O   LIG    1       -4.090  -3.483   5.166  0.00  0.00    +0.110 OA
BRANCH   8  11
ATOM     11  C   LIG    1       -1.405  -3.015   2.943  0.00  0.00    -0.020 A 
ATOM     12  C   LIG    1       -1.354  -2.567   1.625  0.00  0.00    +0.050 A 
ATOM     13  C   LIG    1       -0.140  -2.474   0.976  0.00  0.00    +0.030 A 
ATOM     14  C   LIG    1        1.025  -2.836   1.627  0.00  0.00    +0.050 A 
ATOM     15  C   LIG    1        0.982  -3.288   2.934  0.00  0.00    +0.030 A 
ATOM     16  C   LIG    1       -0.227  -3.380   3.596  0.00  0.00    -0.010 A 
ATOM     17 CL   LIG    1       -0.280  -3.947   5.236  0.00  0.00    -0.040 Cl
ENDBRANCH   8  11
ENDBRANCH   1   7
BRANCH   2  18
ATOM     18  C   LIG    1       -4.788  -0.427   0.226  0.00  0.00    +0.350 C 
BRANCH  18  19
ATOM     19  C   LIG    1       -4.756   1.079   0.238  0.00  0.00    -0.180 A 
ATOM     20  C   LIG    1       -5.928   1.805   0.358  0.00  0.00    +0.130 A 
ATOM     21  C   LIG    1       -5.852   3.191   0.358  0.00  0.00    -0.060 A 
ATOM     22  C   LIG    1       -4.618   3.800   0.245  0.00  0.00    +0.310 A 
ATOM     23  N   LIG    1       -3.516   3.081   0.137  0.00  0.00    -0.530 NA
ATOM     24  C   LIG    1       -3.548   1.758   0.133  0.00  0.00    +0.330 A 
BRANCH  24  25
ATOM     25  O   LIG    1       -2.392   1.059   0.019  0.00  0.00    -0.240 OA
BRANCH  25  26
ATOM     26  C   LIG    1       -1.222   1.751   0.040  0.00  0.00    +0.130 A 
ATOM     27  C   LIG    1       -0.477   1.892  -1.122  0.00  0.00    +0.010 A 
ATOM     28  C   LIG    1        0.708   2.601  -1.100  0.00  0.00    +0.070 A 
ATOM     29  C   LIG    1        1.157   3.166   0.079  0.00  0.00    -0.010 A 
ATOM     30  C   LIG    1        0.418   3.022   1.242  0.00  0.00    +0.120 A 
ATOM     31  F   LIG    1        0.858   3.575   2.394  0.00  0.00    -0.130 F 
ATOM     32  C   LIG    1       -0.769   2.313   1.225  0.00  0.00    -0.020 A 
ENDBRANCH  25  26
ENDBRANCH  24  25
ENDBRANCH  18  19
ENDBRANCH   2  18
TORSDOF 6
