REMARK  Name = ZINCqH0000050H0c.0
REMARK                            x       y       z     vdW  Elec       q    Type
REMARK                         _______ _______ _______ _____ _____    ______ ____
ROOT
ATOM      1  C   LIG    1        0.022  -0.725   4.171  0.00  0.00    -0.040 A 
ATOM      2  C   LIG    1        1.142  -0.110   4.725  0.00  0.00    +0.030 A 
ATOM      3  C   LIG    1        1.645   1.044   4.157  0.00  0.00    +0.020 A 
ATOM      4  C   LIG    1        1.038   1.588   3.039  0.00  0.00    +0.020 A 
ATOM      5  C   LIG    1       -0.074   0.981   2.485  0.00  0.00    -0.120 A 
ATOM      6  C   LIG    1       -0.588  -0.170   3.048  0.00  0.00    +0.040 A 
ENDROOT
BRANCH   1  11
ATOM      7  C   LIG    1       -0.430  -3.675   6.465  0.00  0.00    +0.170 A 
ATOM      8  C   LIG    1       -1.547  -4.282   5.905  0.00  0.00    -0.010 A 
ATOM      9  C   LIG    1       -2.149  -3.734   4.788  0.00  0.00    +0.050 A 
ATOM     10  C   LIG    1       -1.644  -2.580   4.223  0.00  0.00    +0.010 A 
ATOM     11  C   LIG    1       -0.523  -1.965   4.778  0.00  0.00    -0.020 A 
ATOM     12  C   LIG    1        0.087  -2.520   5.899  0.00  0.00    +0.030 A 
BRANCH   7  16
ATOM     13  C   LIG    1        0.648  -6.758  10.190  0.00  0.00    +0.120 C 
ATOM     14  C   LIG    1        0.664  -5.585   9.245  0.00  0.00    -0.230 A 
ATOM     15  C   LIG    1       -0.159  -5.404   8.186  0.00  0.00    +0.230 A 
ATOM     16  N   LIG    1        0.178  -4.235   7.597  0.00  0.00    -0.330 N 
ATOM     17  N   LIG    1        1.247  -3.683   8.316  0.00  0.00    -0.290 NA
ATOM     18  C   LIG    1        1.534  -4.490   9.306  0.00  0.00    +0.250 A 
ENDBRANCH   7  16
ENDBRANCH   1  11
BRANCH   5  19
ATOM     19  C   LIG    1       -0.729   1.579   1.267  0.00  0.00    +0.250 C 
BRANCH  19  20
ATOM     20  O   LIG    1       -0.647   3.004   1.334  0.00  0.00    -0.540 OA
ATOM     21  H   LIG    1        0.258   3.345   1.368  0.00  0.00    +0.380 HD
ENDBRANCH  19  20
BRANCH  19  22
ATOM     22  C   LIG    1       -0.013   1.086   0.008  0.00  0.00    +0.280 C 
BRANCH  22  23
ATOM     23  N   LIG    1       -0.721   1.571  -1.179  0.00  0.00    -0.460 N 
ATOM     24  C   LIG    1       -1.734   0.929  -1.839  0.00  0.00    +0.110 A 
ATOM     25  C   LIG    1       -2.096   1.724  -2.864  0.00  0.00    +0.140 A 
ATOM     26  N   LIG    1       -1.319   2.817  -2.836  0.00  0.00    -0.500 NA
ATOM     27  C   LIG    1       -0.493   2.732  -1.829  0.00  0.00    +0.390 A 
ENDBRANCH  22  23
ENDBRANCH  19  22
ENDBRANCH   5  19
TORSDOF 6
