REMARK  Name = ZINCpe00000bBFiy.0
REMARK                            x       y       z     vdW  Elec       q    Type
REMARK                         _______ _______ _______ _____ _____    ______ ____
ROOT
ATOM      1  C   LIG    1        7.170  -0.065  -0.477  0.00  0.00    +0.140 C 
ATOM      2  C   LIG    1        6.027  -0.788   0.284  0.00  0.00    +0.040 C 
ATOM      3  C   LIG    1        4.997   0.338   0.510  0.00  0.00    +0.270 C 
ATOM      4  N   LIG    1        5.720   1.615   0.426  0.00  0.00    -0.600 N 
ATOM      5  C   LIG    1        5.170   2.840   0.549  0.00  0.00    +0.620 C 
ATOM      6  O   LIG    1        5.868   3.831   0.461  0.00  0.00    -0.510 OA
ATOM      7  C   LIG    1        7.147   1.335   0.180  0.00  0.00    +0.290 C 
ENDROOT
BRANCH   5   8
ATOM      8  C   LIG    1        3.717   2.977   0.789  0.00  0.00    +0.080 A 
ATOM      9  N   LIG    1        2.856   1.978   0.904  0.00  0.00    -0.280 NA
ATOM     10  N   LIG    1        1.580   2.509   1.126  0.00  0.00    -0.310 N 
ATOM     11  C   LIG    1        0.359   1.923   1.310  0.00  0.00    +0.340 A 
ATOM     12  C   LIG    1       -0.727   2.710   1.502  0.00  0.00    -0.050 A 
ATOM     13  C   LIG    1       -0.575   4.105   1.520  0.00  0.00    +0.360 A 
ATOM     14  N   LIG    1        0.607   4.644   1.342  0.00  0.00    -0.460 NA
ATOM     15  C   LIG    1        1.689   3.877   1.145  0.00  0.00    +0.250 A 
ATOM     16  C   LIG    1        3.025   4.183   0.935  0.00  0.00    -0.030 A 
ENDBRANCH   5   8
BRANCH   1  18
ATOM     17  C   LIG    1        9.563   0.040  -0.831  0.00  0.00    +0.200 C 
ATOM     18  N   LIG    1        8.458  -0.735  -0.251  0.00  0.00    -0.520 NA
BRANCH  18  19
ATOM     19  C   LIG    1        8.440  -2.104  -0.781  0.00  0.00    +0.290 C 
BRANCH  19  20
ATOM     20  C   LIG    1        9.673  -2.838  -0.320  0.00  0.00    +0.330 A 
ATOM     21  N   LIG    1       10.759  -2.799  -1.066  0.00  0.00    -0.520 NA
ATOM     22  C   LIG    1       11.862  -3.426  -0.691  0.00  0.00    +0.320 A 
ATOM     23  C   LIG    1       11.861  -4.140   0.497  0.00  0.00    -0.080 A 
ATOM     24  C   LIG    1       10.698  -4.163   1.251  0.00  0.00    +0.320 A 
ATOM     25  N   LIG    1        9.635  -3.507   0.815  0.00  0.00    -0.500 NA
ENDBRANCH  19  20
ENDBRANCH  18  19
ENDBRANCH   1  18
TORSDOF 4
