REMARK  Name = ZINCpk00000y6veZ.0
REMARK                            x       y       z     vdW  Elec       q    Type
REMARK                         _______ _______ _______ _____ _____    ______ ____
ROOT
ATOM      1  C   LIG    1        4.206  -3.076   1.604  0.00  0.00    +0.570 C 
ATOM      2  N   LIG    1        3.297  -2.119   1.329  0.00  0.00    -0.720 N 
ATOM      3  H   LIG    1        2.719  -1.783   2.032  0.00  0.00    +0.400 HD
ATOM      4  O   LIG    1        4.930  -3.497   0.723  0.00  0.00    -0.520 OA
ENDROOT
BRANCH   2   5
ATOM      5  C   LIG    1        3.182  -1.587  -0.031  0.00  0.00    +0.320 C 
ATOM      6  C   LIG    1        1.874  -0.838  -0.179  0.00  0.00    -0.310 A 
ATOM      7  C   LIG    1        1.771   0.508  -0.182  0.00  0.00    +0.150 A 
ATOM      8  O   LIG    1        2.874   1.324  -0.045  0.00  0.00    -0.280 OA
ATOM      9  C   LIG    1        4.049   0.695   0.478  0.00  0.00    +0.120 C 
ATOM     10  C   LIG    1        5.242   1.642   0.332  0.00  0.00    +0.090 C 
ATOM     11  C   LIG    1        3.837   0.366   1.957  0.00  0.00    +0.040 C 
ATOM     12  C   LIG    1        0.467   0.969  -0.333  0.00  0.00    +0.010 A 
ATOM     13  C   LIG    1       -0.465   0.026  -0.449  0.00  0.00    +0.000 A 
ATOM     14  S   LIG    1        0.286  -1.562  -0.371  0.00  0.00    +0.140 S 
ATOM     15  C   LIG    1        4.324  -0.597  -0.299  0.00  0.00    +0.160 C 
BRANCH  15  16
ATOM     16  O   LIG    1        4.393  -0.312  -1.698  0.00  0.00    -0.540 OA
ATOM     17  H   LIG    1        4.555  -1.090  -2.250  0.00  0.00    +0.380 HD
ENDBRANCH  15  16
ENDBRANCH   2   5
BRANCH   1  24
ATOM     18  C   LIG    1        4.107  -4.975   8.019  0.00  0.00    +0.390 C 
ATOM     19  N   LIG    1        4.750  -5.187   6.720  0.00  0.00    -0.380 N 
ATOM     20  N   LIG    1        5.784  -6.091   6.437  0.00  0.00    +0.020 NA
ATOM     21  N   LIG    1        6.099  -6.007   5.192  0.00  0.00    -0.190 NA
ATOM     22  C   LIG    1        5.328  -5.078   4.581  0.00  0.00    -0.070 A 
ATOM     23  C   LIG    1        5.259  -4.603   3.267  0.00  0.00    +0.260 A 
ATOM     24  C   LIG    1        4.321  -3.613   2.975  0.00  0.00    -0.220 A 
ATOM     25  C   LIG    1        3.495  -3.129   3.997  0.00  0.00    +0.380 A 
ATOM     26  N   LIG    1        3.580  -3.599   5.220  0.00  0.00    -0.480 NA
ATOM     27  C   LIG    1        4.456  -4.541   5.547  0.00  0.00    +0.290 A 
ENDBRANCH   1  24
TORSDOF 3
