REMARK  Name = ZINCrD000000Bv6H.0
REMARK                            x       y       z     vdW  Elec       q    Type
REMARK                         _______ _______ _______ _____ _____    ______ ____
ROOT
ATOM      1  C   LIG    1       -2.422   0.686   0.017  0.00  0.00    -0.250 A 
ATOM      2  C   LIG    1       -3.153   0.314  -1.056  0.00  0.00    +0.260 A 
ATOM      3  N   LIG    1       -4.064  -0.594  -0.644  0.00  0.00    -0.360 N 
ATOM      4  N   LIG    1       -3.898  -0.785   0.734  0.00  0.00    -0.270 NA
ATOM      5  C   LIG    1       -2.909  -0.016   1.137  0.00  0.00    +0.130 A 
ENDROOT
BRANCH   5   6
ATOM      6  C   LIG    1       -2.398   0.093   2.526  0.00  0.00    -0.020 A 
ATOM      7  C   LIG    1       -1.038   0.290   2.758  0.00  0.00    +0.020 A 
ATOM      8  C   LIG    1       -0.569   0.395   4.051  0.00  0.00    +0.000 A 
ATOM      9  C   LIG    1       -1.445   0.296   5.117  0.00  0.00    +0.010 A 
ATOM     10  C   LIG    1       -2.796   0.096   4.893  0.00  0.00    +0.010 A 
ATOM     11  C   LIG    1       -3.276  -0.006   3.603  0.00  0.00    +0.030 A 
ENDBRANCH   5   6
BRANCH   1  12
ATOM     12  C   LIG    1       -1.290   1.681   0.017  0.00  0.00    +0.360 C 
BRANCH  12  15
ATOM     13  O   LIG    1        1.130   2.868   0.007  0.00  0.00    -0.520 OA
ATOM     14  C   LIG    1        1.147   1.655   0.000  0.00  0.00    +0.500 C 
ATOM     15  N   LIG    1       -0.011   0.966   0.007  0.00  0.00    -0.730 N 
ATOM     16  H   LIG    1        0.002  -0.004   0.002  0.00  0.00    +0.400 HD
BRANCH  14  17
ATOM     17  C   LIG    1        2.462   0.920  -0.017  0.00  0.00    +0.170 C 
ATOM     18  C   LIG    1        2.637   0.130   1.298  0.00  0.00    +0.020 C 
ATOM     19  C   LIG    1        4.147   0.325   1.602  0.00  0.00    +0.020 C 
ATOM     20  C   LIG    1        4.372   1.760   1.063  0.00  0.00    +0.200 C 
ATOM     21  O   LIG    1        3.542   1.857  -0.105  0.00  0.00    -0.350 OA
ENDBRANCH  14  17
ENDBRANCH  12  15
ENDBRANCH   1  12
BRANCH   3  22
ATOM     22  C   LIG    1       -5.057  -1.260  -1.490  0.00  0.00    +0.390 C 
BRANCH  22  23
ATOM     23  C   LIG    1       -4.923  -2.754  -1.342  0.00  0.00    -0.110 A 
ATOM     24  C   LIG    1       -4.082  -3.459  -2.183  0.00  0.00    +0.020 A 
ATOM     25  C   LIG    1       -3.956  -4.829  -2.044  0.00  0.00    +0.000 A 
ATOM     26  C   LIG    1       -4.677  -5.494  -1.071  0.00  0.00    +0.010 A 
ATOM     27  C   LIG    1       -5.522  -4.790  -0.234  0.00  0.00    +0.010 A 
ATOM     28  C   LIG    1       -5.646  -3.420  -0.370  0.00  0.00    +0.040 A 
ENDBRANCH  22  23
ENDBRANCH   3  22
TORSDOF 6
