REMARK  Name = ZINCpk00001AZjeB.0
REMARK                            x       y       z     vdW  Elec       q    Type
REMARK                         _______ _______ _______ _____ _____    ______ ____
ROOT
ATOM      1  N   LIG    1       -1.747   1.894  -1.470  0.00  0.00    -0.600 N 
ATOM      2  C   LIG    1       -2.713   1.035  -1.087  0.00  0.00    +0.500 C 
ATOM      3  O   LIG    1       -3.878   1.361  -1.161  0.00  0.00    -0.500 OA
ENDROOT
BRANCH   2   4
ATOM      4  C   LIG    1       -2.344  -0.330  -0.567  0.00  0.00    +0.280 C 
ATOM      5  C   LIG    1       -2.116  -0.256   0.944  0.00  0.00    +0.060 C 
BRANCH   4   6
ATOM      6  N   LIG    1       -3.430  -1.271  -0.852  0.00  0.00    -0.630 N 
ATOM      7  C   LIG    1       -3.311  -2.487  -1.670  0.00  0.00    +0.250 C 
ATOM      8  C   LIG    1       -4.728  -3.092  -1.640  0.00  0.00    +0.250 C 
ATOM      9  N   LIG    1       -5.495  -2.152  -0.809  0.00  0.00    -0.750 N 
ATOM     10  H   LIG    1       -6.435  -2.237  -0.586  0.00  0.00    +0.430 HD
ATOM     11  C   LIG    1       -4.687  -1.163  -0.404  0.00  0.00    +0.700 C 
ATOM     12  O   LIG    1       -5.063  -0.248   0.303  0.00  0.00    -0.550 OA
ENDBRANCH   4   6
ENDBRANCH   2   4
BRANCH   1  13
ATOM     13  C   LIG    1       -2.107   3.165  -2.104  0.00  0.00    +0.360 C 
BRANCH  13  16
ATOM     14  C   LIG    1       -4.333   2.014  -3.977  0.00  0.00    +0.140 C 
ATOM     15  C   LIG    1       -2.983   2.523  -4.411  0.00  0.00    +0.110 A 
ATOM     16  C   LIG    1       -2.019   3.021  -3.602  0.00  0.00    -0.270 A 
ATOM     17  C   LIG    1       -0.931   3.384  -4.402  0.00  0.00    +0.240 A 
ATOM     18  N   LIG    1       -1.226   3.105  -5.645  0.00  0.00    -0.300 NA
ATOM     19  N   LIG    1       -2.518   2.564  -5.678  0.00  0.00    -0.370 N 
ATOM     20  C   LIG    1       -3.237   2.121  -6.875  0.00  0.00    +0.360 C 
ENDBRANCH  13  16
ENDBRANCH   1  13
BRANCH   1  21
ATOM     21  C   LIG    1       -0.338   1.557  -1.252  0.00  0.00    +0.270 C 
BRANCH  21  22
ATOM     22  C   LIG    1        0.256   2.504  -0.207  0.00  0.00    +0.010 C 
ATOM     23  C   LIG    1       -0.538   2.436   1.077  0.00  0.00    -0.040 C 
ATOM     24  C   LIG    1        0.251   2.370   2.115  0.00  0.00    -0.050 C 
ATOM     25  C   LIG    1        1.703   2.382   1.696  0.00  0.00    +0.050 C 
ATOM     26  C   LIG    1        1.680   2.046   0.187  0.00  0.00    +0.030 C 
ENDBRANCH  21  22
ENDBRANCH   1  21
TORSDOF 6
