REMARK  Name = ZINCrg000000p1yO.0
REMARK                            x       y       z     vdW  Elec       q    Type
REMARK                         _______ _______ _______ _____ _____    ______ ____
ROOT
ATOM      1  C   LIG    1        3.953   3.841  -4.183  0.00  0.00    +0.430 A 
ATOM      2  C   LIG    1        5.051   3.159  -3.672  0.00  0.00    -0.080 A 
ATOM      3  C   LIG    1        6.155   2.959  -4.481  0.00  0.00    +0.200 A 
ATOM      4  C   LIG    1        6.127   3.459  -5.776  0.00  0.00    -0.770 A 
ATOM      5  C   LIG    1        5.005   4.132  -6.216  0.00  0.00    +0.410 A 
ATOM      6  N   LIG    1        3.964   4.303  -5.423  0.00  0.00    -0.480 NA
ENDROOT
BRANCH   1   9
ATOM      7  N   LIG    1        0.608   4.717  -3.153  0.00  0.00    -0.620 N 
ATOM      8  C   LIG    1        1.725   4.613  -3.900  0.00  0.00    +0.700 C 
ATOM      9  N   LIG    1        2.832   4.046  -3.380  0.00  0.00    -0.670 N 
ATOM     10  H   LIG    1        2.849   3.781  -2.447  0.00  0.00    +0.420 HD
ATOM     11  O   LIG    1        1.735   5.029  -5.042  0.00  0.00    -0.520 OA
ATOM     12  C   LIG    1        0.597   4.215  -1.777  0.00  0.00    +0.280 C 
BRANCH   7  13
ATOM     13  C   LIG    1       -0.595   5.333  -3.718  0.00  0.00    +0.430 C 
BRANCH  13  17
ATOM     14  C   LIG    1        0.037  10.286  -4.124  0.00  0.00    +0.370 C 
ATOM     15  N   LIG    1       -0.306   8.955  -3.616  0.00  0.00    -0.300 N 
ATOM     16  C   LIG    1       -0.129   7.786  -4.274  0.00  0.00    +0.170 A 
ATOM     17  C   LIG    1       -0.577   6.815  -3.445  0.00  0.00    -0.050 A 
ATOM     18  N   LIG    1       -1.001   7.429  -2.334  0.00  0.00    -0.260 NA
ATOM     19  N   LIG    1       -0.827   8.697  -2.468  0.00  0.00    -0.090 NA
ENDBRANCH  13  17
ENDBRANCH   7  13
ENDBRANCH   1   9
BRANCH   4  20
ATOM     20  S   LIG    1        7.509   3.237  -6.846  0.00  0.00    +2.700 S 
ATOM     21  O   LIG    1        7.008   3.330  -8.172  0.00  0.00    -0.950 OA
ATOM     22  O   LIG    1        8.215   2.103  -6.360  0.00  0.00    -0.950 OA
BRANCH  20  23
ATOM     23  N   LIG    1        8.510   4.539  -6.631  0.00  0.00    -1.000 NA
ATOM     24  C   LIG    1        8.356   5.745  -7.455  0.00  0.00    +0.290 C 
ATOM     25  C   LIG    1        8.219   6.959  -6.523  0.00  0.00    +0.010 C 
ATOM     26  C   LIG    1        9.414   6.999  -5.567  0.00  0.00    +0.010 C 
ATOM     27  C   LIG    1        9.425   5.732  -4.709  0.00  0.00    -0.000 C 
ATOM     28  C   LIG    1        9.573   4.506  -5.617  0.00  0.00    +0.290 C 
ENDBRANCH  20  23
ENDBRANCH   4  20
TORSDOF 5
