REMARK  Name = ZINCpk00000SmiHL.0
REMARK                            x       y       z     vdW  Elec       q    Type
REMARK                         _______ _______ _______ _____ _____    ______ ____
ROOT
ATOM      1  N   LIG    1       -1.322   3.464   0.027  0.00  0.00    -0.710 N 
ATOM      2  H   LIG    1       -0.488   3.959   0.026  0.00  0.00    +0.400 HD
ATOM      3  C   LIG    1       -1.304   2.116   0.020  0.00  0.00    +0.570 C 
ATOM      4  O   LIG    1       -2.350   1.495   0.021  0.00  0.00    -0.530 OA
ENDROOT
BRANCH   3   5
ATOM      5  C   LIG    1       -0.017   1.394   0.010  0.00  0.00    -0.130 A 
ATOM      6  C   LIG    1        1.184   2.107   0.002  0.00  0.00    +0.070 A 
ATOM      7  C   LIG    1        2.387   1.433  -0.013  0.00  0.00    +0.020 A 
ATOM      8  C   LIG    1        2.404   0.046  -0.020  0.00  0.00    +0.100 A 
ATOM      9  O   LIG    1        3.590  -0.625  -0.035  0.00  0.00    -0.320 OA
ATOM     10  C   LIG    1        3.889  -1.341  -1.234  0.00  0.00    +0.230 C 
ATOM     11  C   LIG    1        3.242  -2.717  -1.217  0.00  0.00    -0.010 C 
ATOM     12  C   LIG    1        1.724  -2.642  -1.219  0.00  0.00    +0.230 C 
ATOM     13  O   LIG    1        1.244  -2.034  -0.018  0.00  0.00    -0.320 OA
ATOM     14  C   LIG    1        1.211  -0.669  -0.013  0.00  0.00    +0.060 A 
ATOM     15  C   LIG    1        0.002  -0.004   0.002  0.00  0.00    +0.100 A 
ENDBRANCH   3   5
BRANCH   1  17
ATOM     16  C   LIG    1       -2.501   5.623  -0.483  0.00  0.00    +0.280 C 
ATOM     17  C   LIG    1       -2.600   4.180   0.037  0.00  0.00    +0.260 C 
ATOM     18  C   LIG    1       -2.958   4.781   1.406  0.00  0.00    +0.020 C 
ATOM     19  C   LIG    1       -3.474   6.013   0.642  0.00  0.00    +0.180 C 
BRANCH  16  23
ATOM     20  C   LIG    1       -5.719   6.390  -4.249  0.00  0.00    +0.110 C 
ATOM     21  C   LIG    1       -4.453   6.136  -3.471  0.00  0.00    -0.240 A 
ATOM     22  C   LIG    1       -4.353   6.029  -2.126  0.00  0.00    +0.220 A 
ATOM     23  N   LIG    1       -3.057   5.802  -1.827  0.00  0.00    -0.360 N 
ATOM     24  N   LIG    1       -2.336   5.774  -3.028  0.00  0.00    -0.290 NA
ATOM     25  C   LIG    1       -3.174   5.968  -4.013  0.00  0.00    +0.230 A 
ENDBRANCH  16  23
BRANCH  19  26
ATOM     26  O   LIG    1       -3.152   7.254   1.273  0.00  0.00    -0.550 OA
ATOM     27  H   LIG    1       -3.732   7.482   2.012  0.00  0.00    +0.390 HD
ENDBRANCH  19  26
ENDBRANCH   1  17
TORSDOF 4
