REMARK  Name = ZINCpe000000UycT.0
REMARK                            x       y       z     vdW  Elec       q    Type
REMARK                         _______ _______ _______ _____ _____    ______ ____
ROOT
ATOM      1  C   LIG    1        4.806   0.424   1.210  0.00  0.00    +0.210 C 
ATOM      2  N   LIG    1        4.754   1.195  -0.039  0.00  0.00    -0.500 NA
ENDROOT
BRANCH   2   3
ATOM      3  C   LIG    1        3.636   2.148  -0.023  0.00  0.00    +0.300 C 
BRANCH   3   4
ATOM      4  C   LIG    1        2.332   1.392  -0.013  0.00  0.00    +0.430 A 
ATOM      5  N   LIG    1        2.369   0.092  -0.020  0.00  0.00    -0.490 NA
ATOM      6  C   LIG    1        1.249  -0.649  -0.013  0.00  0.00    +0.330 A 
ATOM      7  C   LIG    1        0.002  -0.004   0.002  0.00  0.00    -0.350 A 
ATOM      8  C   LIG    1       -0.018   1.459   0.010  0.00  0.00    +0.580 A 
ATOM      9  O   LIG    1       -1.068   2.076   0.018  0.00  0.00    -0.520 OA
ATOM     10  C   LIG    1       -0.986  -1.006   0.006  0.00  0.00    +0.330 A 
ATOM     11  N   LIG    1       -0.393  -2.168  -0.006  0.00  0.00    -0.270 NA
ATOM     12  N   LIG    1        0.996  -1.983  -0.018  0.00  0.00    -0.350 N 
ATOM     13  C   LIG    1        2.002  -3.047  -0.034  0.00  0.00    +0.370 C 
ATOM     14  N   LIG    1        1.174   2.100   0.002  0.00  0.00    -0.650 N 
ATOM     15  H   LIG    1        1.201   3.070   0.007  0.00  0.00    +0.420 HD
ENDBRANCH   3   4
ENDBRANCH   2   3
BRANCH   2  16
ATOM     16  C   LIG    1        6.028   1.883  -0.286  0.00  0.00    +0.220 C 
BRANCH  16  17
ATOM     17  C   LIG    1        7.108   0.863  -0.540  0.00  0.00    +0.520 C 
ATOM     18  N   LIG    1        8.369   1.266  -0.792  0.00  0.00    -0.620 N 
ATOM     19  C   LIG    1        8.690   2.695  -0.821  0.00  0.00    +0.280 C 
ATOM     20  O   LIG    1        6.843  -0.320  -0.517  0.00  0.00    -0.510 OA
BRANCH  18  21
ATOM     21  C   LIG    1        9.419   0.274  -1.039  0.00  0.00    +0.240 C 
ATOM     22  C   LIG    1       10.521   0.427   0.012  0.00  0.00    -0.010 C 
ATOM     23  C   LIG    1       11.618  -0.609  -0.245  0.00  0.00    +0.010 C 
ATOM     24  C   LIG    1       12.209  -0.390  -1.640  0.00  0.00    +0.000 C 
ATOM     25  C   LIG    1       11.107  -0.542  -2.690  0.00  0.00    +0.020 C 
ATOM     26  C   LIG    1       10.010   0.493  -2.433  0.00  0.00    +0.010 C 
ENDBRANCH  18  21
ENDBRANCH  16  17
ENDBRANCH   2  16
TORSDOF 5
