REMARK  Name = ZINCrD00000hQ6QQ.0
REMARK                            x       y       z     vdW  Elec       q    Type
REMARK                         _______ _______ _______ _____ _____    ______ ____
ROOT
ATOM      1  C   LIG    1        8.655  -2.293   4.146  0.00  0.00    +0.530 C 
ATOM      2  N   LIG    1        8.073  -1.489   3.235  0.00  0.00    -0.600 N 
ATOM      3  C   LIG    1        7.098  -2.026   2.276  0.00  0.00    +0.280 C 
ATOM      4  C   LIG    1        7.542  -1.651   0.859  0.00  0.00    +0.000 C 
ATOM      5  C   LIG    1        7.738  -0.136   0.773  0.00  0.00    +0.130 C 
ATOM      6  C   LIG    1        8.153   0.245  -0.650  0.00  0.00    +0.050 C 
ATOM      7  C   LIG    1        7.140  -0.331  -1.652  0.00  0.00    +0.270 C 
ATOM      8  C   LIG    1        5.758   0.004  -1.141  0.00  0.00    -0.010 A 
ATOM      9  N   LIG    1        4.626  -0.013  -1.779  0.00  0.00    -0.260 NA
ATOM     10  N   LIG    1        3.615   0.380  -0.887  0.00  0.00    -0.360 N 
ATOM     11  C   LIG    1        4.196   0.640   0.317  0.00  0.00    +0.210 A 
ATOM     12  C   LIG    1        5.516   0.407   0.187  0.00  0.00    -0.020 A 
ATOM     13  C   LIG    1        8.831   0.296   1.754  0.00  0.00    +0.060 C 
ATOM     14  O   LIG    1        6.510   0.520   1.116  0.00  0.00    -0.280 OA
ATOM     15  C   LIG    1        8.401  -0.057   3.181  0.00  0.00    +0.280 C 
ATOM     16  O   LIG    1        8.308  -3.451   4.243  0.00  0.00    -0.540 OA
ENDROOT
BRANCH  10  17
ATOM     17  C   LIG    1        2.188   0.497  -1.199  0.00  0.00    +0.270 C 
ATOM     18  C   LIG    1        1.530   1.591  -0.322  0.00  0.00    +0.030 C 
ATOM     19  C   LIG    1        0.038   1.173  -0.318  0.00  0.00    +0.030 C 
ATOM     20  C   LIG    1        0.077  -0.367  -0.251  0.00  0.00    +0.020 C 
ATOM     21  C   LIG    1        1.444  -0.798  -0.811  0.00  0.00    +0.010 C 
ENDBRANCH  10  17
BRANCH   1  22
ATOM     22  C   LIG    1        9.738  -1.753   5.045  0.00  0.00    -0.060 C 
ATOM     23  C   LIG    1       10.327  -2.894   5.876  0.00  0.00    +0.070 C 
ATOM     24  C   LIG    1        9.146  -0.695   5.978  0.00  0.00    +0.060 C 
BRANCH  22  26
ATOM     25  C   LIG    1       11.221   0.093   4.451  0.00  0.00    +0.030 C 
ATOM     26  C   LIG    1       10.824  -1.131   4.205  0.00  0.00    -0.030 C 
ENDBRANCH  22  26
ENDBRANCH   1  22
BRANCH   7  27
ATOM     27  O   LIG    1        7.339   0.260  -2.938  0.00  0.00    -0.550 OA
ATOM     28  H   LIG    1        6.710  -0.039  -3.609  0.00  0.00    +0.390 HD
ENDBRANCH   7  27
TORSDOF 4
