REMARK  Name = ZINCrH000004syL5.0
REMARK                            x       y       z     vdW  Elec       q    Type
REMARK                         _______ _______ _______ _____ _____    ______ ____
ROOT
ATOM      1  N   LIG    1       -1.202  -0.718   0.010  0.00  0.00    -0.670 N 
ATOM      2  H   LIG    1       -2.046  -0.245   0.088  0.00  0.00    +0.410 HD
ATOM      3  C   LIG    1       -1.191  -2.061  -0.099  0.00  0.00    +0.570 C 
ATOM      4  O   LIG    1       -0.133  -2.661  -0.113  0.00  0.00    -0.520 OA
ENDROOT
BRANCH   1  10
ATOM      5  C   LIG    1        3.694   4.576  -1.170  0.00  0.00    +0.230 C 
ATOM      6  C   LIG    1        2.904   3.349  -0.795  0.00  0.00    +0.250 A 
ATOM      7  N   LIG    1        1.648   3.162  -1.069  0.00  0.00    -0.480 NA
ATOM      8  C   LIG    1        1.268   1.949  -0.583  0.00  0.00    +0.040 A 
ATOM      9  C   LIG    1        0.065   1.242  -0.585  0.00  0.00    +0.050 A 
ATOM     10  C   LIG    1        0.003  -0.005   0.010  0.00  0.00    +0.150 A 
ATOM     11  C   LIG    1        1.133  -0.554   0.611  0.00  0.00    +0.070 A 
ATOM     12  C   LIG    1        2.325   0.139   0.618  0.00  0.00    +0.070 A 
ATOM     13  C   LIG    1        2.403   1.389   0.024  0.00  0.00    -0.000 A 
ATOM     14  O   LIG    1        3.397   2.292  -0.131  0.00  0.00    -0.210 OA
ENDBRANCH   1  10
BRANCH   3  15
ATOM     15  C   LIG    1       -2.461  -2.804  -0.202  0.00  0.00    -0.180 A 
ATOM     16  C   LIG    1       -3.678  -2.118  -0.181  0.00  0.00    +0.090 A 
ATOM     17  C   LIG    1       -4.862  -2.814  -0.284  0.00  0.00    -0.080 A 
ATOM     18  C   LIG    1       -4.847  -4.200  -0.396  0.00  0.00    +0.160 A 
ATOM     19  C   LIG    1       -3.639  -4.887  -0.411  0.00  0.00    -0.020 A 
ATOM     20  C   LIG    1       -2.451  -4.197  -0.316  0.00  0.00    +0.140 A 
BRANCH  18  21
ATOM     21  O   LIG    1       -6.016  -4.883  -0.490  0.00  0.00    -0.300 OA
BRANCH  21  22
ATOM     22  C   LIG    1       -7.220  -4.115  -0.468  0.00  0.00    +0.330 C 
BRANCH  22  23
ATOM     23  C   LIG    1       -8.407  -5.037  -0.582  0.00  0.00    +0.190 A 
ATOM     24  N   LIG    1       -8.974  -5.412  -1.696  0.00  0.00    -0.460 NA
ATOM     25  C   LIG    1       -9.997  -6.234  -1.417  0.00  0.00    +0.150 A 
ATOM     26  C   LIG    1      -10.071  -6.367  -0.079  0.00  0.00    +0.140 A 
ATOM     27  N   LIG    1       -9.063  -5.608   0.451  0.00  0.00    -0.450 N 
ATOM     28  C   LIG    1       -8.753  -5.444   1.874  0.00  0.00    +0.330 C 
ENDBRANCH  22  23
ENDBRANCH  21  22
ENDBRANCH  18  21
ENDBRANCH   3  15
TORSDOF 5
