REMARK  Name = ZINCvU00000007xa.0
REMARK                            x       y       z     vdW  Elec       q    Type
REMARK                         _______ _______ _______ _____ _____    ______ ____
ROOT
ATOM      1  O   LIG    1       -2.623   5.027  -0.282  0.00  0.00    -0.490 OA
ATOM      2  C   LIG    1       -2.559   3.813  -0.257  0.00  0.00    +0.520 C 
ENDROOT
BRANCH   2   3
ATOM      3  C   LIG    1       -1.248   3.146  -0.179  0.00  0.00    -0.140 A 
ATOM      4  C   LIG    1       -0.094   3.914  -0.136  0.00  0.00    +0.190 A 
ATOM      5  C   LIG    1        1.144   3.278  -0.062  0.00  0.00    -0.190 A 
ATOM      6  C   LIG    1        2.491   3.645  -0.002  0.00  0.00    +0.080 A 
ATOM      7  O   LIG    1        3.180   2.494   0.053  0.00  0.00    +0.150 OA
ATOM      8  N   LIG    1        2.478   1.509   0.037  0.00  0.00    -0.360 NA
ATOM      9  C   LIG    1        1.201   1.800  -0.032  0.00  0.00    +0.060 A 
ATOM     10  C   LIG    1       -0.011   1.075  -0.079  0.00  0.00    +0.060 A 
ATOM     11  C   LIG    1       -1.188   1.736  -0.156  0.00  0.00    +0.100 A 
BRANCH   6  12
ATOM     12  C   LIG    1        3.040   5.012  -0.001  0.00  0.00    -0.040 A 
ATOM     13  C   LIG    1        2.577   5.957  -0.922  0.00  0.00    +0.050 A 
ATOM     14  C   LIG    1        3.093   7.236  -0.911  0.00  0.00    +0.010 A 
ATOM     15  C   LIG    1        4.074   7.582   0.001  0.00  0.00    +0.040 A 
ATOM     16  C   LIG    1        4.542   6.651   0.913  0.00  0.00    +0.010 A 
ATOM     17  C   LIG    1        4.032   5.370   0.918  0.00  0.00    +0.050 A 
ENDBRANCH   6  12
ENDBRANCH   2   3
BRANCH   2  18
ATOM     18  O   LIG    1       -3.688   3.078  -0.299  0.00  0.00    -0.350 OA
BRANCH  18  19
ATOM     19  C   LIG    1       -4.944   3.802  -0.375  0.00  0.00    +0.420 C 
BRANCH  19  20
ATOM     20  C   LIG    1       -6.088   2.822  -0.414  0.00  0.00    +0.180 A 
ATOM     21  N   LIG    1       -6.727   2.331   0.618  0.00  0.00    -0.440 NA
ATOM     22  C   LIG    1       -7.665   1.504   0.105  0.00  0.00    +0.210 A 
ATOM     23  N   LIG    1       -7.537   1.534  -1.196  0.00  0.00    -0.360 NA
ATOM     24  O   LIG    1       -6.637   2.285  -1.508  0.00  0.00    +0.100 OA
BRANCH  22  25
ATOM     25  C   LIG    1       -8.652   0.706   0.874  0.00  0.00    -0.010 A 
ATOM     26  C   LIG    1       -9.561  -0.113   0.207  0.00  0.00    +0.060 A 
ATOM     27  C   LIG    1      -10.477  -0.854   0.927  0.00  0.00    +0.030 A 
ATOM     28  C   LIG    1      -10.495  -0.784   2.308  0.00  0.00    +0.050 A 
ATOM     29  C   LIG    1       -9.594   0.027   2.976  0.00  0.00    -0.040 A 
ATOM     30 CL   LIG    1       -9.621   0.108   4.710  0.00  0.00    -0.060 Cl
ATOM     31  C   LIG    1       -8.670   0.768   2.266  0.00  0.00    +0.080 A 
ENDBRANCH  22  25
ENDBRANCH  19  20
ENDBRANCH  18  19
ENDBRANCH   2  18
TORSDOF 6
