REMARK  Name = ZINCbu0000001N7b.0
REMARK                            x       y       z     vdW  Elec       q    Type
REMARK                         _______ _______ _______ _____ _____    ______ ____
ROOT
ATOM      1  C   LIG    1        0.009   1.075   2.506  0.00  0.00    +0.090 C 
ATOM      2  C   LIG    1       -0.731   1.580   1.266  0.00  0.00    +0.170 C 
ATOM      3  C   LIG    1       -0.013   1.086   0.008  0.00  0.00    +0.060 C 
ATOM      4  C   LIG    1       -0.755   1.594  -1.231  0.00  0.00    +0.000 C 
ATOM      5  C   LIG    1       -2.211   1.122  -1.172  0.00  0.00    +0.050 C 
ATOM      6  C   LIG    1       -2.848   1.615   0.129  0.00  0.00    +0.250 C 
ATOM      7  N   LIG    1       -2.109   1.074   1.276  0.00  0.00    -0.500 N 
ATOM      8  H   LIG    1       -2.096   0.066   1.221  0.00  0.00    +0.430 HD
ATOM      9  H   LIG    1       -2.564   1.357   2.131  0.00  0.00    +0.430 HD
ENDROOT
BRANCH   4  10
ATOM     10  C   LIG    1       -0.088   1.038  -2.491  0.00  0.00    -0.060 C 
ATOM     11  C   LIG    1        1.369   1.503  -2.544  0.00  0.00    +0.030 C 
ATOM     12  C   LIG    1       -0.831   1.547  -3.728  0.00  0.00    +0.030 C 
ATOM     13  C   LIG    1       -0.135  -0.491  -2.461  0.00  0.00    +0.040 C 
ENDBRANCH   4  10
TORSDOF 1
