REMARK  Name = ZINCqH0000038Gzu.0
REMARK                            x       y       z     vdW  Elec       q    Type
REMARK                         _______ _______ _______ _____ _____    ______ ____
ROOT
ATOM      1  C   LIG    1        0.006   1.248   0.096  0.00  0.00    +0.580 C 
ATOM      2  N   LIG    1        1.122   1.988  -0.050  0.00  0.00    -0.590 N 
ATOM      3  C   LIG    1        0.983   3.424  -0.362  0.00  0.00    +0.260 C 
ATOM      4  C   LIG    1        1.990   3.891  -1.424  0.00  0.00    +0.020 C 
ATOM      5  C   LIG    1        2.118   2.849  -2.507  0.00  0.00    +0.030 C 
ATOM      6  C   LIG    1        3.258   1.897  -2.161  0.00  0.00    +0.040 C 
ATOM      7  C   LIG    1        2.875   0.791  -1.269  0.00  0.00    +0.020 C 
ATOM      8  C   LIG    1        2.407   1.343   0.100  0.00  0.00    +0.290 C 
ATOM      9  O   LIG    1        0.091   0.046   0.258  0.00  0.00    -0.510 OA
ENDROOT
BRANCH   1  20
ATOM     10  C   LIG    1       -1.612   1.078  -2.326  0.00  0.00    +0.160 C 
ATOM     11  C   LIG    1       -2.117   1.821  -1.116  0.00  0.00    +0.240 A 
ATOM     12  N   LIG    1       -3.294   2.393  -1.144  0.00  0.00    -0.470 NA
ATOM     13  C   LIG    1       -3.764   3.065  -0.083  0.00  0.00    +0.270 A 
ATOM     14  C   LIG    1       -4.950   3.750   0.136  0.00  0.00    -0.090 A 
ATOM     15  C   LIG    1       -4.910   4.261   1.426  0.00  0.00    +0.300 A 
ATOM     16  N   LIG    1       -3.772   3.921   1.985  0.00  0.00    -0.310 NA
ATOM     17  N   LIG    1       -3.026   3.169   1.069  0.00  0.00    -0.320 N 
ATOM     18  C   LIG    1       -1.800   2.585   1.146  0.00  0.00    +0.240 A 
ATOM     19  C   LIG    1       -0.978   2.692   2.405  0.00  0.00    +0.170 C 
ATOM     20  C   LIG    1       -1.320   1.894   0.051  0.00  0.00    -0.240 A 
ENDBRANCH   1  20
BRANCH   6  21
ATOM     21  C   LIG    1        3.799   1.313  -3.441  0.00  0.00    -0.080 A 
ATOM     22  C   LIG    1        3.002   0.493  -4.218  0.00  0.00    +0.010 A 
ATOM     23  C   LIG    1        3.497  -0.038  -5.394  0.00  0.00    +0.000 A 
ATOM     24  C   LIG    1        4.792   0.242  -5.788  0.00  0.00    +0.000 A 
ATOM     25  C   LIG    1        5.590   1.058  -5.009  0.00  0.00    +0.000 A 
ATOM     26  C   LIG    1        5.094   1.593  -3.835  0.00  0.00    +0.000 A 
ENDBRANCH   6  21
TORSDOF 2
