REMARK  Name = ZINCqH0000033mTM.0
REMARK                            x       y       z     vdW  Elec       q    Type
REMARK                         _______ _______ _______ _____ _____    ______ ____
ROOT
ATOM      1  C   LIG    1        1.178  -1.814   0.230  0.00  0.00    +0.330 C 
ENDROOT
BRANCH   1   4
ATOM      2  N   LIG    1        2.083   1.857  -0.025  0.00  0.00    -0.480 N 
ATOM      3  C   LIG    1        2.232   0.412  -0.237  0.00  0.00    +0.220 C 
ATOM      4  C   LIG    1        1.017  -0.299   0.373  0.00  0.00    +0.100 C 
ATOM      5  O   LIG    1       -0.148   0.133  -0.338  0.00  0.00    -0.280 OA
ATOM      6  C   LIG    1       -0.259   1.469  -0.576  0.00  0.00    +0.090 A 
ATOM      7  C   LIG    1       -1.486   1.976  -0.978  0.00  0.00    -0.010 A 
ATOM      8  C   LIG    1       -1.633   3.328  -1.225  0.00  0.00    +0.040 A 
ATOM      9  C   LIG    1       -0.553   4.178  -1.082  0.00  0.00    -0.020 A 
ATOM     10  C   LIG    1        0.673   3.681  -0.686  0.00  0.00    +0.050 A 
ATOM     11  C   LIG    1        0.828   2.323  -0.429  0.00  0.00    +0.020 A 
BRANCH   2  13
ATOM     12  C   LIG    1        1.950   3.670   1.616  0.00  0.00    +0.040 C 
ATOM     13  C   LIG    1        2.352   2.213   1.375  0.00  0.00    +0.170 C 
ENDBRANCH   2  13
ENDBRANCH   1   4
BRANCH   1  14
ATOM     14  N   LIG    1       -0.002  -2.485   0.781  0.00  0.00    -0.610 N 
ATOM     15  C   LIG    1       -1.059  -2.749  -0.013  0.00  0.00    +0.570 C 
ATOM     16  O   LIG    1       -1.067  -2.359  -1.164  0.00  0.00    -0.490 OA
ATOM     17  C   LIG    1       -0.034  -2.868   2.195  0.00  0.00    +0.290 C 
BRANCH  15  18
ATOM     18  C   LIG    1       -2.205  -3.513   0.516  0.00  0.00    -0.150 A 
ATOM     19  C   LIG    1       -2.769  -3.172   1.747  0.00  0.00    +0.110 A 
ATOM     20  C   LIG    1       -3.841  -3.890   2.235  0.00  0.00    -0.080 A 
ATOM     21  C   LIG    1       -4.361  -4.949   1.508  0.00  0.00    +0.090 A 
ATOM     22  C   LIG    1       -3.812  -5.297   0.289  0.00  0.00    -0.050 A 
ATOM     23 CL   LIG    1       -4.542  -3.465   3.765  0.00  0.00    -0.060 Cl
ATOM     24  C   LIG    1       -2.738  -4.582  -0.218  0.00  0.00    +0.180 A 
BRANCH  24  25
ATOM     25  O   LIG    1       -2.201  -4.919  -1.418  0.00  0.00    -0.290 OA
ATOM     26  C   LIG    1       -2.797  -6.019  -2.109  0.00  0.00    +0.250 C 
ENDBRANCH  24  25
ENDBRANCH  15  18
ENDBRANCH   1  14
TORSDOF 5
