REMARK  Name = ZINCpk00000kfvSE.0
REMARK                            x       y       z     vdW  Elec       q    Type
REMARK                         _______ _______ _______ _____ _____    ______ ____
ROOT
ATOM      1  N   LIG    1        1.512   3.094   2.191  0.00  0.00    -0.720 N 
ATOM      2  H   LIG    1        2.036   2.320   2.451  0.00  0.00    +0.400 HD
ATOM      3  C   LIG    1        1.048   3.941   3.131  0.00  0.00    +0.710 C 
ATOM      4  N   LIG    1        1.312   3.713   4.433  0.00  0.00    -0.650 N 
ATOM      5  H   LIG    1        1.837   2.939   4.693  0.00  0.00    +0.410 HD
ATOM      6  O   LIG    1        0.391   4.910   2.805  0.00  0.00    -0.570 OA
ENDROOT
BRANCH   1  13
ATOM      7  C   LIG    1        1.280   2.024   0.001  0.00  0.00    +0.180 C 
ATOM      8  C   LIG    1        1.725   2.226  -1.456  0.00  0.00    -0.320 C 
ATOM      9  S   LIG    1        2.076   4.018  -1.611  0.00  0.00    +2.400 S 
ATOM     10  C   LIG    1        2.286   4.308   0.193  0.00  0.00    -0.310 C 
ATOM     11  O   LIG    1        0.914   4.693  -2.074  0.00  0.00    -0.920 OA
ATOM     12  O   LIG    1        3.320   4.205  -2.272  0.00  0.00    -0.930 OA
ATOM     13  C   LIG    1        1.224   3.341   0.775  0.00  0.00    +0.300 C 
BRANCH   7  15
ATOM     14  C   LIG    1        0.002  -0.004   0.002  0.00  0.00    +0.220 C 
ATOM     15  O   LIG    1       -0.017   1.425   0.010  0.00  0.00    -0.370 OA
ENDBRANCH   7  15
ENDBRANCH   1  13
BRANCH   4  16
ATOM     16  C   LIG    1        0.828   4.598   5.415  0.00  0.00    +0.040 A 
ATOM     17  C   LIG    1        0.091   5.715   5.191  0.00  0.00    +0.260 A 
ATOM     18  N   LIG    1       -0.174   6.281   6.397  0.00  0.00    -0.350 N 
ATOM     19  N   LIG    1        0.427   5.490   7.384  0.00  0.00    -0.230 NA
ATOM     20  C   LIG    1        1.026   4.484   6.799  0.00  0.00    -0.030 A 
BRANCH  20  21
ATOM     21  C   LIG    1        1.796   3.390   7.493  0.00  0.00    +0.490 C 
ATOM     22  F   LIG    1        1.704   2.210   6.747  0.00  0.00    -0.190 F 
ATOM     23  F   LIG    1        1.260   3.179   8.768  0.00  0.00    -0.190 F 
ENDBRANCH  20  21
BRANCH  18  24
ATOM     24  C   LIG    1       -0.945   7.505   6.625  0.00  0.00    +0.330 C 
BRANCH  24  25
ATOM     25  C   LIG    1       -2.082   7.216   7.608  0.00  0.00    -0.030 C 
ATOM     26  C   LIG    1       -2.962   8.460   7.750  0.00  0.00    +0.030 C 
ATOM     27  C   LIG    1       -1.495   6.848   8.972  0.00  0.00    +0.020 C 
ENDBRANCH  24  25
ENDBRANCH  18  24
ENDBRANCH   4  16
TORSDOF 6
