REMARK  Name = ZINCpe00000gNb7z.0
REMARK                            x       y       z     vdW  Elec       q    Type
REMARK                         _______ _______ _______ _____ _____    ______ ____
ROOT
ATOM      1  C   LIG    1        1.402  -2.326   2.608  0.00  0.00    -0.220 A 
ATOM      2  C   LIG    1        1.509  -3.702   2.827  0.00  0.00    +0.230 A 
ATOM      3  C   LIG    1        0.972  -4.587   1.917  0.00  0.00    -0.120 A 
ATOM      4  C   LIG    1        0.325  -4.119   0.784  0.00  0.00    +0.190 A 
ATOM      5  C   LIG    1        0.207  -2.763   0.556  0.00  0.00    -0.050 A 
ATOM      6  C   LIG    1        0.747  -1.856   1.459  0.00  0.00    +0.320 A 
ENDROOT
BRANCH   3   7
ATOM      7  N   LIG    1        1.086  -6.044   2.151  0.00  0.00    +0.040 N 
ATOM      8  O   LIG    1        0.613  -6.828   1.349  0.00  0.00    -0.170 OA
ATOM      9  O   LIG    1        1.654  -6.458   3.146  0.00  0.00    -0.170 OA
ENDBRANCH   3   7
BRANCH   1  10
ATOM     10  C   LIG    1        1.974  -1.375   3.577  0.00  0.00    +0.530 C 
ATOM     11  O   LIG    1        1.789  -0.182   3.438  0.00  0.00    -0.510 OA
BRANCH  10  12
ATOM     12  O   LIG    1        2.702  -1.828   4.616  0.00  0.00    -0.320 OA
BRANCH  12  13
ATOM     13  C   LIG    1        3.234  -0.834   5.531  0.00  0.00    +0.270 C 
BRANCH  13  15
ATOM     14  O   LIG    1        4.112  -2.730   6.627  0.00  0.00    -0.500 OA
ATOM     15  C   LIG    1        4.014  -1.521   6.622  0.00  0.00    +0.520 C 
ATOM     16  N   LIG    1        4.603  -0.793   7.591  0.00  0.00    -0.730 N 
ATOM     17  H   LIG    1        4.525   0.174   7.586  0.00  0.00    +0.410 HD
BRANCH  16  18
ATOM     18  C   LIG    1        5.362  -1.461   8.651  0.00  0.00    +0.320 C 
BRANCH  18  19
ATOM     19  C   LIG    1        5.923  -0.414   9.615  0.00  0.00    +0.450 C 
ATOM     20  F   LIG    1        6.765   0.458   8.917  0.00  0.00    -0.180 F 
ATOM     21  F   LIG    1        6.647  -1.052  10.627  0.00  0.00    -0.170 F 
ATOM     22  F   LIG    1        4.868   0.310  10.182  0.00  0.00    -0.180 F 
ENDBRANCH  18  19
ENDBRANCH  16  18
ENDBRANCH  13  15
ENDBRANCH  12  13
ENDBRANCH  10  12
ENDBRANCH   1  10
BRANCH   6  23
ATOM     23  N   LIG    1        0.633  -0.491   1.229  0.00  0.00    -0.690 N 
ATOM     24  H   LIG    1        0.935   0.140   1.900  0.00  0.00    +0.430 HD
BRANCH  23  25
ATOM     25  C   LIG    1        0.056  -0.005  -0.027  0.00  0.00    +0.270 C 
BRANCH  25  26
ATOM     26  C   LIG    1        0.047   1.524  -0.026  0.00  0.00    +0.190 C 
BRANCH  26  27
ATOM     27  O   LIG    1        1.391   2.009  -0.015  0.00  0.00    -0.570 OA
ATOM     28  H   LIG    1        1.462   2.973  -0.014  0.00  0.00    +0.390 HD
ENDBRANCH  26  27
ENDBRANCH  25  26
ENDBRANCH  23  25
ENDBRANCH   6  23
TORSDOF 11
