REMARK  Name = ZINCvU0000000BNm.0
REMARK                            x       y       z     vdW  Elec       q    Type
REMARK                         _______ _______ _______ _____ _____    ______ ____
ROOT
ATOM      1  C   LIG    1        5.388   0.656  -1.573  0.00  0.00    +0.190 A 
ATOM      2  C   LIG    1        6.223   0.669  -0.495  0.00  0.00    -0.080 A 
ATOM      3  C   LIG    1        7.615   0.699  -0.684  0.00  0.00    +0.010 A 
ATOM      4  C   LIG    1        8.495   0.711   0.411  0.00  0.00    +0.000 A 
ATOM      5  C   LIG    1        9.839   0.740   0.198  0.00  0.00    +0.040 A 
ATOM      6  C   LIG    1       10.360   0.757  -1.094  0.00  0.00    +0.000 A 
ATOM      7  C   LIG    1        9.540   0.746  -2.181  0.00  0.00    +0.040 A 
ATOM      8  C   LIG    1        8.146   0.716  -2.000  0.00  0.00    -0.090 A 
ATOM      9  C   LIG    1        7.275   0.703  -3.099  0.00  0.00    +0.120 A 
ATOM     10  C   LIG    1        5.907   0.667  -2.885  0.00  0.00    -0.150 A 
ENDROOT
BRANCH  10  11
ATOM     11  C   LIG    1        4.985   0.647  -4.037  0.00  0.00    +0.560 C 
ATOM     12  N   LIG    1        5.475   0.657  -5.293  0.00  0.00    -0.670 N 
ATOM     13  H   LIG    1        6.429   0.746  -5.440  0.00  0.00    +0.410 HD
ATOM     14  O   LIG    1        3.783   0.621  -3.854  0.00  0.00    -0.490 OA
BRANCH  12  15
ATOM     15  C   LIG    1        4.606   0.540  -6.385  0.00  0.00    +0.160 A 
ATOM     16  C   LIG    1        5.010  -0.144  -7.523  0.00  0.00    +0.010 A 
ATOM     17  C   LIG    1        4.152  -0.265  -8.600  0.00  0.00    +0.060 A 
ATOM     18  C   LIG    1        2.890   0.306  -8.550  0.00  0.00    +0.020 A 
ATOM     19  O   LIG    1        1.874   0.334  -9.463  0.00  0.00    -0.310 OA
ATOM     20  C   LIG    1        1.001   1.395  -9.033  0.00  0.00    +0.430 C 
ATOM     21  O   LIG    1        1.215   1.459  -7.611  0.00  0.00    -0.310 OA
ATOM     22  C   LIG    1        2.484   0.998  -7.411  0.00  0.00    +0.050 A 
ATOM     23  C   LIG    1        3.342   1.114  -6.331  0.00  0.00    +0.050 A 
ENDBRANCH  12  15
ENDBRANCH  10  11
BRANCH   1  24
ATOM     24  O   LIG    1        4.045   0.627  -1.381  0.00  0.00    -0.280 OA
BRANCH  24  25
ATOM     25  C   LIG    1        3.582   0.612  -0.029  0.00  0.00    +0.300 C 
BRANCH  25  32
ATOM     26  C   LIG    1        1.547   3.138   0.001  0.00  0.00    +0.160 C 
ATOM     27  C   LIG    1        1.182   1.676  -0.001  0.00  0.00    +0.040 A 
ATOM     28  N   LIG    1       -0.018   1.171   0.009  0.00  0.00    -0.360 NA
ATOM     29  O   LIG    1        0.008  -0.038   0.003  0.00  0.00    +0.100 OA
ATOM     30  C   LIG    1        1.264  -0.504  -0.011  0.00  0.00    +0.010 A 
ATOM     31  C   LIG    1        1.690  -1.950  -0.020  0.00  0.00    +0.200 C 
ATOM     32  C   LIG    1        2.076   0.580  -0.014  0.00  0.00    -0.220 A 
ENDBRANCH  25  32
ENDBRANCH  24  25
ENDBRANCH   1  24
TORSDOF 5
