REMARK  Name = ZINCkj000005iaPx.1
REMARK                            x       y       z     vdW  Elec       q    Type
REMARK                         _______ _______ _______ _____ _____    ______ ____
ROOT
ATOM      1  N   LIG    1       -0.835   1.624   1.268  0.00  0.00    -0.380 N 
ATOM      2  C   LIG    1       -0.144   1.142   0.059  0.00  0.00    +0.260 C 
ATOM      3  C   LIG    1       -0.671   1.707  -1.180  0.00  0.00    +0.050 C 
ATOM      4  C   LIG    1       -0.495   3.244  -1.210  0.00  0.00    +0.040 C 
ATOM      5  C   LIG    1       -1.514   3.878  -0.300  0.00  0.00    +0.030 C 
ATOM      6  C   LIG    1       -1.004   4.078   1.140  0.00  0.00    +0.070 C 
ATOM      7  C   LIG    1       -0.210   2.868   1.662  0.00  0.00    +0.170 C 
ATOM      8  H   LIG    1       -1.811   1.778   1.066  0.00  0.00    +0.430 HD
ENDROOT
BRANCH   1   9
ATOM      9  C   LIG    1       -0.699   0.636   2.347  0.00  0.00    +0.450 C 
BRANCH   9  13
ATOM     10  C   LIG    1       -1.881  -2.549   1.187  0.00  0.00    +0.190 A 
ATOM     11  N   LIG    1       -2.936  -2.040   1.750  0.00  0.00    -0.340 NA
ATOM     12  O   LIG    1       -2.685  -0.941   2.198  0.00  0.00    +0.120 OA
ATOM     13  C   LIG    1       -1.407  -0.635   1.956  0.00  0.00    +0.100 A 
ATOM     14  N   LIG    1       -0.888  -1.651   1.309  0.00  0.00    -0.430 NA
BRANCH  10  15
ATOM     15  C   LIG    1       -1.789  -3.896   0.517  0.00  0.00    +0.190 C 
BRANCH  15  16
ATOM     16  C   LIG    1       -2.140  -3.752  -0.965  0.00  0.00    +0.170 C 
BRANCH  16  18
ATOM     17  C   LIG    1       -2.362  -5.007  -2.996  0.00  0.00    +0.220 C 
ATOM     18  O   LIG    1       -2.053  -5.029  -1.601  0.00  0.00    -0.380 OA
ENDBRANCH  16  18
ENDBRANCH  15  16
ENDBRANCH  10  15
ENDBRANCH   9  13
ENDBRANCH   1   9
BRANCH   7  19
ATOM     19  C   LIG    1       -0.141   2.934   3.189  0.00  0.00    +0.040 C 
BRANCH  19  20
ATOM     20  C   LIG    1        0.595   4.207   3.611  0.00  0.00    +0.200 C 
BRANCH  20  21
ATOM     21  O   LIG    1        0.765   4.211   5.030  0.00  0.00    -0.570 OA
ATOM     22  H   LIG    1        1.225   4.990   5.369  0.00  0.00    +0.400 HD
ENDBRANCH  20  21
ENDBRANCH  19  20
ENDBRANCH   7  19
TORSDOF 8
