REMARK  Name = ZINCkj000005iaPx.2
REMARK                            x       y       z     vdW  Elec       q    Type
REMARK                         _______ _______ _______ _____ _____    ______ ____
ROOT
ATOM      1  N   LIG    1        1.699  -2.938  -6.500  0.00  0.00    -0.380 N 
ATOM      2  C   LIG    1        2.991  -2.369  -6.201  0.00  0.00    +0.240 C 
ATOM      3  C   LIG    1        2.888  -0.845  -6.377  0.00  0.00    +0.050 C 
ATOM      4  C   LIG    1        3.057  -0.415  -7.759  0.00  0.00    +0.030 C 
ATOM      5  C   LIG    1        1.956  -1.018  -8.667  0.00  0.00    +0.030 C 
ATOM      6  C   LIG    1        2.271  -2.469  -8.915  0.00  0.00    +0.060 C 
ATOM      7  C   LIG    1        1.619  -3.421  -7.895  0.00  0.00    +0.170 C 
ATOM      8  H   LIG    1        0.990  -2.234  -6.355  0.00  0.00    +0.430 HD
ENDROOT
BRANCH   1   9
ATOM      9  C   LIG    1        1.449  -4.063  -5.590  0.00  0.00    +0.450 C 
BRANCH   9  13
ATOM     10  C   LIG    1        0.688  -2.789  -2.320  0.00  0.00    +0.190 A 
ATOM     11  N   LIG    1        1.971  -2.989  -2.257  0.00  0.00    -0.340 NA
ATOM     12  O   LIG    1        2.379  -3.428  -3.312  0.00  0.00    +0.110 OA
ATOM     13  C   LIG    1        1.366  -3.554  -4.173  0.00  0.00    +0.100 A 
ATOM     14  N   LIG    1        0.284  -3.154  -3.550  0.00  0.00    -0.420 NA
BRANCH  10  15
ATOM     15  C   LIG    1       -0.186  -2.253  -1.216  0.00  0.00    +0.190 C 
BRANCH  15  16
ATOM     16  C   LIG    1       -0.250  -0.728  -1.311  0.00  0.00    +0.170 C 
BRANCH  16  18
ATOM     17  C   LIG    1       -1.206   1.204  -0.263  0.00  0.00    +0.220 C 
ATOM     18  O   LIG    1       -1.079  -0.219  -0.264  0.00  0.00    -0.380 OA
ENDBRANCH  16  18
ENDBRANCH  15  16
ENDBRANCH  10  15
ENDBRANCH   9  13
ENDBRANCH   1   9
BRANCH   7  19
ATOM     19  C   LIG    1        2.313  -4.782  -7.983  0.00  0.00    +0.040 C 
BRANCH  19  20
ATOM     20  C   LIG    1        2.185  -5.329  -9.406  0.00  0.00    +0.200 C 
BRANCH  20  21
ATOM     21  O   LIG    1        2.725  -6.651  -9.458  0.00  0.00    -0.570 OA
ATOM     22  H   LIG    1        2.677  -7.061 -10.333  0.00  0.00    +0.400 HD
ENDBRANCH  20  21
ENDBRANCH  19  20
ENDBRANCH   7  19
TORSDOF 8
