REMARK  Name = ZINCpe000027pHjL.0
REMARK                            x       y       z     vdW  Elec       q    Type
REMARK                         _______ _______ _______ _____ _____    ______ ____
ROOT
ATOM      1  C   LIG    1       -0.121   7.531  -1.307  0.00  0.00    +0.140 C 
ATOM      2  C   LIG    1       -1.480   7.450  -0.580  0.00  0.00    +0.100 C 
ATOM      3  C   LIG    1       -1.574   5.998  -0.066  0.00  0.00    +0.120 C 
ATOM      4  N   LIG    1       -0.163   5.543   0.033  0.00  0.00    -0.430 N 
ATOM      5  C   LIG    1        0.491   6.120  -1.170  0.00  0.00    +0.200 C 
ENDROOT
BRANCH   4   6
ATOM      6  C   LIG    1       -0.085   4.153   0.024  0.00  0.00    +0.080 A 
ATOM      7  C   LIG    1        1.155   3.517   0.009  0.00  0.00    +0.060 A 
ATOM      8  C   LIG    1        1.186   2.135   0.002  0.00  0.00    +0.060 A 
ATOM      9  C   LIG    1       -0.017   1.428   0.010  0.00  0.00    +0.160 A 
ATOM     10  N   LIG    1       -1.181   2.070   0.019  0.00  0.00    -0.420 NA
ATOM     11  C   LIG    1       -1.246   3.382   0.031  0.00  0.00    +0.220 A 
BRANCH   9  12
ATOM     12  C   LIG    1        0.002  -0.004   0.002  0.00  0.00    +0.270 C 
ATOM     13  N   LIG    1        0.018  -1.140  -0.004  0.00  0.00    -0.390 NA
ENDBRANCH   9  12
ENDBRANCH   4   6
BRANCH   3  14
ATOM     14  C   LIG    1       -2.234   5.962   1.289  0.00  0.00    +0.520 C 
ATOM     15  N   LIG    1       -3.578   5.967   1.384  0.00  0.00    -0.720 N 
ATOM     16  H   LIG    1       -4.121   5.994   0.581  0.00  0.00    +0.400 HD
ATOM     17  O   LIG    1       -1.555   5.928   2.293  0.00  0.00    -0.500 OA
BRANCH  15  18
ATOM     18  C   LIG    1       -4.219   5.932   2.701  0.00  0.00    +0.240 C 
ATOM     19  C   LIG    1       -4.843   4.569   3.046  0.00  0.00    +0.010 C 
ATOM     20  C   LIG    1       -6.018   5.353   3.659  0.00  0.00    -0.030 C 
ATOM     21  C   LIG    1       -5.822   5.696   5.137  0.00  0.00    +0.040 C 
ATOM     22  C   LIG    1       -5.647   6.502   2.706  0.00  0.00    +0.030 C 
ENDBRANCH  15  18
ENDBRANCH   3  14
BRANCH   1  23
ATOM     23  O   LIG    1        0.720   8.500  -0.679  0.00  0.00    -0.540 OA
ATOM     24  H   LIG    1        1.604   8.563  -1.066  0.00  0.00    +0.390 HD
ENDBRANCH   1  23
BRANCH   1  25
ATOM     25  C   LIG    1       -0.328   7.880  -2.782  0.00  0.00    +0.170 C 
BRANCH  25  27
ATOM     26  C   LIG    1        0.834   8.077  -4.869  0.00  0.00    +0.210 C 
ATOM     27  O   LIG    1        0.917   7.770  -3.476  0.00  0.00    -0.390 OA
ENDBRANCH  25  27
ENDBRANCH   1  25
TORSDOF 7
