REMARK  Name = ZINCrH00000No4Km.0
REMARK                            x       y       z     vdW  Elec       q    Type
REMARK                         _______ _______ _______ _____ _____    ______ ____
ROOT
ATOM      1  C   LIG    1        3.659   1.996  -0.022  0.00  0.00    +0.150 A 
ATOM      2  C   LIG    1        2.473   1.286  -0.015  0.00  0.00    -0.020 A 
ATOM      3  C   LIG    1        1.253   1.967   0.001  0.00  0.00    -0.060 A 
ATOM      4  C   LIG    1        1.236   3.364   0.003  0.00  0.00    -0.080 A 
ATOM      5  C   LIG    1        2.425   4.069   0.001  0.00  0.00    +0.150 A 
ATOM      6  C   LIG    1        3.639   3.388  -0.014  0.00  0.00    +0.060 A 
ENDROOT
BRANCH   3   7
ATOM      7  C   LIG    1       -0.014   1.212   0.009  0.00  0.00    +0.580 C 
ATOM      8  N   LIG    1       -1.191   1.870   0.018  0.00  0.00    -0.580 N 
ATOM      9  H   LIG    1       -1.204   2.840   0.023  0.00  0.00    +0.380 HD
ATOM     10  O   LIG    1        0.002  -0.004   0.002  0.00  0.00    -0.480 OA
BRANCH   8  11
ATOM     11  N   LIG    1       -2.394   1.153   0.020  0.00  0.00    -0.210 NA
ATOM     12  C   LIG    1       -3.527   1.787   0.029  0.00  0.00    +0.230 C 
BRANCH  12  13
ATOM     13  C   LIG    1       -4.794   1.032   0.030  0.00  0.00    -0.090 A 
ATOM     14  C   LIG    1       -6.015   1.710   0.040  0.00  0.00    +0.080 A 
ATOM     15  C   LIG    1       -7.196   0.998   0.041  0.00  0.00    +0.000 A 
ATOM     16  C   LIG    1       -7.175  -0.385   0.034  0.00  0.00    +0.070 A 
ATOM     17  C   LIG    1       -5.971  -1.066   0.025  0.00  0.00    -0.020 A 
ATOM     18  C   LIG    1       -4.779  -0.367   0.017  0.00  0.00    +0.140 A 
ATOM     19  F   LIG    1       -3.603  -1.032   0.002  0.00  0.00    -0.110 F 
ENDBRANCH  12  13
ENDBRANCH   8  11
ENDBRANCH   3   7
BRANCH   1  20
ATOM     20  O   LIG    1        4.847   1.334  -0.037  0.00  0.00    -0.300 OA
BRANCH  20  22
ATOM     21  C   LIG    1        6.217  -0.657  -0.062  0.00  0.00    +0.070 C 
ATOM     22  C   LIG    1        4.794  -0.094  -0.045  0.00  0.00    +0.190 C 
ENDBRANCH  20  22
ENDBRANCH   1  20
BRANCH   5  23
ATOM     23  O   LIG    1        2.409   5.429   0.009  0.00  0.00    -0.300 OA
BRANCH  23  24
ATOM     24  C   LIG    1        1.128   6.062   0.024  0.00  0.00    +0.170 C 
ATOM     25  C   LIG    1        1.310   7.582   0.031  0.00  0.00    +0.070 C 
ENDBRANCH  23  24
ENDBRANCH   5  23
BRANCH   6  26
ATOM     26  O   LIG    1        4.807   4.084  -0.022  0.00  0.00    -0.310 OA
BRANCH  26  27
ATOM     27  C   LIG    1        5.351   4.423  -1.299  0.00  0.00    +0.160 C 
ATOM     28  C   LIG    1        6.657   5.198  -1.107  0.00  0.00    +0.060 C 
ENDBRANCH  26  27
ENDBRANCH   6  26
TORSDOF 9
