REMARK  Name = ZINCqH00000508Yc.0
REMARK                            x       y       z     vdW  Elec       q    Type
REMARK                         _______ _______ _______ _____ _____    ______ ____
ROOT
ATOM      1  N   LIG    1        2.316   1.492  -0.007  0.00  0.00    -0.740 N 
ATOM      2  H   LIG    1        3.150   1.988  -0.005  0.00  0.00    +0.390 HD
ATOM      3  C   LIG    1        1.140   2.151   0.003  0.00  0.00    +0.710 C 
ATOM      4  N   LIG    1        1.121   3.494   0.112  0.00  0.00    -0.630 N 
ATOM      5  C   LIG    1       -0.153   4.216   0.233  0.00  0.00    +0.300 C 
ATOM      6  C   LIG    1       -0.216   5.298  -0.844  0.00  0.00    +0.020 C 
ATOM      7  C   LIG    1        1.025   6.188  -0.743  0.00  0.00    +0.030 C 
ATOM      8  C   LIG    1        2.281   5.345  -0.976  0.00  0.00    +0.020 C 
ATOM      9  C   LIG    1        2.372   4.263   0.106  0.00  0.00    +0.260 C 
ATOM     10  O   LIG    1        0.097   1.533  -0.087  0.00  0.00    -0.590 OA
ENDROOT
BRANCH   7  11
ATOM     11  C   LIG    1        0.950   7.274  -1.785  0.00  0.00    -0.060 A 
ATOM     12  C   LIG    1        0.892   6.943  -3.126  0.00  0.00    +0.020 A 
ATOM     13  C   LIG    1        0.817   7.939  -4.082  0.00  0.00    +0.030 A 
ATOM     14  C   LIG    1        0.811   9.266  -3.699  0.00  0.00    +0.020 A 
ATOM     15  C   LIG    1        0.875   9.599  -2.357  0.00  0.00    -0.030 A 
ATOM     16 CL   LIG    1        0.868  11.266  -1.875  0.00  0.00    -0.070 Cl
ATOM     17  C   LIG    1        0.944   8.602  -1.400  0.00  0.00    +0.020 A 
ENDBRANCH   7  11
BRANCH   1  18
ATOM     18  C   LIG    1        2.336   0.027  -0.016  0.00  0.00    +0.360 C 
BRANCH  18  23
ATOM     19  C   LIG    1        7.790  -1.816  -0.111  0.00  0.00    +0.140 C 
ATOM     20  C   LIG    1        6.362  -1.334  -0.080  0.00  0.00    +0.180 A 
ATOM     21  C   LIG    1        5.717  -1.229   1.105  0.00  0.00    -0.090 A 
ATOM     22  C   LIG    1        4.389  -0.781   1.141  0.00  0.00    +0.050 A 
ATOM     23  C   LIG    1        3.763  -0.456  -0.026  0.00  0.00    -0.250 A 
ATOM     24  C   LIG    1        4.461  -0.582  -1.240  0.00  0.00    +0.530 A 
ATOM     25  O   LIG    1        3.911  -0.300  -2.292  0.00  0.00    -0.540 OA
ATOM     26  C   LIG    1        3.661  -0.661   2.455  0.00  0.00    +0.120 C 
ATOM     27  N   LIG    1        5.738  -1.010  -1.241  0.00  0.00    -0.610 N 
ATOM     28  H   LIG    1        6.215  -1.091  -2.081  0.00  0.00    +0.410 HD
ENDBRANCH  18  23
ENDBRANCH   1  18
TORSDOF 3
