REMARK  Name = ZINCqH0000035LvT.0
REMARK                            x       y       z     vdW  Elec       q    Type
REMARK                         _______ _______ _______ _____ _____    ______ ____
ROOT
ATOM      1  N   LIG    1        4.919   0.170  -0.144  0.00  0.00    -0.720 N 
ATOM      2  H   LIG    1        4.863   1.136  -0.211  0.00  0.00    +0.400 HD
ATOM      3  C   LIG    1        3.793  -0.565  -0.036  0.00  0.00    +0.560 C 
ATOM      4  O   LIG    1        3.863  -1.776   0.047  0.00  0.00    -0.530 OA
ENDROOT
BRANCH   3   5
ATOM      5  C   LIG    1        2.478   0.101  -0.020  0.00  0.00    -0.130 A 
ATOM      6  C   LIG    1        2.385   1.486   0.006  0.00  0.00    +0.060 A 
ATOM      7  C   LIG    1        1.144   2.111   0.019  0.00  0.00    +0.000 A 
ATOM      8  C   LIG    1       -0.017   1.401   0.010  0.00  0.00    +0.060 A 
ATOM      9  C   LIG    1        0.002  -0.004  -0.015  0.00  0.00    -0.060 A 
ATOM     10  C   LIG    1       -1.188  -0.751  -0.026  0.00  0.00    +0.020 A 
ATOM     11  C   LIG    1       -1.129  -2.111  -0.051  0.00  0.00    +0.010 A 
ATOM     12  C   LIG    1        0.094  -2.776  -0.066  0.00  0.00    +0.020 A 
ATOM     13  C   LIG    1        1.268  -2.083  -0.056  0.00  0.00    +0.050 A 
ATOM     14  C   LIG    1        1.245  -0.683  -0.031  0.00  0.00    -0.010 A 
ENDBRANCH   3   5
BRANCH   1  15
ATOM     15  C   LIG    1        6.226  -0.492  -0.161  0.00  0.00    +0.340 C 
BRANCH  15  21
ATOM     16  C   LIG    1        7.724   1.257   0.829  0.00  0.00    +0.150 A 
ATOM     17  C   LIG    1        8.724   2.211   0.714  0.00  0.00    -0.120 A 
ATOM     18  C   LIG    1        9.311   2.453  -0.518  0.00  0.00    +0.150 A 
ATOM     19  C   LIG    1        8.895   1.738  -1.637  0.00  0.00    +0.060 A 
ATOM     20  C   LIG    1        7.900   0.782  -1.516  0.00  0.00    +0.040 A 
ATOM     21  C   LIG    1        7.312   0.545  -0.288  0.00  0.00    -0.140 A 
BRANCH  16  23
ATOM     22  C   LIG    1        7.622   1.788   3.145  0.00  0.00    +0.240 C 
ATOM     23  O   LIG    1        7.148   1.019   2.037  0.00  0.00    -0.310 OA
ENDBRANCH  16  23
BRANCH  19  24
ATOM     24  O   LIG    1        9.469   1.974  -2.848  0.00  0.00    -0.310 OA
ATOM     25  C   LIG    1        8.993   1.204  -3.953  0.00  0.00    +0.230 C 
ENDBRANCH  19  24
BRANCH  18  26
ATOM     26  O   LIG    1       10.291   3.388  -0.633  0.00  0.00    -0.300 OA
ATOM     27  C   LIG    1       10.667   4.084   0.557  0.00  0.00    +0.240 C 
ENDBRANCH  18  26
ENDBRANCH  15  21
ENDBRANCH   1  15
TORSDOF 6
