REMARK  Name = ZINCrD000000DbA9.0
REMARK                            x       y       z     vdW  Elec       q    Type
REMARK                         _______ _______ _______ _____ _____    ______ ____
ROOT
ATOM      1  O   LIG    1        2.588   4.130  -0.004  0.00  0.00    -0.520 OA
ATOM      2  C   LIG    1        1.467   3.651   0.006  0.00  0.00    +0.560 A 
ATOM      3  C   LIG    1        1.278   2.234   0.002  0.00  0.00    -0.230 A 
ATOM      4  C   LIG    1       -0.022   1.752   0.012  0.00  0.00    +0.070 A 
ATOM      5  S   LIG    1        0.002  -0.004   0.002  0.00  0.00    +0.200 S 
ATOM      6  C   LIG    1        1.759  -0.056  -0.015  0.00  0.00    -0.190 A 
ATOM      7  C   LIG    1        2.563  -1.341  -0.040  0.00  0.00    +0.110 C 
ATOM      8  C   LIG    1        3.676  -1.286   1.005  0.00  0.00    +0.020 C 
ATOM      9  C   LIG    1        4.931  -0.699   0.367  0.00  0.00    +0.010 C 
ATOM     10  C   LIG    1        4.538   0.340  -0.682  0.00  0.00    +0.010 C 
ATOM     11  C   LIG    1        3.770   1.474  -0.014  0.00  0.00    +0.110 C 
ATOM     12  N   LIG    1       -1.057   2.621   0.031  0.00  0.00    -0.500 NA
ATOM     13  C   LIG    1       -0.866   3.907   0.031  0.00  0.00    +0.600 A 
ATOM     14  C   LIG    1        2.279   1.172  -0.011  0.00  0.00    -0.030 A 
ATOM     15  N   LIG    1        0.380   4.447   0.021  0.00  0.00    -0.530 N 
ENDROOT
BRANCH  15  16
ATOM     16  C   LIG    1        0.542   5.903   0.026  0.00  0.00    +0.300 C 
BRANCH  16  17
ATOM     17  C   LIG    1        0.584   6.417  -1.414  0.00  0.00    +0.260 C 
BRANCH  17  18
ATOM     18  C   LIG    1        0.874   7.896  -1.412  0.00  0.00    -0.120 A 
ATOM     19  C   LIG    1       -0.141   8.799  -1.156  0.00  0.00    +0.080 A 
ATOM     20  C   LIG    1        0.124  10.155  -1.154  0.00  0.00    +0.040 A 
ATOM     21  C   LIG    1        1.405  10.609  -1.407  0.00  0.00    +0.110 A 
ATOM     22  C   LIG    1        2.421   9.706  -1.663  0.00  0.00    -0.040 A 
ATOM     23  C   LIG    1        2.156   8.350  -1.660  0.00  0.00    +0.120 A 
BRANCH  22  24
ATOM     24  N   LIG    1        3.792  10.192  -1.933  0.00  0.00    +0.020 N 
ATOM     25  O   LIG    1        4.687   9.397  -2.159  0.00  0.00    -0.150 OA
ATOM     26  O   LIG    1        4.027  11.387  -1.931  0.00  0.00    -0.150 OA
ENDBRANCH  22  24
ENDBRANCH  17  18
BRANCH  17  27
ATOM     27  O   LIG    1       -0.678   6.180  -2.042  0.00  0.00    -0.540 OA
ATOM     28  H   LIG    1       -1.422   6.616  -1.605  0.00  0.00    +0.380 HD
ENDBRANCH  17  27
ENDBRANCH  16  17
ENDBRANCH  15  16
TORSDOF 5
