REMARK  Name = ZINCqH0000051xWF.0
REMARK                            x       y       z     vdW  Elec       q    Type
REMARK                         _______ _______ _______ _____ _____    ______ ____
ROOT
ATOM      1  C   LIG    1        3.780   2.046  -0.021  0.00  0.00    +0.300 C 
ENDROOT
BRANCH   1   5
ATOM      2  O   LIG    1        1.124  -1.907  -0.019  0.00  0.00    -0.450 OA
ATOM      3  C   LIG    1        1.156  -0.689  -0.013  0.00  0.00    +0.510 A 
ATOM      4  C   LIG    1        2.406  -0.035  -0.021  0.00  0.00    -0.050 A 
ATOM      5  C   LIG    1        2.458   1.322  -0.014  0.00  0.00    +0.020 A 
ATOM      6  C   LIG    1        1.195   2.063   0.002  0.00  0.00    -0.160 A 
ATOM      7  C   LIG    1        1.181   3.462   0.009  0.00  0.00    +0.100 A 
ATOM      8  C   LIG    1       -0.011   4.128   0.023  0.00  0.00    -0.010 A 
ATOM      9  C   LIG    1       -1.213   3.424   0.031  0.00  0.00    +0.170 A 
ATOM     10  C   LIG    1       -1.217   2.038   0.019  0.00  0.00    -0.010 A 
ATOM     11  C   LIG    1       -0.016   1.346   0.009  0.00  0.00    +0.170 A 
ATOM     12  O   LIG    1        0.002  -0.004   0.002  0.00  0.00    -0.270 OA
BRANCH   9  13
ATOM     13  O   LIG    1       -2.390   4.101   0.045  0.00  0.00    -0.490 OA
ATOM     14  H   LIG    1       -2.739   4.301  -0.834  0.00  0.00    +0.400 HD
ENDBRANCH   9  13
ENDBRANCH   1   5
BRANCH   1  15
ATOM     15  O   LIG    1        4.862   1.077  -0.036  0.00  0.00    -0.350 OA
BRANCH  15  16
ATOM     16  C   LIG    1        6.113   1.562  -0.044  0.00  0.00    +0.480 C 
ATOM     17  O   LIG    1        6.299   2.756  -0.040  0.00  0.00    -0.500 OA
BRANCH  16  18
ATOM     18  C   LIG    1        7.287   0.617  -0.060  0.00  0.00    -0.040 C 
ATOM     19  C   LIG    1        7.221  -0.258  -1.313  0.00  0.00    +0.050 C 
ATOM     20  C   LIG    1        8.413  -1.217  -1.329  0.00  0.00    +0.000 C 
ATOM     21  C   LIG    1        8.369  -2.105  -0.084  0.00  0.00    +0.030 C 
ATOM     22  C   LIG    1        8.435  -1.230   1.169  0.00  0.00    +0.000 C 
ATOM     23  C   LIG    1        9.737  -0.426   1.162  0.00  0.00    +0.020 C 
ATOM     24  C   LIG    1        9.781   0.462  -0.083  0.00  0.00    -0.010 C 
ATOM     25  C   LIG    1        9.715  -0.413  -1.336  0.00  0.00    +0.020 C 
ATOM     26  C   LIG    1        7.243  -0.271   1.185  0.00  0.00    +0.050 C 
ATOM     27  C   LIG    1        8.589   1.421  -0.067  0.00  0.00    +0.050 C 
ENDBRANCH  16  18
ENDBRANCH  15  16
ENDBRANCH   1  15
TORSDOF 5
