REMARK  Name = ZINCqH0000038kfa.0
REMARK                            x       y       z     vdW  Elec       q    Type
REMARK                         _______ _______ _______ _____ _____    ______ ____
ROOT
ATOM      1  C   LIG    1        1.230   7.919  -0.872  0.00  0.00    -0.060 C 
ATOM      2  C   LIG    1        0.269   7.377  -0.163  0.00  0.00    -0.050 C 
ATOM      3  C   LIG    1        0.464   6.169   0.704  0.00  0.00    +0.320 C 
ATOM      4  N   LIG    1        1.780   5.576   0.425  0.00  0.00    -0.630 N 
ATOM      5  C   LIG    1        2.919   6.498   0.276  0.00  0.00    +0.310 C 
ATOM      6  C   LIG    1        1.937   4.243   0.305  0.00  0.00    +0.710 C 
ATOM      7  N   LIG    1        0.875   3.424   0.446  0.00  0.00    -0.690 N 
ATOM      8  H   LIG    1        0.013   3.788   0.701  0.00  0.00    +0.410 HD
ATOM      9  O   LIG    1        3.035   3.779   0.069  0.00  0.00    -0.570 OA
ATOM     10  C   LIG    1        2.638   7.406  -0.923  0.00  0.00    +0.070 C 
ENDROOT
BRANCH   1  16
ATOM     11  C   LIG    1       -1.271  10.050  -4.627  0.00  0.00    +0.090 C 
ATOM     12  C   LIG    1       -0.299  10.148  -3.480  0.00  0.00    -0.080 A 
ATOM     13  C   LIG    1        0.291  11.362  -3.175  0.00  0.00    +0.000 A 
ATOM     14  C   LIG    1        1.185  11.460  -2.124  0.00  0.00    +0.010 A 
ATOM     15  C   LIG    1        1.494  10.345  -1.372  0.00  0.00    +0.010 A 
ATOM     16  C   LIG    1        0.903   9.117  -1.673  0.00  0.00    -0.060 A 
ATOM     17  C   LIG    1        0.006   9.024  -2.739  0.00  0.00    +0.010 A 
ENDBRANCH   1  16
BRANCH   7  18
ATOM     18  C   LIG    1        1.017   2.054   0.226  0.00  0.00    +0.200 A 
ATOM     19  C   LIG    1        2.196   1.412   0.588  0.00  0.00    +0.010 A 
ATOM     20  C   LIG    1        2.339   0.059   0.372  0.00  0.00    +0.070 A 
ATOM     21  C   LIG    1        1.298  -0.667  -0.212  0.00  0.00    -0.170 A 
ATOM     22  C   LIG    1        0.115  -0.018  -0.575  0.00  0.00    +0.000 A 
ATOM     23  C   LIG    1       -1.010  -0.798  -1.204  0.00  0.00    +0.120 C 
ATOM     24  C   LIG    1       -0.022   1.334  -0.356  0.00  0.00    -0.030 A 
BRANCH  21  25
ATOM     25  C   LIG    1        1.449  -2.117  -0.445  0.00  0.00    +0.560 C 
ATOM     26  O   LIG    1        0.594  -2.725  -1.059  0.00  0.00    -0.540 OA
ATOM     27  N   LIG    1        2.534  -2.766   0.022  0.00  0.00    -0.850 N 
ATOM     28  H   LIG    1        2.632  -3.718  -0.132  0.00  0.00    +0.410 HD
ATOM     29  H   LIG    1        3.216  -2.280   0.511  0.00  0.00    +0.400 HD
ENDBRANCH  21  25
ENDBRANCH   7  18
TORSDOF 3
