REMARK  Name = ZINCvU0000000GA4.0
REMARK                            x       y       z     vdW  Elec       q    Type
REMARK                         _______ _______ _______ _____ _____    ______ ____
ROOT
ATOM      1  C   LIG    1       -1.244  -2.345  -1.518  0.00  0.00    +0.380 A 
ATOM      2  N   LIG    1       -2.039  -3.345  -1.227  0.00  0.00    -0.540 NA
ATOM      3  C   LIG    1       -1.551  -4.559  -0.879  0.00  0.00    +0.170 A 
ATOM      4  C   LIG    1       -2.399  -5.626  -0.569  0.00  0.00    +0.020 A 
ATOM      5  C   LIG    1       -1.861  -6.845  -0.221  0.00  0.00    +0.060 A 
ATOM      6  C   LIG    1       -0.485  -7.029  -0.174  0.00  0.00    -0.010 A 
ATOM      7  C   LIG    1        0.371  -5.993  -0.476  0.00  0.00    +0.100 A 
ATOM      8  C   LIG    1       -0.151  -4.750  -0.831  0.00  0.00    -0.200 A 
ATOM      9  C   LIG    1        0.716  -3.613  -1.169  0.00  0.00    +0.560 A 
ATOM     10  O   LIG    1        1.929  -3.717  -1.150  0.00  0.00    -0.510 OA
ATOM     11  N   LIG    1        0.117  -2.445  -1.497  0.00  0.00    -0.520 N 
ENDROOT
BRANCH   1  12
ATOM     12  S   LIG    1       -1.967  -0.800  -1.960  0.00  0.00    +0.040 S 
BRANCH  12  13
ATOM     13  C   LIG    1       -3.721  -1.224  -1.829  0.00  0.00    +0.200 C 
BRANCH  13  16
ATOM     14  C   LIG    1       -5.668   1.302  -3.586  0.00  0.00    +0.120 A 
ATOM     15  N   LIG    1       -4.949   0.232  -3.400  0.00  0.00    -0.450 NA
ATOM     16  C   LIG    1       -4.557  -0.018  -2.172  0.00  0.00    +0.080 A 
ATOM     17  C   LIG    1       -4.949   0.862  -1.245  0.00  0.00    -0.040 A 
ATOM     18  S   LIG    1       -5.896   2.117  -2.041  0.00  0.00    +0.110 S 
BRANCH  14  23
ATOM     19  C   LIG    1       -7.762   3.082  -8.642  0.00  0.00    +0.100 C 
ATOM     20  C   LIG    1       -7.213   2.616  -7.318  0.00  0.00    -0.070 A 
ATOM     21  C   LIG    1       -7.465   3.349  -6.172  0.00  0.00    +0.010 A 
ATOM     22  C   LIG    1       -6.966   2.927  -4.957  0.00  0.00    +0.040 A 
ATOM     23  C   LIG    1       -6.206   1.759  -4.885  0.00  0.00    -0.040 A 
ATOM     24  C   LIG    1       -5.952   1.028  -6.046  0.00  0.00    +0.080 A 
ATOM     25  C   LIG    1       -6.460   1.457  -7.254  0.00  0.00    +0.010 A 
ENDBRANCH  14  23
ENDBRANCH  13  16
ENDBRANCH  12  13
ENDBRANCH   1  12
BRANCH  11  26
ATOM     26  C   LIG    1        0.937  -1.279  -1.837  0.00  0.00    +0.300 C 
BRANCH  26  27
ATOM     27  C   LIG    1        1.229  -0.474  -0.569  0.00  0.00    +0.150 C 
ATOM     28  C   LIG    1        2.084   0.763  -0.920  0.00  0.00    +0.020 C 
ATOM     29  C   LIG    1        1.473   1.857  -0.002  0.00  0.00    +0.010 C 
ATOM     30  C   LIG    1       -0.017   1.432   0.010  0.00  0.00    +0.200 C 
ATOM     31  O   LIG    1        0.002  -0.004   0.002  0.00  0.00    -0.360 OA
ENDBRANCH  26  27
ENDBRANCH  11  26
TORSDOF 6
