REMARK  Name = ZINCpe000000Y8RM.0
REMARK                            x       y       z     vdW  Elec       q    Type
REMARK                         _______ _______ _______ _____ _____    ______ ____
ROOT
ATOM      1  C   LIG    1       -4.902   4.549   3.563  0.00  0.00    +0.240 A 
ATOM      2  C   LIG    1       -5.808   3.733   4.224  0.00  0.00    -0.090 A 
ATOM      3  C   LIG    1       -6.976   4.266   4.733  0.00  0.00    +0.200 A 
ATOM      4  C   LIG    1       -7.252   5.616   4.589  0.00  0.00    -0.720 A 
ATOM      5  C   LIG    1       -6.362   6.441   3.935  0.00  0.00    +0.200 A 
ATOM      6  C   LIG    1       -5.175   5.917   3.419  0.00  0.00    -0.190 A 
ENDROOT
BRANCH   6   7
ATOM      7  C   LIG    1       -4.216   6.795   2.723  0.00  0.00    +0.560 C 
ATOM      8  O   LIG    1       -3.186   6.334   2.272  0.00  0.00    -0.520 OA
ATOM      9  N   LIG    1       -4.483   8.110   2.587  0.00  0.00    -0.850 N 
ATOM     10  H   LIG    1       -3.852   8.687   2.129  0.00  0.00    +0.410 HD
ATOM     11  H   LIG    1       -5.305   8.478   2.947  0.00  0.00    +0.400 HD
ENDBRANCH   6   7
BRANCH   4  12
ATOM     12  S   LIG    1       -8.746   6.281   5.244  0.00  0.00    +2.710 S 
ATOM     13  O   LIG    1       -9.660   5.197   5.338  0.00  0.00    -0.950 OA
ATOM     14  O   LIG    1       -9.017   7.464   4.505  0.00  0.00    -0.950 OA
BRANCH  12  15
ATOM     15  N   LIG    1       -8.430   6.762   6.797  0.00  0.00    -1.010 NA
ATOM     16  C   LIG    1       -8.579   5.929   7.999  0.00  0.00    +0.270 C 
ATOM     17  C   LIG    1       -8.195   6.802   9.212  0.00  0.00    +0.030 C 
ATOM     18  C   LIG    1       -8.403   8.244   8.679  0.00  0.00    +0.040 C 
ATOM     19  C   LIG    1       -7.957   8.098   7.203  0.00  0.00    +0.270 C 
ENDBRANCH  12  15
ENDBRANCH   4  12
BRANCH   1  20
ATOM     20  O   LIG    1       -3.755   4.027   3.062  0.00  0.00    -0.270 OA
BRANCH  20  21
ATOM     21  C   LIG    1       -3.542   2.627   3.252  0.00  0.00    +0.380 C 
BRANCH  21  26
ATOM     22  C   LIG    1       -0.013   1.086   0.008  0.00  0.00    +0.250 C 
ATOM     23  C   LIG    1       -0.718   1.572   1.248  0.00  0.00    +0.180 A 
ATOM     24  N   LIG    1       -0.165   1.830   2.398  0.00  0.00    -0.290 NA
ATOM     25  N   LIG    1       -1.066   2.224   3.227  0.00  0.00    -0.250 NA
ATOM     26  C   LIG    1       -2.226   2.230   2.634  0.00  0.00    +0.150 A 
ATOM     27  O   LIG    1       -2.032   1.823   1.368  0.00  0.00    -0.220 OA
ENDBRANCH  21  26
ENDBRANCH  20  21
ENDBRANCH   1  20
TORSDOF 6
