REMARK  Name = ZINCrH00000No4tR.0
REMARK                            x       y       z     vdW  Elec       q    Type
REMARK                         _______ _______ _______ _____ _____    ______ ____
ROOT
ATOM      1  C   LIG    1        1.331  -1.100   0.143  0.00  0.00    +0.260 C 
ATOM      2  O   LIG    1        1.781  -0.797  -1.188  0.00  0.00    -0.350 OA
ATOM      3  C   LIG    1        2.653  -1.874  -1.594  0.00  0.00    +0.220 C 
ATOM      4  C   LIG    1        3.468  -2.182  -0.312  0.00  0.00    +0.050 C 
ATOM      5  C   LIG    1        2.409  -1.984   0.800  0.00  0.00    -0.030 C 
ENDROOT
BRANCH   1  10
ATOM      6  N   LIG    1        0.251   0.397   1.903  0.00  0.00    -0.320 N 
ATOM      7  N   LIG    1        0.435   1.703   2.374  0.00  0.00    -0.280 NA
ATOM      8  C   LIG    1        1.423   2.243   1.708  0.00  0.00    +0.240 A 
ATOM      9  C   LIG    1        1.901   1.300   0.791  0.00  0.00    -0.070 A 
ATOM     10  C   LIG    1        1.164   0.174   0.930  0.00  0.00    +0.070 A 
BRANCH   6  17
ATOM     11  C   LIG    1        0.054  -0.067   4.704  0.00  0.00    +0.100 C 
ATOM     12  C   LIG    1       -0.839  -0.772   3.716  0.00  0.00    -0.070 A 
ATOM     13  C   LIG    1       -1.786  -1.673   4.162  0.00  0.00    +0.020 A 
ATOM     14  C   LIG    1       -2.606  -2.321   3.256  0.00  0.00    +0.020 A 
ATOM     15  C   LIG    1       -2.479  -2.070   1.902  0.00  0.00    +0.030 A 
ATOM     16  C   LIG    1       -1.537  -1.166   1.451  0.00  0.00    +0.020 A 
ATOM     17  C   LIG    1       -0.710  -0.518   2.357  0.00  0.00    +0.140 A 
ENDBRANCH   6  17
ENDBRANCH   1  10
BRANCH   5  18
ATOM     18  C   LIG    1        1.824  -3.310   1.213  0.00  0.00    +0.530 C 
ATOM     19  N   LIG    1        2.222  -3.895   2.361  0.00  0.00    -0.720 N 
ATOM     20  H   LIG    1        2.885  -3.462   2.921  0.00  0.00    +0.410 HD
ATOM     21  O   LIG    1        0.995  -3.852   0.513  0.00  0.00    -0.530 OA
BRANCH  19  22
ATOM     22  C   LIG    1        1.653  -5.184   2.762  0.00  0.00    +0.350 C 
ATOM     23  C   LIG    1        2.430  -6.316   2.087  0.00  0.00    +0.040 C 
BRANCH  22  24
ATOM     24  C   LIG    1        1.749  -5.331   4.259  0.00  0.00    -0.030 A 
ATOM     25  C   LIG    1        0.805  -5.859   5.059  0.00  0.00    -0.040 A 
ATOM     26  C   LIG    1        1.308  -5.800   6.379  0.00  0.00    -0.060 A 
ATOM     27  C   LIG    1        2.529  -5.239   6.306  0.00  0.00    +0.180 A 
ATOM     28  O   LIG    1        2.793  -4.963   5.019  0.00  0.00    -0.180 OA
ENDBRANCH  22  24
ENDBRANCH  19  22
ENDBRANCH   5  18
TORSDOF 5
