REMARK  Name = ZINCpk00000KfLQs.0
REMARK                            x       y       z     vdW  Elec       q    Type
REMARK                         _______ _______ _______ _____ _____    ______ ____
ROOT
ATOM      1  N   LIG    1       -0.584   1.782   1.038  0.00  0.00    -0.520 NA
ATOM      2  C   LIG    1       -0.719   3.233   1.229  0.00  0.00    +0.170 C 
ATOM      3  C   LIG    1       -1.535   3.504   2.498  0.00  0.00    +0.290 C 
ATOM      4  N   LIG    1       -0.909   2.784   3.618  0.00  0.00    -0.630 N 
ATOM      5  C   LIG    1       -0.617   1.353   3.449  0.00  0.00    +0.310 C 
ATOM      6  C   LIG    1       -0.612   3.420   4.769  0.00  0.00    +0.710 C 
ATOM      7  N   LIG    1       -0.794   4.751   4.870  0.00  0.00    -0.690 N 
ATOM      8  H   LIG    1       -1.202   5.242   4.139  0.00  0.00    +0.410 HD
ATOM      9  O   LIG    1       -0.179   2.792   5.716  0.00  0.00    -0.570 OA
ATOM     10  C   LIG    1        0.163   1.167   2.142  0.00  0.00    +0.170 C 
ENDROOT
BRANCH   7  11
ATOM     11  C   LIG    1       -0.396   5.426   6.030  0.00  0.00    +0.150 A 
ATOM     12  C   LIG    1        0.124   6.712   5.941  0.00  0.00    +0.010 A 
ATOM     13  C   LIG    1        0.519   7.384   7.083  0.00  0.00    +0.020 A 
ATOM     14  C   LIG    1        0.400   6.784   8.319  0.00  0.00    +0.040 A 
ATOM     15  C   LIG    1       -0.123   5.491   8.420  0.00  0.00    -0.150 A 
ATOM     16  C   LIG    1       -0.526   4.814   7.266  0.00  0.00    +0.090 A 
BRANCH  15  17
ATOM     17  C   LIG    1       -0.252   4.847   9.738  0.00  0.00    +0.390 C 
ATOM     18  O   LIG    1       -0.705   3.725   9.822  0.00  0.00    -0.450 OA
ATOM     19  C   LIG    1        0.180   5.581  10.981  0.00  0.00    +0.070 C 
ENDBRANCH  15  17
ENDBRANCH   7  11
BRANCH   1  20
ATOM     20  C   LIG    1        0.042   1.478  -0.256  0.00  0.00    +0.150 C 
BRANCH  20  21
ATOM     21  C   LIG    1       -0.888   1.917  -1.388  0.00  0.00    +0.220 C 
BRANCH  21  22
ATOM     22  O   LIG    1       -2.130   1.218  -1.284  0.00  0.00    -0.540 OA
ATOM     23  H   LIG    1       -2.045   0.256  -1.341  0.00  0.00    +0.370 HD
ENDBRANCH  21  22
BRANCH  21  24
ATOM     24  C   LIG    1       -0.236   1.600  -2.736  0.00  0.00    +0.140 C 
BRANCH  24  25
ATOM     25  O   LIG    1       -1.050   2.115  -3.792  0.00  0.00    -0.380 OA
BRANCH  25  27
ATOM     26  C   LIG    1       -1.476   2.462  -6.145  0.00  0.00    +0.040 C 
ATOM     27  C   LIG    1       -0.528   1.871  -5.099  0.00  0.00    +0.160 C 
ENDBRANCH  25  27
ENDBRANCH  24  25
ENDBRANCH  21  24
ENDBRANCH  20  21
ENDBRANCH   1  20
TORSDOF 8
