REMARK  Name = ZINCnE00000knzDc.0
REMARK                            x       y       z     vdW  Elec       q    Type
REMARK                         _______ _______ _______ _____ _____    ______ ____
ROOT
ATOM      1  N   LIG    1        0.377  -2.733  -0.204  0.00  0.00    -0.460 N 
ATOM      2  C   LIG    1       -0.596  -1.938  -0.964  0.00  0.00    +0.280 C 
ATOM      3  C   LIG    1       -0.459  -0.482  -0.625  0.00  0.00    -0.120 C 
ATOM      4  C   LIG    1        0.170  -0.051   0.426  0.00  0.00    -0.030 C 
ATOM      5  C   LIG    1        0.827  -0.970   1.418  0.00  0.00    +0.060 C 
ATOM      6  C   LIG    1        0.302  -2.396   1.228  0.00  0.00    +0.210 C 
ENDROOT
BRANCH   1  17
ATOM      7  C   LIG    1        2.690  -4.609   0.337  0.00  0.00    +0.330 C 
ATOM      8  N   LIG    1        2.712  -3.379  -0.458  0.00  0.00    -0.490 N 
ATOM      9  C   LIG    1        3.808  -2.845  -1.115  0.00  0.00    +0.060 A 
ATOM     10  C   LIG    1        5.132  -3.232  -1.246  0.00  0.00    +0.030 A 
ATOM     11  C   LIG    1        6.003  -2.460  -1.991  0.00  0.00    -0.030 A 
ATOM     12  C   LIG    1        5.560  -1.300  -2.609  0.00  0.00    +0.020 A 
ATOM     13  C   LIG    1        4.248  -0.901  -2.488  0.00  0.00    +0.100 A 
ATOM     14 CL   LIG    1        7.661  -2.947  -2.156  0.00  0.00    -0.080 Cl
ATOM     15  C   LIG    1        3.355  -1.670  -1.738  0.00  0.00    +0.080 A 
ATOM     16  N   LIG    1        2.033  -1.546  -1.446  0.00  0.00    -0.480 NA
ATOM     17  C   LIG    1        1.655  -2.546  -0.690  0.00  0.00    +0.470 A 
ENDBRANCH   1  17
BRANCH   4  18
ATOM     18  C   LIG    1        0.240   1.435   0.664  0.00  0.00    -0.110 C 
ATOM     19  C   LIG    1       -0.422   1.768   2.003  0.00  0.00    +0.020 C 
ATOM     20  C   LIG    1       -0.490   2.167  -0.463  0.00  0.00    +0.030 C 
BRANCH  18  21
ATOM     21  C   LIG    1        1.683   1.871   0.695  0.00  0.00    +0.510 C 
ATOM     22  O   LIG    1        2.544   1.100   1.082  0.00  0.00    -0.690 OA
ATOM     23  O   LIG    1        1.987   2.995   0.334  0.00  0.00    -0.700 OA
ENDBRANCH  18  21
ENDBRANCH   4  18
TORSDOF 3
