REMARK  Name = ZINCpe000000TauJ.0
REMARK                            x       y       z     vdW  Elec       q    Type
REMARK                         _______ _______ _______ _____ _____    ______ ____
ROOT
ATOM      1  N   LIG    1       -1.232   3.246   0.926  0.00  0.00    -0.550 NA
ATOM      2  C   LIG    1       -2.488   3.932   1.189  0.00  0.00    +0.180 C 
ATOM      3  C   LIG    1       -2.973   4.676  -0.058  0.00  0.00    +0.300 C 
ATOM      4  N   LIG    1       -3.741   3.739  -0.894  0.00  0.00    -0.730 N 
ATOM      5  H   LIG    1       -4.703   3.837  -0.973  0.00  0.00    +0.400 HD
ATOM      6  C   LIG    1       -3.116   2.753  -1.543  0.00  0.00    +0.520 C 
ATOM      7  C   LIG    1       -1.615   2.596  -1.413  0.00  0.00    +0.090 C 
ATOM      8  O   LIG    1       -3.749   1.984  -2.236  0.00  0.00    -0.550 OA
ATOM      9  C   LIG    1       -1.300   2.118   0.007  0.00  0.00    +0.200 C 
ENDROOT
BRANCH   9  10
ATOM     10  C   LIG    1        0.023   1.397   0.007  0.00  0.00    -0.090 A 
ATOM     11  C   LIG    1        1.203   2.117   0.017  0.00  0.00    +0.040 A 
ATOM     12  C   LIG    1        2.416   1.456   0.009  0.00  0.00    +0.000 A 
ATOM     13  C   LIG    1        2.450   0.074  -0.006  0.00  0.00    +0.000 A 
ATOM     14  C   LIG    1        1.270  -0.646  -0.014  0.00  0.00    +0.000 A 
ATOM     15  C   LIG    1        0.057   0.015  -0.008  0.00  0.00    +0.010 A 
ENDBRANCH   9  10
BRANCH   1  16
ATOM     16  C   LIG    1       -0.569   2.864   2.180  0.00  0.00    +0.180 C 
BRANCH  16  17
ATOM     17  C   LIG    1       -0.158   4.124   2.944  0.00  0.00    +0.320 C 
BRANCH  17  23
ATOM     18  C   LIG    1        1.102   1.723   6.781  0.00  0.00    +0.090 C 
ATOM     19  C   LIG    1        1.243   3.149   6.243  0.00  0.00    +0.120 C 
ATOM     20  N   LIG    1        2.414   3.254   5.355  0.00  0.00    -0.720 N 
ATOM     21  H   LIG    1        3.341   3.100   5.597  0.00  0.00    +0.440 HD
ATOM     22  C   LIG    1        1.948   3.607   4.144  0.00  0.00    +0.700 C 
ATOM     23  N   LIG    1        0.617   3.746   4.128  0.00  0.00    -0.570 N 
ATOM     24  O   LIG    1        2.656   3.781   3.171  0.00  0.00    -0.530 OA
ATOM     25  C   LIG    1        1.350   4.149   7.396  0.00  0.00    +0.090 C 
ATOM     26  C   LIG    1        0.078   3.500   5.339  0.00  0.00    +0.530 C 
ATOM     27  O   LIG    1       -1.095   3.548   5.642  0.00  0.00    -0.460 OA
ENDBRANCH  17  23
ENDBRANCH  16  17
ENDBRANCH   1  16
TORSDOF 4
