REMARK  Name = ZINCpk000005nBqd.0
REMARK                            x       y       z     vdW  Elec       q    Type
REMARK                         _______ _______ _______ _____ _____    ______ ____
ROOT
ATOM      1  C   LIG    1        4.396  -1.283  -2.992  0.00  0.00    +0.250 C 
ATOM      2  C   LIG    1        4.074   0.163  -2.603  0.00  0.00    +0.240 C 
ATOM      3  N   LIG    1        3.291   0.155  -1.360  0.00  0.00    -0.600 N 
ATOM      4  C   LIG    1        3.825  -0.561  -0.193  0.00  0.00    +0.270 C 
ATOM      5  C   LIG    1        4.148  -2.003  -0.611  0.00  0.00    +0.020 C 
ATOM      6  C   LIG    1        2.108   0.797  -1.289  0.00  0.00    +0.540 C 
ATOM      7  O   LIG    1        1.680   1.388  -2.257  0.00  0.00    -0.510 OA
ATOM      8  C   LIG    1        5.373   0.941  -2.386  0.00  0.00    +0.060 C 
ATOM      9  C   LIG    1        5.088  -1.980  -1.819  0.00  0.00    -0.010 C 
ATOM     10  C   LIG    1        5.443  -3.415  -2.216  0.00  0.00    +0.030 C 
ENDROOT
BRANCH   6  11
ATOM     11  C   LIG    1        1.317   0.779  -0.006  0.00  0.00    -0.050 C 
ATOM     12  C   LIG    1        0.002  -0.004   0.002  0.00  0.00    +0.120 C 
ATOM     13  C   LIG    1       -0.019   1.526   0.010  0.00  0.00    +0.230 C 
ATOM     14  F   LIG    1       -0.389   2.160   1.201  0.00  0.00    -0.150 F 
ATOM     15  F   LIG    1       -0.412   2.173  -1.166  0.00  0.00    -0.140 F 
ENDBRANCH   6  11
BRANCH   1  17
ATOM     16  C   LIG    1        3.184  -3.056  -4.142  0.00  0.00    +0.590 C 
ATOM     17  N   LIG    1        3.155  -1.990  -3.319  0.00  0.00    -0.720 N 
ATOM     18  H   LIG    1        2.313  -1.690  -2.943  0.00  0.00    +0.400 HD
ATOM     19  O   LIG    1        4.240  -3.432  -4.614  0.00  0.00    -0.500 OA
BRANCH  16  24
ATOM     20  C   LIG    1        0.463  -5.219  -5.329  0.00  0.00    +0.260 A 
ATOM     21  N   LIG    1       -0.209  -4.383  -4.572  0.00  0.00    -0.310 NA
ATOM     22  N   LIG    1        0.685  -3.459  -4.018  0.00  0.00    -0.450 N 
ATOM     23  H   LIG    1        0.457  -2.731  -3.419  0.00  0.00    +0.440 HD
ATOM     24  C   LIG    1        1.938  -3.766  -4.471  0.00  0.00    +0.050 A 
ATOM     25  C   LIG    1        1.813  -4.864  -5.298  0.00  0.00    -0.010 A 
BRANCH  20  27
ATOM     26  C   LIG    1       -1.481  -6.448  -5.935  0.00  0.00    +0.250 C 
ATOM     27  O   LIG    1       -0.069  -6.255  -6.032  0.00  0.00    -0.290 OA
ENDBRANCH  20  27
ENDBRANCH  16  24
ENDBRANCH   1  17
TORSDOF 4
