REMARK  Name = ZINCvU000000062P.0
REMARK                            x       y       z     vdW  Elec       q    Type
REMARK                         _______ _______ _______ _____ _____    ______ ____
ROOT
ATOM      1  C   LIG    1        1.300   1.666  -0.195  0.00  0.00    +0.300 C 
ENDROOT
BRANCH   1   2
ATOM      2  C   LIG    1        1.835   2.204   1.107  0.00  0.00    -0.110 A 
ATOM      3  C   LIG    1        1.705   1.464   2.267  0.00  0.00    +0.030 A 
ATOM      4  C   LIG    1        2.200   1.955   3.460  0.00  0.00    +0.000 A 
ATOM      5  C   LIG    1        2.817   3.192   3.495  0.00  0.00    +0.010 A 
ATOM      6  C   LIG    1        2.942   3.935   2.337  0.00  0.00    +0.010 A 
ATOM      7  C   LIG    1        2.451   3.441   1.143  0.00  0.00    +0.020 A 
ENDBRANCH   1   2
BRANCH   1  10
ATOM      8  N   LIG    1        3.534   1.065  -1.069  0.00  0.00    -0.660 N 
ATOM      9  H   LIG    1        3.785   1.998  -0.986  0.00  0.00    +0.410 HD
ATOM     10  C   LIG    1        2.279   0.675  -0.769  0.00  0.00    +0.520 C 
ATOM     11  O   LIG    1        1.938  -0.473  -0.961  0.00  0.00    -0.510 OA
BRANCH   8  15
ATOM     12  C   LIG    1        6.338  -1.742  -2.356  0.00  0.00    +0.130 A 
ATOM     13  C   LIG    1        6.736  -0.677  -1.561  0.00  0.00    -0.040 A 
ATOM     14  C   LIG    1        5.809   0.255  -1.139  0.00  0.00    +0.050 A 
ATOM     15  C   LIG    1        4.476   0.122  -1.502  0.00  0.00    +0.120 A 
ATOM     16  C   LIG    1        4.077  -0.944  -2.298  0.00  0.00    +0.090 A 
ATOM     17  C   LIG    1        5.006  -1.873  -2.724  0.00  0.00    -0.050 A 
ATOM     18 CL   LIG    1        4.508  -3.205  -3.719  0.00  0.00    -0.050 Cl
BRANCH  12  20
ATOM     19  C   LIG    1        8.605  -2.459  -2.359  0.00  0.00    +0.240 C 
ATOM     20  O   LIG    1        7.253  -2.656  -2.775  0.00  0.00    -0.300 OA
ENDBRANCH  12  20
ENDBRANCH   8  15
ENDBRANCH   1  10
BRANCH   1  21
ATOM     21  N   LIG    1        0.016   1.002   0.043  0.00  0.00    -0.730 N 
ATOM     22  H   LIG    1       -0.015   0.043   0.185  0.00  0.00    +0.410 HD
BRANCH  21  23
ATOM     23  C   LIG    1       -1.167   1.750   0.059  0.00  0.00    +0.220 A 
ATOM     24  C   LIG    1       -1.122   3.124  -0.139  0.00  0.00    -0.070 A 
ATOM     25  C   LIG    1       -2.290   3.862  -0.128  0.00  0.00    +0.080 A 
ATOM     26  C   LIG    1       -3.507   3.231   0.091  0.00  0.00    +0.020 A 
ATOM     27  C   LIG    1       -3.552   1.858   0.294  0.00  0.00    +0.020 A 
ATOM     28  C   LIG    1       -2.385   1.120   0.278  0.00  0.00    -0.060 A 
BRANCH  26  29
ATOM     29  N   LIG    1       -4.690   3.980   0.107  0.00  0.00    -0.480 N 
ATOM     30  C   LIG    1       -5.606   3.553  -0.982  0.00  0.00    +0.170 C 
ATOM     31  C   LIG    1       -6.987   4.067  -0.506  0.00  0.00    +0.030 C 
ATOM     32  C   LIG    1       -6.935   3.834   1.022  0.00  0.00    +0.010 C 
ATOM     33  C   LIG    1       -5.436   3.766   1.367  0.00  0.00    +0.170 C 
ENDBRANCH  26  29
ENDBRANCH  21  23
ENDBRANCH   1  21
TORSDOF 7
