REMARK  Name = ZINCpk00000y6tKD.0
REMARK                            x       y       z     vdW  Elec       q    Type
REMARK                         _______ _______ _______ _____ _____    ______ ____
ROOT
ATOM      1  C   LIG    1       -1.590   3.221   2.623  0.00  0.00    +0.010 C 
ATOM      2  C   LIG    1       -1.977   1.786   3.048  0.00  0.00    +0.060 C 
ATOM      3  C   LIG    1       -1.473   0.916   1.917  0.00  0.00    +0.520 C 
ATOM      4  N   LIG    1       -0.594   1.599   1.165  0.00  0.00    -0.610 N 
ATOM      5  O   LIG    1       -1.813  -0.231   1.719  0.00  0.00    -0.510 OA
ATOM      6  C   LIG    1       -0.390   2.957   1.683  0.00  0.00    +0.320 C 
ENDROOT
BRANCH   6   7
ATOM      7  C   LIG    1       -0.388   3.952   0.551  0.00  0.00    -0.260 A 
ATOM      8  C   LIG    1        0.500   4.959   0.378  0.00  0.00    +0.260 A 
ATOM      9  N   LIG    1        0.159   5.619  -0.749  0.00  0.00    -0.370 N 
ATOM     10  N   LIG    1       -0.975   4.996  -1.287  0.00  0.00    -0.290 NA
ATOM     11  C   LIG    1        0.853   6.780  -1.311  0.00  0.00    +0.360 C 
ATOM     12  C   LIG    1       -1.298   3.994  -0.510  0.00  0.00    +0.250 A 
ENDBRANCH   6   7
BRANCH   1  13
ATOM     13  C   LIG    1       -1.159   4.054   3.832  0.00  0.00    +0.290 C 
BRANCH  13  14
ATOM     14  N   LIG    1       -2.308   4.259   4.717  0.00  0.00    -0.670 N 
ATOM     15  H   LIG    1       -3.172   3.884   4.485  0.00  0.00    +0.420 HD
BRANCH  14  19
ATOM     16  C   LIG    1       -2.713   5.975   7.816  0.00  0.00    +0.310 A 
ATOM     17  N   LIG    1       -1.470   6.355   7.878  0.00  0.00    -0.500 NA
ATOM     18  S   LIG    1       -0.728   5.735   6.480  0.00  0.00    +0.180 S 
ATOM     19  C   LIG    1       -2.161   4.987   5.884  0.00  0.00    +0.340 A 
ATOM     20  N   LIG    1       -3.087   5.266   6.777  0.00  0.00    -0.580 NA
BRANCH  16  22
ATOM     21  C   LIG    1       -4.358   7.677   8.554  0.00  0.00    +0.050 C 
ATOM     22  C   LIG    1       -3.693   6.344   8.900  0.00  0.00    +0.140 C 
ENDBRANCH  16  22
ENDBRANCH  14  19
ENDBRANCH  13  14
ENDBRANCH   1  13
BRANCH   4  23
ATOM     23  C   LIG    1        0.080   1.056  -0.018  0.00  0.00    +0.310 C 
BRANCH  23  24
ATOM     24  C   LIG    1        1.453   0.513   0.382  0.00  0.00    +0.150 C 
BRANCH  24  25
ATOM     25  O   LIG    1        1.288  -0.602   1.260  0.00  0.00    -0.380 OA
ATOM     26  C   LIG    1        2.515  -1.128   1.770  0.00  0.00    +0.200 C 
ENDBRANCH  24  25
ENDBRANCH  23  24
ENDBRANCH   4  23
TORSDOF 8
