REMARK  Name = ZINCqH0000003reR.0
REMARK                            x       y       z     vdW  Elec       q    Type
REMARK                         _______ _______ _______ _____ _____    ______ ____
ROOT
ATOM      1  C   LIG    1        1.756   2.867   7.705  0.00  0.00    +0.030 A 
ATOM      2  C   LIG    1        1.387   3.920   6.930  0.00  0.00    +0.090 A 
ATOM      3  C   LIG    1        0.946   3.405   5.687  0.00  0.00    -0.130 A 
ATOM      4  C   LIG    1        0.458   4.001   4.521  0.00  0.00    +0.150 A 
ATOM      5  C   LIG    1        0.100   3.201   3.442  0.00  0.00    -0.170 A 
ATOM      6  C   LIG    1        0.223   1.806   3.528  0.00  0.00    +0.080 A 
ATOM      7  C   LIG    1        0.704   1.220   4.661  0.00  0.00    -0.010 A 
ATOM      8  C   LIG    1        1.069   2.001   5.756  0.00  0.00    +0.140 A 
ATOM      9  N   LIG    1        1.566   1.695   6.998  0.00  0.00    -0.560 N 
ATOM     10  H   LIG    1        1.753   0.801   7.326  0.00  0.00    +0.430 HD
ENDROOT
BRANCH   5  11
ATOM     11  C   LIG    1       -0.416   3.820   2.205  0.00  0.00    +0.570 C 
ATOM     12  N   LIG    1       -0.114   3.283   1.006  0.00  0.00    -0.610 N 
ATOM     13  C   LIG    1        0.825   2.157   0.905  0.00  0.00    +0.280 C 
ATOM     14  C   LIG    1        1.925   2.520  -0.096  0.00  0.00    +0.030 C 
ATOM     15  C   LIG    1        1.286   2.927  -1.426  0.00  0.00    +0.040 C 
ATOM     16  C   LIG    1        0.401   4.158  -1.213  0.00  0.00    -0.030 C 
ATOM     17  C   LIG    1       -0.717   3.812  -0.225  0.00  0.00    +0.310 C 
ATOM     18  O   LIG    1       -1.113   4.814   2.267  0.00  0.00    -0.530 OA
BRANCH  16  19
ATOM     19  C   LIG    1       -0.211   4.583  -2.549  0.00  0.00    +0.460 C 
ATOM     20  F   LIG    1        0.811   4.895  -3.452  0.00  0.00    -0.180 F 
ATOM     21  F   LIG    1       -1.020   5.708  -2.354  0.00  0.00    -0.180 F 
ATOM     22  F   LIG    1       -0.984   3.536  -3.062  0.00  0.00    -0.180 F 
ENDBRANCH  16  19
ENDBRANCH   5  11
BRANCH   1  23
ATOM     23  C   LIG    1        2.276   2.959   9.076  0.00  0.00    +0.530 C 
ATOM     24  O   LIG    1        2.404   4.046   9.605  0.00  0.00    -0.490 OA
BRANCH  23  25
ATOM     25  O   LIG    1        2.610   1.839   9.748  0.00  0.00    -0.360 OA
BRANCH  25  27
ATOM     26  C   LIG    1        3.439   0.634  11.695  0.00  0.00    +0.070 C 
ATOM     27  C   LIG    1        3.116   2.005  11.098  0.00  0.00    +0.220 C 
ENDBRANCH  25  27
ENDBRANCH  23  25
ENDBRANCH   1  23
TORSDOF 5
