REMARK  Name = ZINCrD0000075DSu.1
REMARK                            x       y       z     vdW  Elec       q    Type
REMARK                         _______ _______ _______ _____ _____    ______ ____
ROOT
ATOM      1  O   LIG    1       -1.016   1.796   3.392  0.00  0.00    -0.580 OA
ATOM      2  C   LIG    1       -0.351   1.345   2.479  0.00  0.00    +0.730 C 
ATOM      3  N   LIG    1       -0.721   1.570   1.202  0.00  0.00    -0.640 N 
ATOM      4  C   LIG    1       -0.013   1.086   0.008  0.00  0.00    +0.240 C 
ATOM      5  C   LIG    1       -0.779   1.607  -1.226  0.00  0.00    +0.060 C 
ATOM      6  C   LIG    1       -1.556   2.826  -0.662  0.00  0.00    +0.110 C 
ATOM      7  C   LIG    1       -1.903   2.341   0.767  0.00  0.00    +0.300 C 
ATOM      8  N   LIG    1        0.754   0.621   2.743  0.00  0.00    -0.740 N 
ATOM      9  H   LIG    1        1.284   0.261   2.015  0.00  0.00    +0.400 HD
ENDROOT
BRANCH   6  10
ATOM     10  C   LIG    1       -2.806   3.087  -1.463  0.00  0.00    +0.240 A 
ATOM     11  N   LIG    1       -3.792   2.244  -1.628  0.00  0.00    -0.310 NA
ATOM     12  N   LIG    1       -4.746   2.889  -2.433  0.00  0.00    -0.480 N 
ATOM     13  H   LIG    1       -5.594   2.526  -2.732  0.00  0.00    +0.440 HD
ATOM     14  C   LIG    1       -4.247   4.106  -2.709  0.00  0.00    +0.500 A 
ATOM     15  N   LIG    1       -3.084   4.212  -2.121  0.00  0.00    -0.540 NA
ENDBRANCH   6  10
BRANCH   8  16
ATOM     16  C   LIG    1        1.155   0.377   4.131  0.00  0.00    +0.340 C 
BRANCH  16  17
ATOM     17  C   LIG    1        2.414  -0.452   4.152  0.00  0.00    -0.150 A 
ATOM     18  C   LIG    1        2.340  -1.812   4.389  0.00  0.00    +0.080 A 
ATOM     19  C   LIG    1        3.489  -2.577   4.404  0.00  0.00    +0.020 A 
ATOM     20  C   LIG    1        4.727  -1.975   4.190  0.00  0.00    -0.000 A 
ATOM     21  C   LIG    1        4.799  -0.604   3.957  0.00  0.00    -0.010 A 
ATOM     22  C   LIG    1        3.642   0.153   3.938  0.00  0.00    +0.120 A 
ATOM     23  F   LIG    1        3.709   1.483   3.712  0.00  0.00    -0.130 F 
BRANCH  20  24
ATOM     24  C   LIG    1        5.965  -2.793   4.211  0.00  0.00    -0.060 A 
ATOM     25  C   LIG    1        7.203  -2.192   3.992  0.00  0.00    +0.020 A 
ATOM     26  C   LIG    1        8.352  -2.957   4.017  0.00  0.00    +0.010 A 
ATOM     27  C   LIG    1        8.275  -4.318   4.248  0.00  0.00    +0.020 A 
ATOM     28  C   LIG    1        7.048  -4.920   4.462  0.00  0.00    +0.010 A 
ATOM     29  C   LIG    1        5.894  -4.165   4.444  0.00  0.00    +0.030 A 
ENDBRANCH  20  24
ENDBRANCH  16  17
ENDBRANCH   8  16
TORSDOF 4
