REMARK  Name = ZINCrD0000075DSu.0
REMARK                            x       y       z     vdW  Elec       q    Type
REMARK                         _______ _______ _______ _____ _____    ______ ____
ROOT
ATOM      1  O   LIG    1        2.974   3.540   0.010  0.00  0.00    -0.580 OA
ATOM      2  C   LIG    1        1.787   3.279   0.022  0.00  0.00    +0.730 C 
ATOM      3  N   LIG    1        1.379   1.995  -0.000  0.00  0.00    -0.640 N 
ATOM      4  C   LIG    1       -0.019   1.539   0.011  0.00  0.00    +0.240 C 
ATOM      5  C   LIG    1        0.002  -0.004   0.002  0.00  0.00    +0.060 C 
ATOM      6  C   LIG    1        1.412  -0.336   0.558  0.00  0.00    +0.110 C 
ATOM      7  C   LIG    1        2.261   0.814  -0.041  0.00  0.00    +0.280 C 
ATOM      8  N   LIG    1        0.878   4.274   0.059  0.00  0.00    -0.740 N 
ATOM      9  H   LIG    1       -0.069   4.066   0.069  0.00  0.00    +0.400 HD
ENDROOT
BRANCH   6  10
ATOM     10  C   LIG    1        1.888  -1.675   0.059  0.00  0.00    +0.190 A 
ATOM     11  N   LIG    1        1.774  -2.818   0.680  0.00  0.00    -0.280 NA
ATOM     12  N   LIG    1        2.288  -3.753  -0.036  0.00  0.00    -0.290 NA
ATOM     13  C   LIG    1        2.755  -3.251  -1.147  0.00  0.00    +0.380 A 
ATOM     14  N   LIG    1        2.510  -1.918  -1.121  0.00  0.00    -0.580 N 
ATOM     15  H   LIG    1        2.735  -1.270  -1.806  0.00  0.00    +0.430 HD
ENDBRANCH   6  10
BRANCH   8  16
ATOM     16  C   LIG    1        1.321   5.670   0.084  0.00  0.00    +0.340 C 
BRANCH  16  17
ATOM     17  C   LIG    1        0.119   6.578   0.123  0.00  0.00    -0.150 A 
ATOM     18  C   LIG    1       -0.320   7.191  -1.036  0.00  0.00    +0.080 A 
ATOM     19  C   LIG    1       -1.424   8.019  -1.007  0.00  0.00    +0.020 A 
ATOM     20  C   LIG    1       -2.090   8.248   0.195  0.00  0.00    -0.000 A 
ATOM     21  C   LIG    1       -1.641   7.633   1.363  0.00  0.00    -0.010 A 
ATOM     22  C   LIG    1       -0.539   6.801   1.322  0.00  0.00    +0.120 A 
ATOM     23  F   LIG    1       -0.102   6.204   2.453  0.00  0.00    -0.130 F 
BRANCH  20  24
ATOM     24  C   LIG    1       -3.273   9.142   0.232  0.00  0.00    -0.060 A 
ATOM     25  C   LIG    1       -3.943   9.366   1.433  0.00  0.00    +0.030 A 
ATOM     26  C   LIG    1       -5.041  10.203   1.462  0.00  0.00    +0.010 A 
ATOM     27  C   LIG    1       -5.482  10.810   0.300  0.00  0.00    +0.020 A 
ATOM     28  C   LIG    1       -4.824  10.587  -0.895  0.00  0.00    +0.010 A 
ATOM     29  C   LIG    1       -3.722   9.756  -0.935  0.00  0.00    +0.030 A 
ENDBRANCH  20  24
ENDBRANCH  16  17
ENDBRANCH   8  16
TORSDOF 4
