REMARK  Name = ZINCrD00000F5LAb.0
REMARK                            x       y       z     vdW  Elec       q    Type
REMARK                         _______ _______ _______ _____ _____    ______ ____
ROOT
ATOM      1  C   LIG    1       -1.222   1.746   0.017  0.00  0.00    -0.670 A 
ATOM      2  C   LIG    1       -0.013   1.076   0.008  0.00  0.00    +0.170 A 
ATOM      3  C   LIG    1        1.180   1.780   0.000  0.00  0.00    +0.070 A 
ATOM      4  C   LIG    1        1.162   3.170   0.008  0.00  0.00    -0.060 A 
ATOM      5  C   LIG    1        2.426   3.939   0.002  0.00  0.00    +0.430 C 
ATOM      6  C   LIG    1        2.393   5.385   0.316  0.00  0.00    -0.120 A 
ATOM      7  C   LIG    1        3.566   6.075   0.598  0.00  0.00    +0.070 A 
ATOM      8  C   LIG    1        3.516   7.428   0.888  0.00  0.00    +0.040 A 
ATOM      9  C   LIG    1        2.307   8.098   0.900  0.00  0.00    +0.050 A 
ATOM     10  C   LIG    1        1.129   7.425   0.623  0.00  0.00    +0.080 A 
ATOM     11  C   LIG    1        1.161   6.067   0.329  0.00  0.00    -0.120 A 
ATOM     12  C   LIG    1       -0.087   5.331   0.029  0.00  0.00    +0.440 C 
ATOM     13  O   LIG    1       -1.114   5.935  -0.207  0.00  0.00    -0.420 OA
ATOM     14  O   LIG    1        3.478   3.390  -0.256  0.00  0.00    -0.410 OA
ATOM     15  C   LIG    1       -0.069   3.852   0.022  0.00  0.00    -0.140 A 
ATOM     16  C   LIG    1       -1.257   3.130   0.030  0.00  0.00    +0.190 A 
ENDROOT
BRANCH   1  17
ATOM     17  S   LIG    1       -2.728   0.832   0.020  0.00  0.00    +2.690 S 
ATOM     18  O   LIG    1       -2.426  -0.442  -0.532  0.00  0.00    -0.950 OA
ATOM     19  O   LIG    1       -3.722   1.695  -0.515  0.00  0.00    -0.940 OA
BRANCH  17  20
ATOM     20  N   LIG    1       -3.139   0.570   1.603  0.00  0.00    -1.110 NA
ATOM     21  H   LIG    1       -3.155  -0.333   1.957  0.00  0.00    +0.420 HD
BRANCH  20  28
ATOM     22  C   LIG    1       -5.816   0.842   2.676  0.00  0.00    +0.030 C 
ATOM     23  C   LIG    1       -4.573   1.282   3.453  0.00  0.00    -0.010 C 
ATOM     24  C   LIG    1       -4.927   2.464   4.357  0.00  0.00    +0.020 C 
ATOM     25  C   LIG    1       -3.684   2.903   5.133  0.00  0.00    +0.010 C 
ATOM     26  C   LIG    1       -2.590   3.323   4.149  0.00  0.00    +0.020 C 
ATOM     27  C   LIG    1       -2.236   2.141   3.245  0.00  0.00    -0.010 C 
ATOM     28  C   LIG    1       -3.479   1.702   2.469  0.00  0.00    +0.240 C 
ENDBRANCH  20  28
ENDBRANCH  17  20
ENDBRANCH   1  17
TORSDOF 3
