REMARK  Name = ZINCpe00000MJI5u.0
REMARK                            x       y       z     vdW  Elec       q    Type
REMARK                         _______ _______ _______ _____ _____    ______ ____
ROOT
ATOM      1  C   LIG    1        2.421  -1.407  -2.070  0.00  0.00    +0.330 C 
ATOM      2  C   LIG    1        1.345  -0.952  -1.083  0.00  0.00    +0.010 C 
ATOM      3  C   LIG    1        2.026  -0.507   0.217  0.00  0.00    +0.070 C 
ATOM      4  C   LIG    1        2.828   0.765  -0.069  0.00  0.00    +0.090 C 
ATOM      5  C   LIG    1        3.674   0.571  -1.294  0.00  0.00    +0.520 C 
ATOM      6  O   LIG    1        4.598   1.334  -1.480  0.00  0.00    -0.540 OA
ATOM      7  N   LIG    1        3.463  -0.394  -2.190  0.00  0.00    -0.600 N 
ATOM      8  C   LIG    1        4.333  -0.441  -3.368  0.00  0.00    +0.290 C 
ENDROOT
BRANCH   1  14
ATOM      9  C   LIG    1        2.512  -4.021  -3.734  0.00  0.00    +0.360 C 
ATOM     10  N   LIG    1        1.841  -2.782  -4.134  0.00  0.00    -0.350 N 
ATOM     11  N   LIG    1        1.133  -2.576  -5.325  0.00  0.00    -0.280 NA
ATOM     12  C   LIG    1        0.683  -1.347  -5.327  0.00  0.00    +0.230 A 
ATOM     13  C   LIG    1        1.086  -0.734  -4.136  0.00  0.00    -0.100 A 
ATOM     14  C   LIG    1        1.793  -1.638  -3.420  0.00  0.00    +0.060 A 
ENDBRANCH   1  14
BRANCH   2  15
ATOM     15  C   LIG    1        0.406  -2.096  -0.796  0.00  0.00    +0.530 C 
ATOM     16  N   LIG    1       -0.910  -1.971  -1.059  0.00  0.00    -0.630 N 
ATOM     17  H   LIG    1       -1.253  -1.144  -1.432  0.00  0.00    +0.420 HD
ATOM     18  O   LIG    1        0.836  -3.130  -0.329  0.00  0.00    -0.460 OA
BRANCH  16  19
ATOM     19  C   LIG    1       -1.775  -3.026  -0.794  0.00  0.00    +0.400 A 
ATOM     20  N   LIG    1       -1.449  -4.195  -0.298  0.00  0.00    -0.270 NA
ATOM     21  N   LIG    1       -2.499  -4.927  -0.181  0.00  0.00    -0.280 NA
ATOM     22  C   LIG    1       -3.547  -4.276  -0.602  0.00  0.00    +0.370 A 
ATOM     23  N   LIG    1       -3.122  -3.042  -1.007  0.00  0.00    -0.460 N 
BRANCH  23  24
ATOM     24  C   LIG    1       -3.944  -1.961  -1.557  0.00  0.00    +0.180 C 
ATOM     25  C   LIG    1       -5.463  -2.138  -1.516  0.00  0.00    +0.070 C 
ATOM     26  C   LIG    1       -4.716  -2.247  -2.847  0.00  0.00    +0.060 C 
ENDBRANCH  23  24
ENDBRANCH  16  19
ENDBRANCH   2  15
TORSDOF 4
