REMARK  Name = ZINCqH0000039CHq.0
REMARK                            x       y       z     vdW  Elec       q    Type
REMARK                         _______ _______ _______ _____ _____    ______ ____
ROOT
ATOM      1  O   LIG    1        8.512   0.463  -1.487  0.00  0.00    -0.510 OA
ATOM      2  C   LIG    1        8.238  -0.229  -0.525  0.00  0.00    +0.590 C 
ATOM      3  N   LIG    1        7.020  -0.138   0.045  0.00  0.00    -0.730 N 
ATOM      4  H   LIG    1        6.801  -0.690   0.812  0.00  0.00    +0.400 HD
ENDROOT
BRANCH   2   5
ATOM      5  C   LIG    1        9.235  -1.165   0.016  0.00  0.00    +0.010 A 
ATOM      6  C   LIG    1       10.491  -1.345  -0.471  0.00  0.00    +0.070 A 
ATOM      7  C   LIG    1       11.125  -2.329   0.327  0.00  0.00    -0.120 A 
ATOM      8  C   LIG    1       12.398  -2.912   0.303  0.00  0.00    +0.120 A 
ATOM      9  C   LIG    1       12.728  -3.860   1.228  0.00  0.00    -0.120 A 
ATOM     10  C   LIG    1       11.812  -4.253   2.197  0.00  0.00    +0.080 A 
ATOM     11  C   LIG    1       10.554  -3.693   2.240  0.00  0.00    +0.010 A 
ATOM     12 BR   LIG    1       14.448  -4.645   1.193  0.00  0.00    -0.050 Br
ATOM     13  C   LIG    1       10.194  -2.725   1.307  0.00  0.00    +0.130 A 
ATOM     14  N   LIG    1        9.046  -1.996   1.103  0.00  0.00    -0.580 N 
ATOM     15  H   LIG    1        8.236  -2.057   1.633  0.00  0.00    +0.420 HD
ENDBRANCH   2   5
BRANCH   3  16
ATOM     16  C   LIG    1        6.027   0.794  -0.493  0.00  0.00    +0.290 C 
BRANCH  16  17
ATOM     17  C   LIG    1        4.741   0.701   0.330  0.00  0.00    +0.000 C 
ATOM     18  C   LIG    1        3.990  -0.618   0.036  0.00  0.00    +0.080 C 
ATOM     19  C   LIG    1        2.528  -0.229   0.080  0.00  0.00    +0.520 C 
ATOM     20  N   LIG    1        2.402   1.106  -0.015  0.00  0.00    -0.560 N 
ATOM     21  O   LIG    1        1.605  -1.008   0.183  0.00  0.00    -0.500 OA
ATOM     22  C   LIG    1        3.712   1.759  -0.129  0.00  0.00    +0.280 C 
BRANCH  20  23
ATOM     23  C   LIG    1        1.180   1.787   0.000  0.00  0.00    +0.160 A 
ATOM     24  C   LIG    1        1.157   3.176   0.023  0.00  0.00    -0.030 A 
ATOM     25  C   LIG    1       -0.051   3.845   0.043  0.00  0.00    +0.040 A 
ATOM     26  C   LIG    1       -1.237   3.133   0.029  0.00  0.00    -0.020 A 
ATOM     27  C   LIG    1       -1.218   1.751   0.006  0.00  0.00    +0.040 A 
ATOM     28  C   LIG    1       -0.013   1.076  -0.008  0.00  0.00    -0.010 A 
ENDBRANCH  20  23
ENDBRANCH  16  17
ENDBRANCH   3  16
TORSDOF 4
