REMARK  Name = ZINCpe000000XMDS.0
REMARK                            x       y       z     vdW  Elec       q    Type
REMARK                         _______ _______ _______ _____ _____    ______ ____
ROOT
ATOM      1  N   LIG    1        0.431   6.315  -1.415  0.00  0.00    -0.590 N 
ATOM      2  C   LIG    1        0.936   5.069  -1.323  0.00  0.00    +0.510 C 
ATOM      3  O   LIG    1        1.874   4.742  -2.019  0.00  0.00    -0.510 OA
ENDROOT
BRANCH   2   4
ATOM      4  C   LIG    1        0.334   4.082  -0.356  0.00  0.00    +0.250 C 
ATOM      5  C   LIG    1        0.979   4.258   1.020  0.00  0.00    +0.090 C 
BRANCH   4   6
ATOM      6  N   LIG    1        0.574   2.719  -0.837  0.00  0.00    -0.460 N 
ATOM      7  C   LIG    1        1.790   2.144  -1.056  0.00  0.00    +0.500 A 
ATOM      8  N   LIG    1        1.635   0.924  -1.482  0.00  0.00    -0.470 NA
ATOM      9  C   LIG    1        0.313   0.639  -1.562  0.00  0.00    -0.110 A 
ATOM     10  C   LIG    1       -0.434  -0.487  -1.946  0.00  0.00    +0.510 A 
ATOM     11  N   LIG    1       -1.761  -0.413  -1.900  0.00  0.00    -0.590 NA
ATOM     12  C   LIG    1       -2.371   0.689  -1.505  0.00  0.00    +0.570 A 
ATOM     13  N   LIG    1       -1.712   1.768  -1.136  0.00  0.00    -0.560 NA
ATOM     14  C   LIG    1       -0.384   1.788  -1.149  0.00  0.00    +0.300 A 
BRANCH  10  15
ATOM     15  N   LIG    1        0.196  -1.647  -2.362  0.00  0.00    -0.820 N 
ATOM     16  H   LIG    1        1.165  -1.689  -2.390  0.00  0.00    +0.420 HD
ATOM     17  H   LIG    1       -0.331  -2.418  -2.625  0.00  0.00    +0.410 HD
ENDBRANCH  10  15
ENDBRANCH   4   6
ENDBRANCH   2   4
BRANCH   1  18
ATOM     18  C   LIG    1        0.946   7.241  -2.427  0.00  0.00    +0.430 C 
BRANCH  18  23
ATOM     19  C   LIG    1       -0.550   5.627  -6.966  0.00  0.00    +0.170 C 
ATOM     20  C   LIG    1       -0.506   6.393  -5.669  0.00  0.00    -0.010 A 
ATOM     21  C   LIG    1       -1.386   7.333  -5.280  0.00  0.00    -0.070 A 
ATOM     22  C   LIG    1       -0.967   7.786  -4.008  0.00  0.00    -0.040 A 
ATOM     23  C   LIG    1        0.144   7.095  -3.695  0.00  0.00    -0.040 A 
ATOM     24  O   LIG    1        0.422   6.257  -4.707  0.00  0.00    -0.170 OA
ENDBRANCH  18  23
ENDBRANCH   1  18
BRANCH   1  25
ATOM     25  C   LIG    1       -0.632   6.745  -0.503  0.00  0.00    +0.300 C 
BRANCH  25  26
ATOM     26  C   LIG    1       -0.019   7.525   0.662  0.00  0.00    +0.160 C 
BRANCH  26  27
ATOM     27  O   LIG    1        0.531   8.751   0.177  0.00  0.00    -0.570 OA
ATOM     28  H   LIG    1        0.937   9.298   0.864  0.00  0.00    +0.390 HD
ENDBRANCH  26  27
ENDBRANCH  25  26
ENDBRANCH   1  25
TORSDOF 8
