REMARK  Name = ZINCrH00000No55a.0
REMARK                            x       y       z     vdW  Elec       q    Type
REMARK                         _______ _______ _______ _____ _____    ______ ____
ROOT
ATOM      1  C   LIG    1        0.087   1.375  -0.276  0.00  0.00    +0.440 C 
ATOM      2  C   LIG    1        1.219   2.117   0.021  0.00  0.00    -0.410 C 
ENDROOT
BRANCH   1   3
ATOM      3  N   LIG    1       -1.136   1.932  -0.153  0.00  0.00    -0.630 N 
ATOM      4  H   LIG    1       -1.220   2.874   0.061  0.00  0.00    +0.430 HD
BRANCH   3  10
ATOM      5  C   LIG    1       -3.543   1.758  -0.367  0.00  0.00    -0.170 A 
ATOM      6  C   LIG    1       -4.678   0.967  -0.557  0.00  0.00    +0.130 A 
ATOM      7  C   LIG    1       -4.550  -0.398  -0.699  0.00  0.00    -0.020 A 
ATOM      8  C   LIG    1       -3.298  -0.990  -0.660  0.00  0.00    +0.100 A 
ATOM      9  C   LIG    1       -2.166  -0.221  -0.480  0.00  0.00    -0.040 A 
ATOM     10  C   LIG    1       -2.275   1.155  -0.335  0.00  0.00    +0.220 A 
BRANCH   5  11
ATOM     11  C   LIG    1       -3.674   3.218  -0.208  0.00  0.00    +0.520 C 
ATOM     12  O   LIG    1       -2.679   3.912  -0.127  0.00  0.00    -0.510 OA
BRANCH  11  14
ATOM     13  C   LIG    1       -4.949   5.225   0.004  0.00  0.00    +0.280 C 
ATOM     14  O   LIG    1       -4.896   3.783  -0.154  0.00  0.00    -0.350 OA
ENDBRANCH  11  14
ENDBRANCH   5  11
ENDBRANCH   3  10
ENDBRANCH   1   3
BRANCH   2  15
ATOM     15  C   LIG    1        1.101   3.493   0.340  0.00  0.00    +0.400 C 
ATOM     16  O   LIG    1        0.684   4.275  -0.490  0.00  0.00    -0.370 OA
BRANCH  15  17
ATOM     17  C   LIG    1        1.493   3.985   1.709  0.00  0.00    +0.420 C 
ATOM     18  F   LIG    1        2.444   5.004   1.584  0.00  0.00    -0.160 F 
ATOM     19  F   LIG    1        2.037   2.928   2.447  0.00  0.00    -0.160 F 
ATOM     20  F   LIG    1        0.363   4.481   2.368  0.00  0.00    -0.160 F 
ENDBRANCH  15  17
ENDBRANCH   2  15
BRANCH   2  21
ATOM     21  C   LIG    1        2.541   1.478   0.004  0.00  0.00    +0.470 C 
ATOM     22  O   LIG    1        2.806   0.608   0.812  0.00  0.00    -0.430 OA
BRANCH  21  23
ATOM     23  C   LIG    1        3.550   1.892  -0.995  0.00  0.00    -0.170 A 
ATOM     24  C   LIG    1        3.252   2.894  -1.919  0.00  0.00    +0.060 A 
ATOM     25  C   LIG    1        4.200   3.280  -2.844  0.00  0.00    +0.000 A 
ATOM     26  C   LIG    1        5.440   2.667  -2.864  0.00  0.00    +0.050 A 
ATOM     27  C   LIG    1        5.741   1.669  -1.955  0.00  0.00    +0.000 A 
ATOM     28  C   LIG    1        4.804   1.278  -1.020  0.00  0.00    +0.080 A 
ENDBRANCH  21  23
ENDBRANCH   2  21
TORSDOF 8
