REMARK  Name = ZINCpk000000pQS4.0
REMARK                            x       y       z     vdW  Elec       q    Type
REMARK                         _______ _______ _______ _____ _____    ______ ____
ROOT
ATOM      1  N   LIG    1        4.693   5.519  -0.708  0.00  0.00    -0.530 NA
ATOM      2  C   LIG    1        3.388   6.179  -0.574  0.00  0.00    +0.180 C 
ATOM      3  C   LIG    1        2.554   5.447   0.482  0.00  0.00    +0.290 C 
ATOM      4  N   LIG    1        2.495   4.021   0.126  0.00  0.00    -0.610 N 
ATOM      5  C   LIG    1        3.759   3.321  -0.152  0.00  0.00    +0.280 C 
ATOM      6  C   LIG    1        1.316   3.372   0.061  0.00  0.00    +0.560 C 
ATOM      7  O   LIG    1        0.276   3.987   0.188  0.00  0.00    -0.530 OA
ATOM      8  C   LIG    1        4.545   4.139  -1.189  0.00  0.00    +0.170 C 
ENDROOT
BRANCH   6   9
ATOM      9  C   LIG    1        1.288   1.911  -0.165  0.00  0.00    -0.120 A 
ATOM     10  C   LIG    1        0.262   1.338  -0.918  0.00  0.00    +0.080 A 
ATOM     11  C   LIG    1        0.242  -0.026  -1.125  0.00  0.00    +0.030 A 
ATOM     12  C   LIG    1        1.236  -0.825  -0.590  0.00  0.00    -0.090 A 
ATOM     13  C   LIG    1        2.257  -0.263   0.157  0.00  0.00    +0.030 A 
ATOM     14  C   LIG    1        2.288   1.099   0.372  0.00  0.00    +0.050 A 
BRANCH  12  15
ATOM     15  C   LIG    1        1.208  -2.314  -0.821  0.00  0.00    +0.350 C 
BRANCH  15  16
ATOM     16  N   LIG    1        1.949  -2.632  -2.044  0.00  0.00    -0.460 N 
ATOM     17  C   LIG    1        3.285  -2.917  -2.134  0.00  0.00    +0.110 A 
ATOM     18  C   LIG    1        3.548  -3.148  -3.434  0.00  0.00    +0.140 A 
ATOM     19  N   LIG    1        2.404  -3.008  -4.120  0.00  0.00    -0.490 NA
ATOM     20  C   LIG    1        1.441  -2.704  -3.293  0.00  0.00    +0.380 A 
ENDBRANCH  15  16
ENDBRANCH  12  15
ENDBRANCH   6   9
BRANCH   1  21
ATOM     21  C   LIG    1        5.586   6.289  -1.583  0.00  0.00    +0.190 C 
BRANCH  21  22
ATOM     22  C   LIG    1        5.191   6.060  -3.043  0.00  0.00    +0.170 C 
BRANCH  22  24
ATOM     23  C   LIG    1        5.893   6.393  -5.418  0.00  0.00    +0.010 C 
ATOM     24  C   LIG    1        6.218   6.727  -3.961  0.00  0.00    -0.010 C 
ENDBRANCH  22  24
BRANCH  22  25
ATOM     25  O   LIG    1        3.900   6.625  -3.282  0.00  0.00    -0.560 OA
ATOM     26  H   LIG    1        3.852   7.577  -3.120  0.00  0.00    +0.370 HD
ENDBRANCH  22  25
ENDBRANCH  21  22
ENDBRANCH   1  21
TORSDOF 7
