REMARK  Name = ZINCvU0000000H9n.0
REMARK                            x       y       z     vdW  Elec       q    Type
REMARK                         _______ _______ _______ _____ _____    ______ ____
ROOT
ATOM      1  N   LIG    1       -5.513   6.973   6.062  0.00  0.00    -0.400 N 
ATOM      2  C   LIG    1       -5.094   6.016   5.180  0.00  0.00    +0.160 A 
ATOM      3  N   LIG    1       -6.100   5.190   4.996  0.00  0.00    -0.290 NA
ATOM      4  N   LIG    1       -7.113   5.565   5.693  0.00  0.00    -0.240 NA
ATOM      5  C   LIG    1       -6.817   6.653   6.366  0.00  0.00    +0.230 A 
ENDROOT
BRANCH   5   6
ATOM      6  C   LIG    1       -7.714   7.391   7.280  0.00  0.00    -0.010 A 
ATOM      7  C   LIG    1       -7.826   8.779   7.183  0.00  0.00    +0.050 A 
ATOM      8  C   LIG    1       -8.670   9.461   8.036  0.00  0.00    +0.030 A 
ATOM      9  C   LIG    1       -9.394   8.774   8.993  0.00  0.00    +0.050 A 
ATOM     10  C   LIG    1       -9.284   7.399   9.100  0.00  0.00    +0.030 A 
ATOM     11  C   LIG    1       -8.449   6.703   8.249  0.00  0.00    -0.000 A 
ATOM     12 CL   LIG    1       -8.311   4.978   8.383  0.00  0.00    -0.040 Cl
ENDBRANCH   5   6
BRANCH   1  16
ATOM     13  C   LIG    1       -3.302  10.195   7.526  0.00  0.00    +0.150 A 
ATOM     14  C   LIG    1       -3.646  10.142   6.183  0.00  0.00    +0.010 A 
ATOM     15  C   LIG    1       -4.377   9.076   5.698  0.00  0.00    +0.080 A 
ATOM     16  C   LIG    1       -4.769   8.057   6.555  0.00  0.00    +0.060 A 
ATOM     17  C   LIG    1       -4.429   8.112   7.900  0.00  0.00    +0.080 A 
ATOM     18  C   LIG    1       -3.694   9.176   8.383  0.00  0.00    -0.050 A 
BRANCH  13  20
ATOM     19  C   LIG    1       -2.264  11.233   9.396  0.00  0.00    +0.250 C 
ATOM     20  O   LIG    1       -2.582  11.244   8.003  0.00  0.00    -0.310 OA
ENDBRANCH  13  20
ENDBRANCH   1  16
BRANCH   2  21
ATOM     21  S   LIG    1       -3.502   5.906   4.434  0.00  0.00    +0.090 S 
BRANCH  21  22
ATOM     22  C   LIG    1       -3.725   4.414   3.434  0.00  0.00    +0.010 C 
ATOM     23  C   LIG    1       -3.943   3.211   4.355  0.00  0.00    +0.090 C 
BRANCH  22  24
ATOM     24  C   LIG    1       -2.497   4.185   2.591  0.00  0.00    +0.540 C 
ATOM     25  N   LIG    1       -2.588   3.486   1.443  0.00  0.00    -0.710 N 
ATOM     26  H   LIG    1       -3.445   3.130   1.159  0.00  0.00    +0.400 HD
ATOM     27  O   LIG    1       -1.426   4.630   2.947  0.00  0.00    -0.520 OA
BRANCH  25  28
ATOM     28  C   LIG    1       -1.394   3.264   0.624  0.00  0.00    +0.240 C 
ATOM     29  C   LIG    1       -0.696   1.936   1.012  0.00  0.00    +0.000 C 
ATOM     30  C   LIG    1        0.100   1.545  -0.250  0.00  0.00    +0.020 C 
ATOM     31  C   LIG    1       -0.589   2.238  -1.438  0.00  0.00    +0.020 C 
ATOM     32  C   LIG    1       -1.781   3.027  -0.857  0.00  0.00    +0.010 C 
ENDBRANCH  25  28
ENDBRANCH  22  24
ENDBRANCH  21  22
ENDBRANCH   2  21
TORSDOF 7
