REMARK  Name = ZINCrH000004uzGU.0
REMARK                            x       y       z     vdW  Elec       q    Type
REMARK                         _______ _______ _______ _____ _____    ______ ____
ROOT
ATOM      1  O   LIG    1       -4.827   1.086  -3.817  0.00  0.00    -0.560 OA
ATOM      2  C   LIG    1       -5.523   1.580  -2.952  0.00  0.00    +0.700 C 
ATOM      3  N   LIG    1       -5.333   1.243  -1.661  0.00  0.00    -0.730 N 
ATOM      4  H   LIG    1       -5.889   1.637  -0.970  0.00  0.00    +0.400 HD
ATOM      5  N   LIG    1       -6.485   2.464  -3.283  0.00  0.00    -0.740 N 
ATOM      6  H   LIG    1       -7.040   2.858  -2.593  0.00  0.00    +0.400 HD
ENDROOT
BRANCH   3   7
ATOM      7  C   LIG    1       -4.288   0.282  -1.300  0.00  0.00    +0.280 C 
ATOM      8  C   LIG    1       -4.657  -0.398   0.021  0.00  0.00    +0.040 C 
ATOM      9  C   LIG    1       -4.500   0.624   1.153  0.00  0.00    +0.040 C 
ATOM     10  C   LIG    1       -3.013   0.953   1.309  0.00  0.00    +0.260 C 
ATOM     11  N   LIG    1       -2.434   1.313   0.021  0.00  0.00    -0.560 N 
ATOM     12  C   LIG    1       -2.978   1.001  -1.157  0.00  0.00    +0.500 C 
ATOM     13  O   LIG    1       -2.381   1.314  -2.165  0.00  0.00    -0.500 OA
BRANCH  11  14
ATOM     14  C   LIG    1       -1.230   2.027   0.019  0.00  0.00    +0.100 A 
ATOM     15  C   LIG    1       -1.243   3.415   0.031  0.00  0.00    +0.050 A 
ATOM     16  C   LIG    1       -0.053   4.116   0.024  0.00  0.00    +0.020 A 
ATOM     17  C   LIG    1        1.152   3.438   0.009  0.00  0.00    +0.060 A 
ATOM     18  C   LIG    1        1.171   2.055   0.002  0.00  0.00    -0.010 A 
ATOM     19  C   LIG    1       -0.016   1.347   0.009  0.00  0.00    +0.110 A 
ATOM     20  F   LIG    1        0.002  -0.004   0.002  0.00  0.00    -0.130 F 
ENDBRANCH  11  14
ENDBRANCH   3   7
BRANCH   5  21
ATOM     21  C   LIG    1       -6.691   2.830  -4.687  0.00  0.00    +0.340 C 
BRANCH  21  22
ATOM     22  C   LIG    1       -7.817   3.827  -4.786  0.00  0.00    -0.070 A 
ATOM     23  C   LIG    1       -9.116   3.388  -4.956  0.00  0.00    +0.030 A 
ATOM     24  C   LIG    1      -10.151   4.303  -5.041  0.00  0.00    +0.110 A 
ATOM     25  C   LIG    1       -9.882   5.659  -4.967  0.00  0.00    +0.030 A 
ATOM     26  C   LIG    1       -8.581   6.098  -4.803  0.00  0.00    -0.070 A 
ATOM     27 BR   LIG    1       -8.213   7.950  -4.702  0.00  0.00    -0.030 Br
ATOM     28  F   LIG    1      -11.422   3.874  -5.202  0.00  0.00    -0.130 F 
ATOM     29  C   LIG    1       -7.549   5.182  -4.712  0.00  0.00    +0.060 A 
ENDBRANCH  21  22
ENDBRANCH   5  21
TORSDOF 4
