REMARK  Name = ZINCpk00001AZitV.0
REMARK                            x       y       z     vdW  Elec       q    Type
REMARK                         _______ _______ _______ _____ _____    ______ ____
ROOT
ATOM      1  C   LIG    1        6.894   1.684  -1.492  0.00  0.00    +0.530 C 
ATOM      2  N   LIG    1        7.530   1.478  -2.662  0.00  0.00    -0.620 N 
ATOM      3  C   LIG    1        6.898   1.473  -3.994  0.00  0.00    +0.260 C 
ATOM      4  C   LIG    1        7.840   0.617  -4.877  0.00  0.00    +0.180 C 
ATOM      5  C   LIG    1        9.234   1.022  -4.329  0.00  0.00    +0.280 C 
ATOM      6  C   LIG    1        8.969   1.227  -2.822  0.00  0.00    +0.290 C 
ATOM      7  O   LIG    1        7.517   1.667  -0.452  0.00  0.00    -0.520 OA
ENDROOT
BRANCH   5   8
ATOM      8  N   LIG    1       10.209  -0.049  -4.546  0.00  0.00    -0.290 N 
ATOM      9  C   LIG    1       10.412  -1.113  -3.735  0.00  0.00    +0.130 A 
ATOM     10  C   LIG    1       11.395  -1.844  -4.311  0.00  0.00    +0.150 A 
ATOM     11  N   LIG    1       11.740  -1.201  -5.432  0.00  0.00    -0.270 NA
ATOM     12  N   LIG    1       11.015  -0.144  -5.545  0.00  0.00    -0.070 NA
ENDBRANCH   5   8
BRANCH   4  13
ATOM     13  O   LIG    1        7.710   0.968  -6.256  0.00  0.00    -0.540 OA
ATOM     14  H   LIG    1        6.824   0.823  -6.617  0.00  0.00    +0.390 HD
ENDBRANCH   4  13
BRANCH   1  15
ATOM     15  C   LIG    1        5.408   1.937  -1.476  0.00  0.00    +0.070 C 
BRANCH  15  16
ATOM     16  C   LIG    1        4.940   2.137  -0.034  0.00  0.00    +0.130 C 
BRANCH  16  25
ATOM     17  C   LIG    1        1.201  -2.203  -0.021  0.00  0.00    +0.080 C 
ATOM     18  C   LIG    1        1.205  -0.696  -0.013  0.00  0.00    -0.110 A 
ATOM     19  C   LIG    1        0.002  -0.004   0.002  0.00  0.00    +0.030 A 
ATOM     20  C   LIG    1       -0.017   1.374   0.010  0.00  0.00    -0.010 A 
ATOM     21  C   LIG    1        1.181   2.081   0.002  0.00  0.00    +0.090 A 
ATOM     22  N   LIG    1        1.490   3.423   0.007  0.00  0.00    -0.600 N 
ATOM     23  H   LIG    1        0.841   4.144   0.017  0.00  0.00    +0.420 HD
ATOM     24  C   LIG    1        2.848   3.587  -0.005  0.00  0.00    +0.230 A 
ATOM     25  C   LIG    1        3.454   2.390  -0.018  0.00  0.00    -0.180 A 
ATOM     26  C   LIG    1        2.398   1.375  -0.013  0.00  0.00    -0.100 A 
ATOM     27  C   LIG    1        2.394  -0.021  -0.021  0.00  0.00    +0.050 A 
ENDBRANCH  16  25
ENDBRANCH  15  16
ENDBRANCH   1  15
TORSDOF 5
