REMARK  Name = ZINCrg000000naGa.0
REMARK                            x       y       z     vdW  Elec       q    Type
REMARK                         _______ _______ _______ _____ _____    ______ ____
ROOT
ATOM      1  N   LIG    1        2.944   0.794  -4.385  0.00  0.00    -0.520 NA
ATOM      2  C   LIG    1        3.216   2.032  -3.641  0.00  0.00    +0.170 C 
ATOM      3  C   LIG    1        3.930   1.689  -2.329  0.00  0.00    +0.310 C 
ATOM      4  N   LIG    1        3.126   0.692  -1.606  0.00  0.00    -1.000 NA
ATOM      5  C   LIG    1        2.703  -0.517  -2.328  0.00  0.00    +0.310 C 
ATOM      6  C   LIG    1        2.032  -0.085  -3.641  0.00  0.00    +0.160 C 
ENDROOT
BRANCH   4   7
ATOM      7  S   LIG    1        2.713   0.923  -0.019  0.00  0.00    +2.690 S 
ATOM      8  O   LIG    1        2.458  -0.366   0.521  0.00  0.00    -0.940 OA
ATOM      9  O   LIG    1        3.678   1.815   0.521  0.00  0.00    -0.940 OA
BRANCH   7  10
ATOM     10  C   LIG    1        1.175   1.783   0.000  0.00  0.00    -0.680 A 
ATOM     11  C   LIG    1        1.157   3.165   0.008  0.00  0.00    +0.190 A 
ATOM     12  C   LIG    1       -0.050   3.840   0.023  0.00  0.00    +0.030 A 
ATOM     13  C   LIG    1       -1.238   3.133   0.030  0.00  0.00    +0.160 A 
ATOM     14  C   LIG    1       -1.219   1.750   0.017  0.00  0.00    -0.060 A 
ATOM     15  C   LIG    1       -0.013   1.076   0.008  0.00  0.00    +0.210 A 
BRANCH  14  16
ATOM     16  N   LIG    1       -2.490   0.993   0.019  0.00  0.00    +0.020 N 
ATOM     17  O   LIG    1       -3.554   1.588   0.028  0.00  0.00    -0.150 OA
ATOM     18  O   LIG    1       -2.474  -0.225   0.013  0.00  0.00    -0.150 OA
ENDBRANCH  14  16
ENDBRANCH   7  10
ENDBRANCH   4   7
BRANCH   1  19
ATOM     19  C   LIG    1        2.416   1.090  -5.723  0.00  0.00    +0.160 C 
BRANCH  19  20
ATOM     20  C   LIG    1        1.914  -0.203  -6.370  0.00  0.00    +0.220 C 
BRANCH  20  21
ATOM     21  O   LIG    1        2.994  -1.132  -6.479  0.00  0.00    -0.540 OA
ATOM     22  H   LIG    1        3.735  -0.814  -7.014  0.00  0.00    +0.370 HD
ENDBRANCH  20  21
BRANCH  20  23
ATOM     23  C   LIG    1        1.364   0.105  -7.765  0.00  0.00    +0.150 C 
BRANCH  23  24
ATOM     24  O   LIG    1        0.790  -1.079  -8.322  0.00  0.00    -0.360 OA
BRANCH  24  26
ATOM     25  C   LIG    1        1.349  -0.441 -10.585  0.00  0.00    +0.020 C 
ATOM     26  C   LIG    1        0.244  -0.900  -9.631  0.00  0.00    +0.110 C 
ATOM     27  C   LIG    1       -0.860   0.158  -9.582  0.00  0.00    +0.010 C 
ATOM     28  C   LIG    1       -0.340  -2.224 -10.126  0.00  0.00    +0.060 C 
ENDBRANCH  24  26
ENDBRANCH  23  24
ENDBRANCH  20  23
ENDBRANCH  19  20
ENDBRANCH   1  19
TORSDOF 9
