REMARK  Name = ZINCpe00000FUeQa.0
REMARK                            x       y       z     vdW  Elec       q    Type
REMARK                         _______ _______ _______ _____ _____    ______ ____
ROOT
ATOM      1  N   LIG    1       -0.523  -1.222   2.172  0.00  0.00    -0.670 N 
ATOM      2  H   LIG    1       -1.100  -0.863   1.480  0.00  0.00    +0.430 HD
ATOM      3  C   LIG    1       -0.374  -2.555   2.302  0.00  0.00    +0.510 C 
ATOM      4  O   LIG    1        0.281  -3.005   3.219  0.00  0.00    -0.480 OA
ENDROOT
BRANCH   1  10
ATOM      5  C   LIG    1        0.625   0.865   2.568  0.00  0.00    -0.680 A 
ATOM      6  C   LIG    1        1.288   1.721   3.425  0.00  0.00    +0.150 A 
ATOM      7  C   LIG    1        1.487   1.362   4.746  0.00  0.00    -0.010 A 
ATOM      8  C   LIG    1        1.024   0.146   5.213  0.00  0.00    +0.090 A 
ATOM      9  C   LIG    1        0.360  -0.715   4.361  0.00  0.00    +0.010 A 
ATOM     10  C   LIG    1        0.153  -0.355   3.035  0.00  0.00    +0.230 A 
BRANCH   5  11
ATOM     11  S   LIG    1        0.371   1.323   0.885  0.00  0.00    +2.490 S 
ATOM     12  O   LIG    1       -1.019   1.122   0.673  0.00  0.00    -0.930 OA
ATOM     13  O   LIG    1        0.948   2.618   0.784  0.00  0.00    -0.930 OA
BRANCH  11  15
ATOM     14  C   LIG    1        1.201   0.414  -1.557  0.00  0.00    +0.100 C 
ATOM     15  C   LIG    1        1.341   0.119  -0.063  0.00  0.00    -0.340 C 
ENDBRANCH  11  15
ENDBRANCH   5  11
ENDBRANCH   1  10
BRANCH   3  16
ATOM     16  C   LIG    1       -1.014  -3.477   1.318  0.00  0.00    +0.510 C 
ATOM     17  N   LIG    1       -0.865  -4.810   1.448  0.00  0.00    -0.680 N 
ATOM     18  H   LIG    1       -0.341  -5.171   2.180  0.00  0.00    +0.420 HD
ATOM     19  O   LIG    1       -1.669  -3.026   0.401  0.00  0.00    -0.510 OA
BRANCH  17  20
ATOM     20  C   LIG    1       -1.493  -5.715   0.482  0.00  0.00    +0.230 C 
ATOM     21  C   LIG    1       -0.578  -5.879  -0.734  0.00  0.00    +0.050 C 
BRANCH  20  22
ATOM     22  C   LIG    1       -1.722  -7.080   1.136  0.00  0.00    +0.330 C 
BRANCH  22  23
ATOM     23  N   LIG    1       -2.691  -6.943   2.226  0.00  0.00    -0.380 N 
ATOM     24  C   LIG    1       -3.838  -7.640   2.360  0.00  0.00    +0.220 A 
ATOM     25  C   LIG    1       -4.444  -7.222   3.496  0.00  0.00    -0.120 A 
ATOM     26  C   LIG    1       -3.644  -6.229   4.070  0.00  0.00    +0.230 A 
ATOM     27  N   LIG    1       -2.593  -6.061   3.309  0.00  0.00    -0.290 NA
ENDBRANCH  22  23
ENDBRANCH  20  22
ENDBRANCH  17  20
ENDBRANCH   3  16
TORSDOF 7
