REMARK  Name = ZINCrD00000eai2h.0
REMARK                            x       y       z     vdW  Elec       q    Type
REMARK                         _______ _______ _______ _____ _____    ______ ____
ROOT
ATOM      1  C   LIG    1       -0.417   1.030  -2.287  0.00  0.00    +0.370 A 
ATOM      2  N   LIG    1        0.463   0.054  -2.322  0.00  0.00    -0.310 NA
ATOM      3  N   LIG    1        0.379  -0.577  -3.438  0.00  0.00    -0.260 NA
ATOM      4  C   LIG    1       -0.560  -0.043  -4.184  0.00  0.00    +0.210 A 
ATOM      5  N   LIG    1       -1.102   0.999  -3.467  0.00  0.00    -0.470 N 
ENDROOT
BRANCH   1  11
ATOM      6  C   LIG    1       -0.211   1.358   2.316  0.00  0.00    +0.160 C 
ATOM      7  C   LIG    1       -1.614   1.268   2.944  0.00  0.00    +0.010 C 
ATOM      8  C   LIG    1       -2.591   1.472   1.763  0.00  0.00    +0.030 C 
ATOM      9  C   LIG    1       -1.855   2.369   0.757  0.00  0.00    +0.010 C 
ATOM     10  C   LIG    1       -1.967   1.749  -0.652  0.00  0.00    +0.180 C 
ATOM     11  N   LIG    1       -0.616   1.919  -1.246  0.00  0.00    -0.430 N 
ATOM     12  C   LIG    1        0.314   1.639  -0.122  0.00  0.00    +0.250 C 
ATOM     13  C   LIG    1       -0.347   2.297   1.108  0.00  0.00    +0.010 C 
BRANCH   6  15
ATOM     14  C   LIG    1        1.000  -0.639   2.857  0.00  0.00    +0.200 C 
ATOM     15  O   LIG    1        0.220   0.065   1.888  0.00  0.00    -0.370 OA
ENDBRANCH   6  15
ENDBRANCH   1  11
BRANCH   4  16
ATOM     16  C   LIG    1       -0.964  -0.483  -5.537  0.00  0.00    -0.060 A 
ATOM     17  C   LIG    1       -0.597  -1.746  -6.013  0.00  0.00    +0.120 A 
ATOM     18  C   LIG    1       -1.000  -2.110  -7.287  0.00  0.00    -0.010 A 
ATOM     19  C   LIG    1       -1.746  -1.221  -8.040  0.00  0.00    +0.270 A 
ATOM     20  N   LIG    1       -2.078  -0.036  -7.564  0.00  0.00    -0.470 NA
ATOM     21  C   LIG    1       -1.722   0.353  -6.358  0.00  0.00    +0.260 A 
ENDBRANCH   4  16
BRANCH   5  22
ATOM     22  C   LIG    1       -2.186   1.891  -3.885  0.00  0.00    +0.400 C 
BRANCH  22  23
ATOM     23  C   LIG    1       -1.603   3.164  -4.441  0.00  0.00    -0.230 A 
ATOM     24  C   LIG    1       -1.416   3.422  -5.737  0.00  0.00    +0.030 A 
ATOM     25  C   LIG    1       -0.865   4.662  -6.011  0.00  0.00    +0.000 A 
ATOM     26  C   LIG    1       -0.605   5.410  -4.938  0.00  0.00    -0.040 A 
ATOM     27  S   LIG    1       -1.073   4.540  -3.483  0.00  0.00    +0.160 S 
ENDBRANCH  22  23
ENDBRANCH   5  22
TORSDOF 5
