REMARK  Name = ZINCkj000005j2Ja.0
REMARK                            x       y       z     vdW  Elec       q    Type
REMARK                         _______ _______ _______ _____ _____    ______ ____
ROOT
ATOM      1  C   LIG    1       -0.734   1.954   1.269  0.00  0.00    +0.030 C 
ATOM      2  C   LIG    1       -0.018   1.461   0.010  0.00  0.00    +0.250 C 
ENDROOT
BRANCH   2   3
ATOM      3  N   LIG    1        0.002  -0.004   0.002  0.00  0.00    -0.740 N 
ATOM      4  H   LIG    1        0.773  -0.481   0.347  0.00  0.00    +0.400 HD
BRANCH   3   5
ATOM      5  C   LIG    1       -1.086  -0.712  -0.501  0.00  0.00    +0.250 A 
ATOM      6  C   LIG    1       -2.206  -0.045  -0.996  0.00  0.00    -0.090 A 
ATOM      7  C   LIG    1       -3.266  -0.779  -1.492  0.00  0.00    +0.320 A 
ATOM      8  N   LIG    1       -3.237  -2.096  -1.494  0.00  0.00    -0.490 NA
ATOM      9  C   LIG    1       -2.193  -2.774  -1.028  0.00  0.00    +0.240 A 
ATOM     10  C   LIG    1       -1.085  -2.106  -0.517  0.00  0.00    -0.050 A 
BRANCH   9  11
ATOM     11  C   LIG    1       -2.210  -4.206  -1.052  0.00  0.00    +0.250 C 
ATOM     12  N   LIG    1       -2.223  -5.342  -1.071  0.00  0.00    -0.370 NA
ENDBRANCH   9  11
ENDBRANCH   3   5
ENDBRANCH   2   3
BRANCH   2  13
ATOM     13  C   LIG    1        1.418   1.990  -0.001  0.00  0.00    +0.040 C 
BRANCH  13  14
ATOM     14  C   LIG    1        2.095   1.602  -1.317  0.00  0.00    +0.250 C 
BRANCH  14  15
ATOM     15  N   LIG    1        3.473   2.110  -1.327  0.00  0.00    -0.390 N 
ATOM     16  C   LIG    1        3.453   3.579  -1.318  0.00  0.00    +0.270 C 
ATOM     17  C   LIG    1        4.888   4.109  -1.310  0.00  0.00    +0.200 C 
ATOM     18  N   LIG    1        5.595   3.619  -2.502  0.00  0.00    -0.540 NA
ATOM     19  C   LIG    1        5.602   2.150  -2.537  0.00  0.00    +0.200 C 
ATOM     20  C   LIG    1        6.962   4.153  -2.560  0.00  0.00    +0.220 C 
ATOM     21  C   LIG    1        4.160   1.636  -2.535  0.00  0.00    +0.280 C 
ATOM     22  H   LIG    1        3.961   1.776  -0.510  0.00  0.00    +0.420 HD
ENDBRANCH  14  15
ENDBRANCH  13  14
ENDBRANCH   2  13
TORSDOF 6
