REMARK  Name = ZINCkj000005j2Ja.1
REMARK                            x       y       z     vdW  Elec       q    Type
REMARK                         _______ _______ _______ _____ _____    ______ ____
ROOT
ATOM      1  C   LIG    1       -0.702   1.707  -3.727  0.00  0.00    +0.030 C 
ATOM      2  C   LIG    1       -0.037   1.099  -2.490  0.00  0.00    +0.230 C 
ENDROOT
BRANCH   2   3
ATOM      3  N   LIG    1       -0.121  -0.362  -2.559  0.00  0.00    -0.730 N 
ATOM      4  H   LIG    1       -0.845  -0.827  -2.113  0.00  0.00    +0.400 HD
BRANCH   3   5
ATOM      5  C   LIG    1        0.839  -1.082  -3.265  0.00  0.00    +0.250 A 
ATOM      6  C   LIG    1        1.885  -0.429  -3.917  0.00  0.00    -0.090 A 
ATOM      7  C   LIG    1        2.823  -1.176  -4.605  0.00  0.00    +0.320 A 
ATOM      8  N   LIG    1        2.737  -2.489  -4.660  0.00  0.00    -0.490 NA
ATOM      9  C   LIG    1        1.755  -3.153  -4.058  0.00  0.00    +0.240 A 
ATOM     10  C   LIG    1        0.776  -2.472  -3.341  0.00  0.00    -0.060 A 
BRANCH   9  11
ATOM     11  C   LIG    1        1.706  -4.581  -4.147  0.00  0.00    +0.260 C 
ATOM     12  N   LIG    1        1.666  -5.714  -4.218  0.00  0.00    -0.380 NA
ENDBRANCH   9  11
ENDBRANCH   3   5
ENDBRANCH   2   3
BRANCH   2  13
ATOM     13  C   LIG    1       -0.753   1.593  -1.232  0.00  0.00    +0.030 C 
BRANCH  13  14
ATOM     14  C   LIG    1       -0.013   1.086   0.008  0.00  0.00    +0.190 C 
BRANCH  14  15
ATOM     15  N   LIG    1       -0.700   1.560   1.217  0.00  0.00    -0.540 NA
ATOM     16  C   LIG    1       -0.610   3.022   1.335  0.00  0.00    +0.210 C 
ATOM     17  C   LIG    1       -1.387   3.479   2.571  0.00  0.00    +0.280 C 
ATOM     18  N   LIG    1       -0.826   2.838   3.768  0.00  0.00    -0.390 N 
ATOM     19  C   LIG    1       -0.946   1.379   3.646  0.00  0.00    +0.280 C 
ATOM     20  C   LIG    1       -1.561   3.292   4.956  0.00  0.00    +0.310 C 
ATOM     21  H   LIG    1        0.147   3.089   3.859  0.00  0.00    +0.420 HD
ATOM     22  C   LIG    1       -0.165   0.904   2.418  0.00  0.00    +0.200 C 
ENDBRANCH  14  15
ENDBRANCH  13  14
ENDBRANCH   2  13
TORSDOF 6
