REMARK  Name = ZINCrg00000fSoVa.0
REMARK                            x       y       z     vdW  Elec       q    Type
REMARK                         _______ _______ _______ _____ _____    ______ ____
ROOT
ATOM      1  C   LIG    1        5.376   4.296  -0.313  0.00  0.00    +0.510 C 
ATOM      2  N   LIG    1        4.688   5.359  -0.774  0.00  0.00    -0.610 N 
ATOM      3  C   LIG    1        5.037   5.952  -2.068  0.00  0.00    +0.300 C 
ATOM      4  O   LIG    1        5.087   3.805   0.758  0.00  0.00    -0.500 OA
ENDROOT
BRANCH   1   5
ATOM      5  C   LIG    1        6.503   3.716  -1.127  0.00  0.00    +0.380 C 
BRANCH   5   9
ATOM      6  C   LIG    1        9.773   2.181   2.008  0.00  0.00    +0.180 C 
ATOM      7  C   LIG    1        8.639   1.833   1.078  0.00  0.00    +0.070 A 
ATOM      8  N   LIG    1        8.059   2.779   0.395  0.00  0.00    -0.200 NA
ATOM      9  N   LIG    1        7.085   2.577  -0.414  0.00  0.00    -0.330 N 
ATOM     10  C   LIG    1        6.587   1.343  -0.631  0.00  0.00    +0.510 A 
ATOM     11  C   LIG    1        7.181   0.211   0.090  0.00  0.00    -0.110 A 
ATOM     12  O   LIG    1        5.663   1.171  -1.409  0.00  0.00    -0.500 OA
ATOM     13  C   LIG    1        8.233   0.499   0.959  0.00  0.00    +0.040 A 
ATOM     14  C   LIG    1        8.911  -0.593   1.746  0.00  0.00    +0.150 C 
BRANCH  11  15
ATOM     15  C   LIG    1        6.703  -1.127  -0.089  0.00  0.00    +0.270 C 
ATOM     16  N   LIG    1        6.323  -2.188  -0.232  0.00  0.00    -0.390 NA
ENDBRANCH  11  15
ENDBRANCH   5   9
ENDBRANCH   1   5
BRANCH   2  17
ATOM     17  C   LIG    1        3.592   5.923   0.018  0.00  0.00    +0.340 C 
BRANCH  17  18
ATOM     18  C   LIG    1        2.281   5.233  -0.362  0.00  0.00    +0.120 C 
ATOM     19  C   LIG    1        1.114   5.883   0.394  0.00  0.00    +0.230 C 
ATOM     20  O   LIG    1       -0.092   5.207   0.024  0.00  0.00    -0.300 OA
ATOM     21  C   LIG    1       -0.054   3.846   0.021  0.00  0.00    +0.040 A 
ATOM     22  C   LIG    1       -1.242   3.131   0.030  0.00  0.00    +0.020 A 
ATOM     23  C   LIG    1       -1.219   1.749   0.017  0.00  0.00    +0.010 A 
ATOM     24  C   LIG    1       -0.013   1.076   0.008  0.00  0.00    +0.020 A 
ATOM     25  C   LIG    1        1.176   1.782   0.000  0.00  0.00    +0.020 A 
ATOM     26  C   LIG    1        1.160   3.169   0.008  0.00  0.00    +0.060 A 
ATOM     27  O   LIG    1        2.338   3.850   0.005  0.00  0.00    -0.280 OA
ENDBRANCH  17  18
ENDBRANCH   2  17
TORSDOF 5
