REMARK  Name = ZINCrD000000BXTu.0
REMARK                            x       y       z     vdW  Elec       q    Type
REMARK                         _______ _______ _______ _____ _____    ______ ____
ROOT
ATOM      1  C   LIG    1       -2.737   3.365   0.543  0.00  0.00    -0.010 C 
ATOM      2  C   LIG    1       -2.627   2.930  -0.920  0.00  0.00    +0.060 C 
ATOM      3  C   LIG    1       -2.498   1.407  -0.993  0.00  0.00    +0.020 C 
ATOM      4  C   LIG    1       -1.225   0.971  -0.263  0.00  0.00    +0.270 C 
ATOM      5  N   LIG    1       -1.252   1.509   1.104  0.00  0.00    -0.600 N 
ATOM      6  C   LIG    1       -1.089   0.696   2.166  0.00  0.00    +0.570 C 
ATOM      7  O   LIG    1       -1.083   1.157   3.291  0.00  0.00    -0.530 OA
ATOM      8  C   LIG    1       -1.466   2.951   1.291  0.00  0.00    +0.300 C 
ENDROOT
BRANCH   6   9
ATOM      9  C   LIG    1       -0.915  -0.758   1.964  0.00  0.00    -0.130 A 
ATOM     10  C   LIG    1       -0.264  -1.234   0.825  0.00  0.00    +0.050 A 
ATOM     11  C   LIG    1       -0.104  -2.593   0.641  0.00  0.00    +0.040 A 
ATOM     12  C   LIG    1       -0.588  -3.481   1.581  0.00  0.00    -0.110 A 
ATOM     13  C   LIG    1       -0.570  -4.990   1.665  0.00  0.00    +0.270 C 
ATOM     14  O   LIG    1       -0.838  -5.313   3.042  0.00  0.00    -0.360 OA
ATOM     15  C   LIG    1       -1.637  -4.221   3.532  0.00  0.00    +0.270 C 
ATOM     16  C   LIG    1       -1.236  -3.014   2.716  0.00  0.00    -0.140 A 
ATOM     17  C   LIG    1       -1.397  -1.661   2.914  0.00  0.00    +0.100 A 
ENDBRANCH   6   9
BRANCH   1  19
ATOM     18  O   LIG    1       -2.921   5.517  -0.408  0.00  0.00    -0.460 OA
ATOM     19  C   LIG    1       -2.897   4.862   0.612  0.00  0.00    +0.510 C 
ATOM     20  N   LIG    1       -3.014   5.473   1.808  0.00  0.00    -0.660 N 
ATOM     21  H   LIG    1       -2.922   4.959   2.626  0.00  0.00    +0.420 HD
BRANCH  20  22
ATOM     22  C   LIG    1       -3.267   6.843   1.870  0.00  0.00    +0.370 A 
ATOM     23  C   LIG    1       -3.495   7.446   3.101  0.00  0.00    -0.050 A 
ATOM     24  C   LIG    1       -3.744   8.806   3.148  0.00  0.00    +0.130 A 
ATOM     25  C   LIG    1       -3.756   9.520   1.957  0.00  0.00    -0.180 A 
ATOM     26  C   LIG    1       -3.521   8.854   0.768  0.00  0.00    +0.340 A 
ATOM     27 BR   LIG    1       -4.091  11.381   1.960  0.00  0.00    -0.030 Br
ATOM     28  N   LIG    1       -3.281   7.557   0.755  0.00  0.00    -0.470 NA
ENDBRANCH  20  22
ENDBRANCH   1  19
TORSDOF 3
