REMARK  Name = ZINCqH00000074j7.0
REMARK                            x       y       z     vdW  Elec       q    Type
REMARK                         _______ _______ _______ _____ _____    ______ ____
ROOT
ATOM      1  C   LIG    1        0.385   3.506   0.017  0.00  0.00    +0.240 A 
ATOM      2  N   LIG    1       -0.860   3.142   0.027  0.00  0.00    -0.490 NA
ATOM      3  C   LIG    1       -1.103   1.845   0.017  0.00  0.00    +0.100 A 
ATOM      4  C   LIG    1       -0.013   1.076   0.008  0.00  0.00    -0.140 A 
ATOM      5  S   LIG    1        1.399   2.130   0.000  0.00  0.00    +0.250 S 
ENDROOT
BRANCH   1   7
ATOM      6  C   LIG    1        2.150   5.087   0.009  0.00  0.00    +0.570 C 
ATOM      7  N   LIG    1        0.829   4.822   0.021  0.00  0.00    -0.620 N 
ATOM      8  H   LIG    1        0.188   5.550   0.031  0.00  0.00    +0.420 HD
ATOM      9  O   LIG    1        2.953   4.174  -0.004  0.00  0.00    -0.500 OA
BRANCH   6  13
ATOM     10  C   LIG    1        3.507   9.111   0.020  0.00  0.00    +0.190 A 
ATOM     11  C   LIG    1        2.145   8.839   0.031  0.00  0.00    -0.060 A 
ATOM     12  C   LIG    1        1.701   7.535   0.022  0.00  0.00    +0.120 A 
ATOM     13  C   LIG    1        2.622   6.485   0.013  0.00  0.00    -0.170 A 
ATOM     14  C   LIG    1        3.992   6.762   0.001  0.00  0.00    +0.180 A 
ATOM     15  C   LIG    1        4.428   8.069   0.004  0.00  0.00    -0.140 A 
ATOM     16 BR   LIG    1        6.281   8.446  -0.011  0.00  0.00    -0.020 Br
BRANCH  10  18
ATOM     17  C   LIG    1        2.942  11.419   0.039  0.00  0.00    +0.250 C 
ATOM     18  O   LIG    1        3.941  10.397   0.023  0.00  0.00    -0.290 OA
ENDBRANCH  10  18
ENDBRANCH   6  13
ENDBRANCH   1   7
BRANCH   3  19
ATOM     19  C   LIG    1       -2.499   1.278   0.019  0.00  0.00    +0.280 C 
BRANCH  19  20
ATOM     20  N   LIG    1       -2.993   1.198   1.401  0.00  0.00    -0.530 NA
ATOM     21  C   LIG    1       -2.223   0.217   2.179  0.00  0.00    +0.150 C 
ATOM     22  C   LIG    1       -2.729   0.209   3.624  0.00  0.00    +0.160 C 
ATOM     23  O   LIG    1       -4.131  -0.074   3.631  0.00  0.00    -0.380 OA
ATOM     24  C   LIG    1       -4.912   0.862   2.882  0.00  0.00    +0.200 C 
ATOM     25  C   LIG    1       -4.754   2.258   3.487  0.00  0.00    +0.010 C 
ATOM     26  C   LIG    1       -1.987  -0.865   4.421  0.00  0.00    +0.050 C 
ATOM     27  C   LIG    1       -4.427   0.876   1.430  0.00  0.00    +0.150 C 
ENDBRANCH  19  20
ENDBRANCH   3  19
TORSDOF 5
