REMARK  Name = ZINCpk000005dWR4.0
REMARK                            x       y       z     vdW  Elec       q    Type
REMARK                         _______ _______ _______ _____ _____    ______ ____
ROOT
ATOM      1  C   LIG    1       -4.892   4.232  -1.863  0.00  0.00    +0.190 C 
ENDROOT
BRANCH   1   6
ATOM      2  C   LIG    1      -10.460   4.601  -0.991  0.00  0.00    +0.190 C 
ATOM      3  N   LIG    1       -9.002   4.772  -1.052  0.00  0.00    -0.550 NA
ATOM      4  C   LIG    1       -8.313   3.652  -0.398  0.00  0.00    +0.180 C 
ATOM      5  C   LIG    1       -6.804   3.906  -0.413  0.00  0.00    +0.190 C 
ATOM      6  N   LIG    1       -6.349   4.061  -1.802  0.00  0.00    -0.510 NA
ATOM      7  C   LIG    1       -7.039   5.182  -2.456  0.00  0.00    +0.180 C 
ATOM      8  C   LIG    1       -8.548   4.927  -2.441  0.00  0.00    +0.180 C 
ENDBRANCH   1   6
BRANCH   1   9
ATOM      9  C   LIG    1       -4.464   4.388  -3.299  0.00  0.00    -0.090 A 
ATOM     10  C   LIG    1       -5.050   3.613  -4.283  0.00  0.00    +0.050 A 
ATOM     11  C   LIG    1       -4.660   3.759  -5.601  0.00  0.00    +0.000 A 
ATOM     12  C   LIG    1       -3.678   4.672  -5.935  0.00  0.00    +0.010 A 
ATOM     13  C   LIG    1       -3.089   5.444  -4.950  0.00  0.00    +0.000 A 
ATOM     14  C   LIG    1       -3.481   5.301  -3.633  0.00  0.00    +0.010 A 
ENDBRANCH   1   9
BRANCH   1  15
ATOM     15  C   LIG    1       -4.219   3.023  -1.266  0.00  0.00    +0.530 C 
ATOM     16  N   LIG    1       -2.873   2.957  -1.214  0.00  0.00    -0.720 N 
ATOM     17  H   LIG    1       -2.338   3.688  -1.561  0.00  0.00    +0.400 HD
ATOM     18  O   LIG    1       -4.888   2.109  -0.833  0.00  0.00    -0.510 OA
BRANCH  16  19
ATOM     19  C   LIG    1       -2.219   1.782  -0.634  0.00  0.00    +0.330 C 
ATOM     20  C   LIG    1       -0.796   1.615  -1.212  0.00  0.00    +0.060 C 
ATOM     21  C   LIG    1       -0.013   1.086   0.008  0.00  0.00    +0.300 C 
ATOM     22  N   LIG    1       -0.736   1.577   1.189  0.00  0.00    -0.480 N 
ATOM     23  C   LIG    1       -0.598   1.780   2.520  0.00  0.00    +0.420 A 
ATOM     24  N   LIG    1       -1.712   2.273   2.986  0.00  0.00    -0.490 NA
ATOM     25  C   LIG    1       -2.595   2.404   1.979  0.00  0.00    +0.170 A 
ATOM     26  C   LIG    1       -1.999   1.977   0.849  0.00  0.00    -0.060 A 
ENDBRANCH  16  19
ENDBRANCH   1  15
TORSDOF 4
