REMARK  Name = ZINCrH00000No4CP.0
REMARK                            x       y       z     vdW  Elec       q    Type
REMARK                         _______ _______ _______ _____ _____    ______ ____
ROOT
ATOM      1  C   LIG    1       -5.439  -3.615   2.439  0.00  0.00    -0.670 A 
ATOM      2  C   LIG    1       -5.205  -2.256   2.550  0.00  0.00    +0.200 A 
ATOM      3  C   LIG    1       -3.913  -1.772   2.546  0.00  0.00    +0.040 A 
ATOM      4  C   LIG    1       -2.841  -2.657   2.420  0.00  0.00    +0.170 A 
ATOM      5  C   LIG    1       -3.083  -4.027   2.310  0.00  0.00    -0.020 A 
ATOM      6  C   LIG    1       -4.380  -4.498   2.320  0.00  0.00    +0.230 A 
ENDROOT
BRANCH   1   7
ATOM      7  S   LIG    1       -7.092  -4.225   2.452  0.00  0.00    +2.710 S 
ATOM      8  O   LIG    1       -7.060  -5.484   1.794  0.00  0.00    -0.950 OA
ATOM      9  O   LIG    1       -7.920  -3.149   2.032  0.00  0.00    -0.950 OA
BRANCH   7  10
ATOM     10  N   LIG    1       -7.489  -4.532   4.030  0.00  0.00    -1.250 NA
ATOM     11  H   LIG    1       -8.368  -4.879   4.250  0.00  0.00    +0.430 HD
ATOM     12  H   LIG    1       -6.843  -4.367   4.734  0.00  0.00    +0.420 HD
ENDBRANCH   7  10
ENDBRANCH   1   7
BRANCH   5  13
ATOM     13  N   LIG    1       -1.952  -4.973   2.182  0.00  0.00    +0.020 N 
ATOM     14  O   LIG    1       -0.807  -4.556   2.174  0.00  0.00    -0.100 OA
ATOM     15  O   LIG    1       -2.165  -6.168   2.086  0.00  0.00    -0.170 OA
ENDBRANCH   5  13
BRANCH   4  16
ATOM     16  N   LIG    1       -1.555  -2.182   2.410  0.00  0.00    -0.200 NA
ATOM     17  N   LIG    1       -1.343  -0.965   2.508  0.00  0.00    -0.170 NA
BRANCH  17  18
ATOM     18  C   LIG    1        0.032  -0.457   2.498  0.00  0.00    +0.160 C 
ATOM     19  C   LIG    1        0.772  -0.964   3.737  0.00  0.00    +0.040 C 
ATOM     20  C   LIG    1        0.056  -0.471   4.996  0.00  0.00    +0.000 C 
ATOM     21  C   LIG    1        0.035   1.059   5.005  0.00  0.00    +0.000 C 
ATOM     22  C   LIG    1       -0.705   1.566   3.765  0.00  0.00    +0.030 C 
ATOM     23  C   LIG    1        0.011   1.072   2.506  0.00  0.00    +0.030 C 
BRANCH  23  24
ATOM     24  C   LIG    1       -0.729   1.579   1.267  0.00  0.00    +0.000 C 
ATOM     25  C   LIG    1       -0.013   1.086   0.008  0.00  0.00    +0.000 C 
ATOM     26  C   LIG    1       -0.753   1.593  -1.232  0.00  0.00    +0.000 C 
ATOM     27  C   LIG    1       -0.773   3.123  -1.223  0.00  0.00    +0.000 C 
ATOM     28  C   LIG    1       -1.490   3.616   0.036  0.00  0.00    +0.000 C 
ATOM     29  C   LIG    1       -0.750   3.109   1.275  0.00  0.00    +0.020 C 
ENDBRANCH  23  24
ENDBRANCH  17  18
ENDBRANCH   4  16
TORSDOF 6
