REMARK  Name = ZINCrH000004jnVZ.0
REMARK                            x       y       z     vdW  Elec       q    Type
REMARK                         _______ _______ _______ _____ _____    ______ ____
ROOT
ATOM      1  N   LIG    1       -1.128  -3.336  -0.005  0.00  0.00    -0.640 N 
ATOM      2  H   LIG    1       -0.648  -4.179  -0.013  0.00  0.00    +0.420 HD
ATOM      3  C   LIG    1       -2.475  -3.327   0.008  0.00  0.00    +0.510 C 
ATOM      4  O   LIG    1       -3.075  -2.273   0.019  0.00  0.00    -0.440 OA
ENDROOT
BRANCH   1  13
ATOM      5  N   LIG    1        0.933  -2.030  -0.018  0.00  0.00    -0.500 N 
ATOM      6  C   LIG    1        1.234  -0.679  -0.013  0.00  0.00    +0.050 A 
ATOM      7  C   LIG    1        2.418   0.042  -0.021  0.00  0.00    +0.010 A 
ATOM      8  C   LIG    1        2.382   1.422  -0.013  0.00  0.00    +0.020 A 
ATOM      9  C   LIG    1        1.169   2.093   0.002  0.00  0.00    +0.010 A 
ATOM     10  C   LIG    1       -0.017   1.393   0.010  0.00  0.00    +0.060 A 
ATOM     11  C   LIG    1        0.002  -0.004   0.002  0.00  0.00    +0.060 A 
ATOM     12  N   LIG    1       -0.972  -0.951   0.006  0.00  0.00    -0.470 NA
ATOM     13  C   LIG    1       -0.428  -2.141  -0.005  0.00  0.00    +0.500 A 
BRANCH   5  15
ATOM     14  C   LIG    1        2.244  -3.527   1.403  0.00  0.00    +0.040 C 
ATOM     15  C   LIG    1        1.895  -3.135  -0.034  0.00  0.00    +0.290 C 
ENDBRANCH   5  15
ENDBRANCH   1  13
BRANCH   3  16
ATOM     16  C   LIG    1       -3.238  -4.627   0.009  0.00  0.00    +0.020 C 
ATOM     17  C   LIG    1       -3.030  -5.389   1.338  0.00  0.00    +0.100 C 
ATOM     18  C   LIG    1       -4.194  -4.952   2.201  0.00  0.00    +0.520 C 
ATOM     19  N   LIG    1       -5.145  -4.383   1.441  0.00  0.00    -0.570 N 
ATOM     20  O   LIG    1       -4.258  -5.095   3.404  0.00  0.00    -0.510 OA
ATOM     21  C   LIG    1       -4.761  -4.375   0.025  0.00  0.00    +0.310 C 
BRANCH  19  22
ATOM     22  C   LIG    1       -6.348  -3.866   1.937  0.00  0.00    +0.150 A 
ATOM     23  C   LIG    1       -7.467  -4.681   2.035  0.00  0.00    +0.030 A 
ATOM     24  C   LIG    1       -8.653  -4.167   2.525  0.00  0.00    +0.030 A 
ATOM     25  C   LIG    1       -8.725  -2.844   2.917  0.00  0.00    +0.040 A 
ATOM     26  C   LIG    1       -7.612  -2.029   2.821  0.00  0.00    +0.030 A 
ATOM     27  C   LIG    1       -6.422  -2.537   2.337  0.00  0.00    -0.030 A 
ATOM     28 CL   LIG    1       -5.023  -1.516   2.224  0.00  0.00    -0.030 Cl
ENDBRANCH  19  22
ENDBRANCH   3  16
TORSDOF 4
