REMARK  Name = ZINCpk00000xI7NK.0
REMARK                            x       y       z     vdW  Elec       q    Type
REMARK                         _______ _______ _______ _____ _____    ______ ____
ROOT
ATOM      1  C   LIG    1        1.155   3.169   0.008  0.00  0.00    +0.250 A 
ATOM      2  C   LIG    1        1.167   1.798   0.220  0.00  0.00    -0.080 A 
ATOM      3  C   LIG    1       -0.021   1.092   0.227  0.00  0.00    +0.240 A 
ATOM      4  C   LIG    1       -1.219   1.750   0.018  0.00  0.00    -0.720 A 
ATOM      5  C   LIG    1       -1.233   3.117  -0.188  0.00  0.00    +0.270 A 
ATOM      6  C   LIG    1       -0.049   3.828  -0.196  0.00  0.00    -0.100 A 
ENDROOT
BRANCH   4   7
ATOM      7  S   LIG    1       -2.731   0.845   0.021  0.00  0.00    +2.710 S 
ATOM      8  O   LIG    1       -2.395  -0.499  -0.296  0.00  0.00    -0.950 OA
ATOM      9  O   LIG    1       -3.659   1.612  -0.734  0.00  0.00    -0.950 OA
BRANCH   7  10
ATOM     10  N   LIG    1       -3.292   0.832   1.579  0.00  0.00    -1.250 NA
ATOM     11  H   LIG    1       -4.122   0.378   1.792  0.00  0.00    +0.430 HD
ATOM     12  H   LIG    1       -2.790   1.278   2.279  0.00  0.00    +0.420 HD
ENDBRANCH   7  10
ENDBRANCH   4   7
BRANCH   6  13
ATOM     13  N   LIG    1       -0.064   5.290  -0.423  0.00  0.00    +0.030 N 
ATOM     14  O   LIG    1        0.980   5.916  -0.430  0.00  0.00    -0.110 OA
ATOM     15  O   LIG    1       -1.122   5.867  -0.602  0.00  0.00    -0.170 OA
ENDBRANCH   6  13
BRANCH   1  16
ATOM     16  O   LIG    1        2.322   3.866   0.001  0.00  0.00    -0.240 OA
BRANCH  16  18
ATOM     17  C   LIG    1        3.843   2.834   1.569  0.00  0.00    +0.070 C 
ATOM     18  C   LIG    1        3.530   3.110   0.097  0.00  0.00    +0.160 C 
BRANCH  18  19
ATOM     19  C   LIG    1        4.662   3.891  -0.519  0.00  0.00    +0.520 C 
ATOM     20  N   LIG    1        5.883   3.331  -0.634  0.00  0.00    -0.720 N 
ATOM     21  H   LIG    1        6.033   2.426  -0.320  0.00  0.00    +0.400 HD
ATOM     22  O   LIG    1        4.475   5.023  -0.912  0.00  0.00    -0.490 OA
BRANCH  20  23
ATOM     23  C   LIG    1        6.984   4.090  -1.233  0.00  0.00    +0.240 C 
ATOM     24  C   LIG    1        6.935   3.944  -2.755  0.00  0.00    +0.000 C 
ATOM     25  C   LIG    1        8.084   4.737  -3.381  0.00  0.00    +0.020 C 
ATOM     26  C   LIG    1        9.418   4.199  -2.859  0.00  0.00    +0.010 C 
ATOM     27  C   LIG    1        9.467   4.345  -1.337  0.00  0.00    +0.020 C 
ATOM     28  C   LIG    1        8.318   3.553  -0.711  0.00  0.00    +0.010 C 
ENDBRANCH  20  23
ENDBRANCH  18  19
ENDBRANCH  16  18
ENDBRANCH   1  16
TORSDOF 7
