REMARK  Name = ZINCqH00000078lV.0
REMARK                            x       y       z     vdW  Elec       q    Type
REMARK                         _______ _______ _______ _____ _____    ______ ____
ROOT
ATOM      1  C   LIG    1        2.206  -5.914  -0.621  0.00  0.00    +0.280 A 
ATOM      2  N   LIG    1        2.064  -4.626  -0.564  0.00  0.00    -0.500 NA
ATOM      3  C   LIG    1        0.854  -4.167  -0.277  0.00  0.00    +0.130 A 
ATOM      4  C   LIG    1       -0.086  -5.106  -0.073  0.00  0.00    -0.110 A 
ATOM      5  S   LIG    1        0.662  -6.688  -0.280  0.00  0.00    +0.210 S 
ENDROOT
BRANCH   3   6
ATOM      6  C   LIG    1        0.559  -2.716  -0.181  0.00  0.00    -0.010 A 
ATOM      7  C   LIG    1       -0.702  -2.286   0.226  0.00  0.00    +0.050 A 
ATOM      8  C   LIG    1       -0.976  -0.935   0.316  0.00  0.00    +0.040 A 
ATOM      9  C   LIG    1        0.002  -0.004   0.002  0.00  0.00    +0.040 A 
ATOM     10  O   LIG    1       -0.016   1.361   0.009  0.00  0.00    -0.310 OA
ATOM     11  C   LIG    1        1.366   1.765  -0.002  0.00  0.00    +0.430 C 
ATOM     12  O   LIG    1        2.037   0.670  -0.653  0.00  0.00    -0.310 OA
ATOM     13  C   LIG    1        1.266  -0.429  -0.406  0.00  0.00    +0.030 A 
ATOM     14  C   LIG    1        1.543  -1.781  -0.497  0.00  0.00    +0.070 A 
ENDBRANCH   3   6
BRANCH   1  16
ATOM     15  C   LIG    1        3.419  -7.926  -0.938  0.00  0.00    +0.510 C 
ATOM     16  N   LIG    1        3.393  -6.579  -0.906  0.00  0.00    -0.620 N 
ATOM     17  H   LIG    1        4.201  -6.073  -1.083  0.00  0.00    +0.430 HD
ATOM     18  O   LIG    1        2.408  -8.558  -0.717  0.00  0.00    -0.490 OA
BRANCH  15  19
ATOM     19  C   LIG    1        4.706  -8.647  -1.248  0.00  0.00    +0.130 C 
BRANCH  19  23
ATOM     20  C   LIG    1        4.029 -12.866  -1.172  0.00  0.00    +0.130 A 
ATOM     21  C   LIG    1        3.869 -12.157  -2.354  0.00  0.00    -0.020 A 
ATOM     22  C   LIG    1        4.089 -10.794  -2.376  0.00  0.00    +0.070 A 
ATOM     23  C   LIG    1        4.467 -10.134  -1.221  0.00  0.00    -0.120 A 
ATOM     24  C   LIG    1        4.631 -10.839  -0.043  0.00  0.00    +0.060 A 
ATOM     25  C   LIG    1        4.407 -12.202  -0.014  0.00  0.00    -0.080 A 
BRANCH  20  27
ATOM     26  C   LIG    1        3.996 -14.871   0.104  0.00  0.00    +0.250 C 
ATOM     27  O   LIG    1        3.814 -14.207  -1.148  0.00  0.00    -0.320 OA
ENDBRANCH  20  27
ENDBRANCH  19  23
ENDBRANCH  15  19
ENDBRANCH   1  16
TORSDOF 5
