REMARK  Name = ZINCkj000005kuko.0
REMARK                            x       y       z     vdW  Elec       q    Type
REMARK                         _______ _______ _______ _____ _____    ______ ____
ROOT
ATOM      1  C   LIG    1       -1.609  -0.855  -0.095  0.00  0.00    +0.240 C 
ENDROOT
BRANCH   1   8
ATOM      2  C   LIG    1        1.057  -1.875  -0.547  0.00  0.00    +0.100 C 
ATOM      3  C   LIG    1        0.774  -0.404  -0.716  0.00  0.00    -0.060 A 
ATOM      4  C   LIG    1        1.789   0.457  -1.087  0.00  0.00    +0.030 A 
ATOM      5  C   LIG    1        1.529   1.806  -1.243  0.00  0.00    +0.050 A 
ATOM      6  C   LIG    1        0.254   2.294  -1.026  0.00  0.00    +0.030 A 
ATOM      7  C   LIG    1       -0.761   1.432  -0.655  0.00  0.00    +0.000 A 
ATOM      8  C   LIG    1       -0.502   0.084  -0.500  0.00  0.00    -0.140 A 
ENDBRANCH   1   8
BRANCH   1   9
ATOM      9  N   LIG    1       -2.908  -0.236  -0.389  0.00  0.00    -0.500 N 
ATOM     10  H   LIG    1       -2.954   0.673   0.046  0.00  0.00    +0.440 HD
ATOM     11  H   LIG    1       -3.648  -0.819  -0.028  0.00  0.00    +0.430 HD
BRANCH   9  12
ATOM     12  C   LIG    1       -3.064  -0.091  -1.843  0.00  0.00    +0.270 C 
BRANCH  12  13
ATOM     13  C   LIG    1       -4.417   0.554  -2.149  0.00  0.00    +0.160 C 
ATOM     14  C   LIG    1       -4.633   0.592  -3.663  0.00  0.00    +0.050 C 
BRANCH  13  15
ATOM     15  O   LIG    1       -4.437   1.886  -1.632  0.00  0.00    -0.570 OA
ATOM     16  H   LIG    1       -5.267   2.357  -1.790  0.00  0.00    +0.410 HD
ENDBRANCH  13  15
ENDBRANCH  12  13
ENDBRANCH   9  12
ENDBRANCH   1   9
BRANCH   1  17
ATOM     17  C   LIG    1       -1.510  -1.145   1.404  0.00  0.00    +0.210 C 
BRANCH  17  18
ATOM     18  N   LIG    1       -1.774   0.086   2.159  0.00  0.00    -0.550 NA
ATOM     19  C   LIG    1       -0.555   0.899   2.285  0.00  0.00    +0.150 C 
ATOM     20  C   LIG    1       -0.888   2.197   3.026  0.00  0.00    +0.220 C 
ATOM     21  O   LIG    1       -1.463   1.882   4.297  0.00  0.00    -0.380 OA
ATOM     22  C   LIG    1       -2.652   1.092   4.211  0.00  0.00    +0.230 C 
ATOM     23  C   LIG    1       -2.337  -0.218   3.483  0.00  0.00    +0.160 C 
ENDBRANCH  17  18
ENDBRANCH   1  17
TORSDOF 7
