REMARK  Name = ZINCrH000004rSpv.0
REMARK                            x       y       z     vdW  Elec       q    Type
REMARK                         _______ _______ _______ _____ _____    ______ ____
ROOT
ATOM      1  C   LIG    1       -2.167   1.420   1.235  0.00  0.00    +0.260 C 
ATOM      2  C   LIG    1       -3.327   1.172   0.273  0.00  0.00    +0.090 C 
ATOM      3  C   LIG    1       -2.839   1.106  -1.150  0.00  0.00    -0.070 A 
ATOM      4  C   LIG    1       -3.661   0.490  -2.086  0.00  0.00    +0.010 A 
ATOM      5  C   LIG    1       -3.285   0.418  -3.411  0.00  0.00    +0.010 A 
ATOM      6  C   LIG    1       -2.080   0.962  -3.814  0.00  0.00    +0.020 A 
ATOM      7  C   LIG    1       -1.258   1.568  -2.886  0.00  0.00    +0.020 A 
ATOM      8  C   LIG    1       -1.633   1.638  -1.552  0.00  0.00    -0.090 A 
ATOM      9  C   LIG    1       -0.684   2.304  -0.588  0.00  0.00    +0.360 C 
ATOM     10  N   LIG    1       -1.360   2.526   0.695  0.00  0.00    -0.600 N 
ATOM     11  C   LIG    1       -1.246   3.696   1.354  0.00  0.00    +0.600 C 
ATOM     12  O   LIG    1       -1.771   3.835   2.443  0.00  0.00    -0.480 OA
ENDROOT
BRANCH  11  13
ATOM     13  C   LIG    1       -0.489   4.802   0.759  0.00  0.00    -0.080 A 
ATOM     14  C   LIG    1       -0.225   6.004   1.351  0.00  0.00    +0.050 A 
ATOM     15  C   LIG    1        0.522   6.753   0.428  0.00  0.00    -0.060 A 
ATOM     16  C   LIG    1        0.678   5.986  -0.673  0.00  0.00    +0.200 A 
ATOM     17  O   LIG    1        0.072   4.809  -0.468  0.00  0.00    -0.160 OA
ENDBRANCH  11  13
BRANCH   1  20
ATOM     18  N   LIG    1       -4.032   1.804   2.814  0.00  0.00    -0.670 N 
ATOM     19  H   LIG    1       -4.646   1.639   2.082  0.00  0.00    +0.410 HD
ATOM     20  C   LIG    1       -2.702   1.795   2.593  0.00  0.00    +0.520 C 
ATOM     21  O   LIG    1       -1.937   2.090   3.486  0.00  0.00    -0.470 OA
BRANCH  18  27
ATOM     22  C   LIG    1       -3.405   1.651   7.688  0.00  0.00    +0.090 C 
ATOM     23  C   LIG    1       -4.243   1.985   6.481  0.00  0.00    -0.070 A 
ATOM     24  C   LIG    1       -5.501   2.534   6.644  0.00  0.00    -0.020 A 
ATOM     25  C   LIG    1       -6.273   2.841   5.538  0.00  0.00    +0.030 A 
ATOM     26  C   LIG    1       -5.789   2.600   4.268  0.00  0.00    -0.040 A 
ATOM     27  C   LIG    1       -4.525   2.049   4.101  0.00  0.00    +0.160 A 
ATOM     28  C   LIG    1       -3.755   1.736   5.213  0.00  0.00    +0.010 A 
ENDBRANCH  18  27
ENDBRANCH   1  20
TORSDOF 3
