REMARK  Name = ZINCpe000000WWZM.0
REMARK                            x       y       z     vdW  Elec       q    Type
REMARK                         _______ _______ _______ _____ _____    ______ ____
ROOT
ATOM      1  N   LIG    1       -3.453   3.879  -2.188  0.00  0.00    -0.520 NA
ATOM      2  C   LIG    1       -4.537   3.045  -1.649  0.00  0.00    +0.200 C 
ATOM      3  C   LIG    1       -5.721   3.936  -1.266  0.00  0.00    +0.210 C 
ATOM      4  N   LIG    1       -6.172   4.682  -2.449  0.00  0.00    -0.480 N 
ATOM      5  C   LIG    1       -5.089   5.516  -2.987  0.00  0.00    +0.240 C 
ATOM      6  C   LIG    1       -3.905   4.625  -3.371  0.00  0.00    +0.190 C 
ENDROOT
BRANCH   4   7
ATOM      7  C   LIG    1       -7.290   5.447  -2.156  0.00  0.00    +0.400 A 
ATOM      8  C   LIG    1       -8.443   4.856  -1.638  0.00  0.00    -0.080 A 
ATOM      9  N   LIG    1       -8.815   3.576  -1.286  0.00  0.00    -0.570 N 
ATOM     10  H   LIG    1       -8.270   2.777  -1.360  0.00  0.00    +0.430 HD
ATOM     11  C   LIG    1      -10.084   3.641  -0.824  0.00  0.00    +0.530 A 
ATOM     12  N   LIG    1      -10.513   4.872  -0.864  0.00  0.00    -0.490 NA
ATOM     13  C   LIG    1       -9.549   5.675  -1.353  0.00  0.00    +0.310 A 
ATOM     14  N   LIG    1       -9.457   6.985  -1.599  0.00  0.00    -0.500 NA
ATOM     15  C   LIG    1       -8.351   7.496  -2.093  0.00  0.00    +0.540 A 
ATOM     16  N   LIG    1       -7.290   6.761  -2.369  0.00  0.00    -0.550 NA
ENDBRANCH   4   7
BRANCH   1  17
ATOM     17  C   LIG    1       -2.268   3.068  -2.498  0.00  0.00    +0.220 C 
BRANCH  17  25
ATOM     18  C   LIG    1       -0.868   1.602   1.173  0.00  0.00    +0.040 C 
ATOM     19  C   LIG    1       -0.080   1.099  -0.039  0.00  0.00    +0.210 C 
ATOM     20  C   LIG    1        1.399   1.462   0.124  0.00  0.00    +0.020 C 
ATOM     21  C   LIG    1        2.157   1.078  -1.149  0.00  0.00    +0.010 C 
ATOM     22  C   LIG    1        1.595   1.864  -2.336  0.00  0.00    +0.010 C 
ATOM     23  C   LIG    1        0.118   1.506  -2.527  0.00  0.00    +0.260 C 
ATOM     24  N   LIG    1       -0.591   1.736  -1.261  0.00  0.00    -0.610 N 
ATOM     25  C   LIG    1       -1.690   2.515  -1.221  0.00  0.00    +0.520 C 
ATOM     26  O   LIG    1       -2.213   2.772  -0.157  0.00  0.00    -0.510 OA
ENDBRANCH  17  25
ENDBRANCH   1  17
TORSDOF 3
