REMARK  Name = ZINCpe000000WWZM.1
REMARK                            x       y       z     vdW  Elec       q    Type
REMARK                         _______ _______ _______ _____ _____    ______ ____
ROOT
ATOM      1  N   LIG    1       -5.735   3.083  -1.688  0.00  0.00    -0.520 NA
ATOM      2  C   LIG    1       -6.778   2.152  -1.233  0.00  0.00    +0.210 C 
ATOM      3  C   LIG    1       -8.102   2.906  -1.087  0.00  0.00    +0.240 C 
ATOM      4  N   LIG    1       -8.464   3.509  -2.378  0.00  0.00    -0.470 N 
ATOM      5  C   LIG    1       -7.421   4.439  -2.833  0.00  0.00    +0.240 C 
ATOM      6  C   LIG    1       -6.097   3.685  -2.978  0.00  0.00    +0.190 C 
ENDROOT
BRANCH   4   7
ATOM      7  C   LIG    1       -9.693   4.140  -2.303  0.00  0.00    +0.430 A 
ATOM      8  C   LIG    1      -10.839   3.437  -1.894  0.00  0.00    -0.070 A 
ATOM      9  N   LIG    1      -11.085   2.165  -1.500  0.00  0.00    -0.460 NA
ATOM     10  C   LIG    1      -12.349   2.037  -1.215  0.00  0.00    +0.490 A 
ATOM     11  N   LIG    1      -12.992   3.224  -1.404  0.00  0.00    -0.580 N 
ATOM     12  H   LIG    1      -13.936   3.394  -1.262  0.00  0.00    +0.430 HD
ATOM     13  C   LIG    1      -12.058   4.133  -1.832  0.00  0.00    +0.290 A 
ATOM     14  N   LIG    1      -12.085   5.418  -2.169  0.00  0.00    -0.540 NA
ATOM     15  C   LIG    1      -10.987   6.035  -2.552  0.00  0.00    +0.560 A 
ATOM     16  N   LIG    1       -9.819   5.425  -2.621  0.00  0.00    -0.570 NA
ENDBRANCH   4   7
BRANCH   1  17
ATOM     17  C   LIG    1       -4.430   2.413  -1.767  0.00  0.00    +0.200 C 
BRANCH  17  25
ATOM     18  C   LIG    1       -3.192   1.792   2.176  0.00  0.00    +0.040 C 
ATOM     19  C   LIG    1       -2.291   1.118   1.140  0.00  0.00    +0.210 C 
ATOM     20  C   LIG    1       -0.870   1.680   1.252  0.00  0.00    +0.020 C 
ATOM     21  C   LIG    1       -0.008   1.106   0.125  0.00  0.00    +0.010 C 
ATOM     22  C   LIG    1       -0.589   1.526  -1.228  0.00  0.00    +0.010 C 
ATOM     23  C   LIG    1       -2.006   0.962  -1.368  0.00  0.00    +0.260 C 
ATOM     24  N   LIG    1       -2.802   1.391  -0.210  0.00  0.00    -0.610 N 
ATOM     25  C   LIG    1       -3.980   2.023  -0.383  0.00  0.00    +0.520 C 
ATOM     26  O   LIG    1       -4.677   2.279   0.576  0.00  0.00    -0.510 OA
ENDBRANCH  17  25
ENDBRANCH   1  17
TORSDOF 3
