REMARK  Name = ZINCvU00000008Qr.0
REMARK                            x       y       z     vdW  Elec       q    Type
REMARK                         _______ _______ _______ _____ _____    ______ ____
ROOT
ATOM      1  N   LIG    1        0.018   1.399  -0.156  0.00  0.00    -0.450 N 
ATOM      2  C   LIG    1        1.318   1.747   0.076  0.00  0.00    +0.160 A 
ATOM      3  N   LIG    1        2.004   0.632   0.190  0.00  0.00    -0.280 NA
ATOM      4  N   LIG    1        1.227  -0.382   0.046  0.00  0.00    -0.260 NA
ATOM      5  C   LIG    1       -0.003   0.024  -0.169  0.00  0.00    +0.230 A 
ENDROOT
BRANCH   5   6
ATOM      6  C   LIG    1       -1.186  -0.836  -0.385  0.00  0.00    -0.020 A 
ATOM      7  C   LIG    1       -2.470  -0.319  -0.203  0.00  0.00    +0.030 A 
ATOM      8  C   LIG    1       -3.570  -1.124  -0.410  0.00  0.00    +0.040 A 
ATOM      9  C   LIG    1       -3.403  -2.446  -0.788  0.00  0.00    -0.020 A 
ATOM     10  C   LIG    1       -2.132  -2.966  -0.964  0.00  0.00    +0.050 A 
ATOM     11 CL   LIG    1       -4.793  -3.455  -1.040  0.00  0.00    -0.060 Cl
ATOM     12  C   LIG    1       -1.024  -2.169  -0.765  0.00  0.00    +0.090 A 
ENDBRANCH   5   6
BRANCH   1  13
ATOM     13  C   LIG    1       -1.118   2.303  -0.356  0.00  0.00    +0.310 C 
BRANCH  13  14
ATOM     14  C   LIG    1       -1.712   2.685   1.001  0.00  0.00    +0.030 C 
BRANCH  14  15
ATOM     15  C   LIG    1       -2.897   3.628   0.792  0.00  0.00    +0.180 C 
BRANCH  15  17
ATOM     16  C   LIG    1       -4.572   4.869   1.978  0.00  0.00    +0.200 C 
ATOM     17  O   LIG    1       -3.452   3.985   2.060  0.00  0.00    -0.390 OA
ENDBRANCH  15  17
ENDBRANCH  14  15
ENDBRANCH  13  14
ENDBRANCH   1  13
BRANCH   2  18
ATOM     18  S   LIG    1        1.956   3.384   0.200  0.00  0.00    +0.060 S 
BRANCH  18  19
ATOM     19  C   LIG    1        3.702   3.019   0.506  0.00  0.00    +0.270 C 
BRANCH  19  20
ATOM     20  C   LIG    1        4.468   4.309   0.650  0.00  0.00    +0.190 A 
ATOM     21  N   LIG    1        4.675   4.971   1.761  0.00  0.00    -0.450 NA
ATOM     22  C   LIG    1        5.405   6.053   1.409  0.00  0.00    +0.220 A 
ATOM     23  N   LIG    1        5.589   5.989   0.116  0.00  0.00    -0.360 NA
ATOM     24  O   LIG    1        5.058   4.996  -0.333  0.00  0.00    +0.100 OA
BRANCH  22  25
ATOM     25  C   LIG    1        5.900   7.116   2.318  0.00  0.00    -0.010 A 
ATOM     26  C   LIG    1        6.641   8.181   1.811  0.00  0.00    +0.060 A 
ATOM     27  C   LIG    1        7.098   9.168   2.661  0.00  0.00    +0.030 A 
ATOM     28  C   LIG    1        6.823   9.101   4.014  0.00  0.00    +0.050 A 
ATOM     29  C   LIG    1        6.087   8.045   4.524  0.00  0.00    -0.040 A 
ATOM     30 CL   LIG    1        5.745   7.969   6.225  0.00  0.00    -0.060 Cl
ATOM     31  C   LIG    1        5.621   7.055   3.682  0.00  0.00    +0.080 A 
ENDBRANCH  22  25
ENDBRANCH  19  20
ENDBRANCH  18  19
ENDBRANCH   2  18
TORSDOF 9
