REMARK  Name = ZINCrH000004s05N.0
REMARK                            x       y       z     vdW  Elec       q    Type
REMARK                         _______ _______ _______ _____ _____    ______ ____
ROOT
ATOM      1  N   LIG    1       -0.803   1.806   6.026  0.00  0.00    -0.340 N 
ATOM      2  N   LIG    1        0.060   1.355   7.033  0.00  0.00    -0.270 NA
ATOM      3  C   LIG    1        0.950   0.563   6.491  0.00  0.00    +0.110 A 
ATOM      4  C   LIG    1        0.686   0.473   5.121  0.00  0.00    -0.080 A 
ATOM      5  C   LIG    1       -0.403   1.244   4.853  0.00  0.00    +0.330 A 
ENDROOT
BRANCH   1  12
ATOM      6  C   LIG    1       -2.632   1.279   8.143  0.00  0.00    +0.110 C 
ATOM      7  C   LIG    1       -2.804   2.456   7.218  0.00  0.00    -0.070 A 
ATOM      8  C   LIG    1       -3.871   3.316   7.383  0.00  0.00    +0.030 A 
ATOM      9  C   LIG    1       -4.029   4.397   6.535  0.00  0.00    +0.020 A 
ATOM     10  C   LIG    1       -3.118   4.620   5.518  0.00  0.00    +0.020 A 
ATOM     11  C   LIG    1       -2.045   3.766   5.351  0.00  0.00    +0.000 A 
ATOM     12  C   LIG    1       -1.888   2.677   6.197  0.00  0.00    +0.140 A 
ENDBRANCH   1  12
BRANCH   5  13
ATOM     13  N   LIG    1       -0.996   1.430   3.605  0.00  0.00    -0.660 N 
ATOM     14  H   LIG    1       -1.825   1.928   3.531  0.00  0.00    +0.410 HD
ATOM     15  C   LIG    1       -0.417   0.917   2.501  0.00  0.00    +0.710 C 
ATOM     16  N   LIG    1       -0.990   1.097   1.294  0.00  0.00    -0.740 N 
ATOM     17  H   LIG    1       -1.819   1.595   1.220  0.00  0.00    +0.400 HD
ATOM     18  O   LIG    1        0.622   0.292   2.593  0.00  0.00    -0.550 OA
BRANCH  16  19
ATOM     19  C   LIG    1       -0.361   0.539   0.094  0.00  0.00    +0.290 C 
BRANCH  19  20
ATOM     20  C   LIG    1       -1.208   0.884  -1.133  0.00  0.00    -0.010 C 
ATOM     21  C   LIG    1       -2.571   0.164  -1.067  0.00  0.00    +0.020 C 
ATOM     22  C   LIG    1       -2.912  -0.262  -2.506  0.00  0.00    -0.010 C 
ATOM     23  C   LIG    1       -1.745   0.214  -3.395  0.00  0.00    +0.160 C 
ATOM     24  C   LIG    1       -0.548   0.331  -2.420  0.00  0.00    +0.050 C 
BRANCH  23  25
ATOM     25  O   LIG    1       -1.470  -0.747  -4.416  0.00  0.00    -0.560 OA
ATOM     26  H   LIG    1       -2.209  -0.901  -5.021  0.00  0.00    +0.380 HD
ENDBRANCH  23  25
ENDBRANCH  19  20
ENDBRANCH  16  19
ENDBRANCH   5  13
BRANCH   3  27
ATOM     27  C   LIG    1        2.070  -0.134   7.220  0.00  0.00    +0.010 C 
ATOM     28  C   LIG    1        2.148  -1.591   6.760  0.00  0.00    +0.040 C 
ATOM     29  C   LIG    1        1.804  -0.087   8.726  0.00  0.00    +0.040 C 
ATOM     30  C   LIG    1        3.393   0.570   6.913  0.00  0.00    +0.040 C 
ENDBRANCH   3  27
TORSDOF 6
