REMARK  Name = ZINCkj000005h5Sh.0
REMARK                            x       y       z     vdW  Elec       q    Type
REMARK                         _______ _______ _______ _____ _____    ______ ____
ROOT
ATOM      1  N   LIG    1       -4.410   4.163   5.596  0.00  0.00    -0.480 N 
ATOM      2  C   LIG    1       -5.200   5.339   5.212  0.00  0.00    +0.200 C 
ATOM      3  C   LIG    1       -5.944   5.879   6.436  0.00  0.00    +0.030 C 
ATOM      4  C   LIG    1       -4.928   6.255   7.519  0.00  0.00    -0.010 C 
ATOM      5  C   LIG    1       -4.085   5.025   7.867  0.00  0.00    +0.040 C 
ATOM      6  C   LIG    1       -3.396   4.510   6.601  0.00  0.00    +0.200 C 
ENDROOT
BRANCH   1  10
ATOM      7  C   LIG    1       -2.661   2.413   2.319  0.00  0.00    -0.210 A 
ATOM      8  C   LIG    1       -4.053   2.587   2.327  0.00  0.00    +0.160 A 
ATOM      9  C   LIG    1       -4.631   3.171   3.422  0.00  0.00    -0.050 A 
ATOM     10  C   LIG    1       -3.828   3.572   4.488  0.00  0.00    +0.330 A 
ATOM     11  N   LIG    1       -2.514   3.396   4.455  0.00  0.00    -0.520 NA
ATOM     12  C   LIG    1       -1.918   2.834   3.424  0.00  0.00    +0.320 A 
BRANCH   7  15
ATOM     13  C   LIG    1       -0.035   0.771   0.126  0.00  0.00    +0.300 C 
ATOM     14  N   LIG    1       -0.763   1.252   1.303  0.00  0.00    -0.620 N 
ATOM     15  C   LIG    1       -1.992   1.788   1.162  0.00  0.00    +0.560 C 
ATOM     16  O   LIG    1       -2.548   1.757   0.082  0.00  0.00    -0.530 OA
ATOM     17  C   LIG    1       -0.157   1.149   2.632  0.00  0.00    +0.290 C 
ENDBRANCH   7  15
ENDBRANCH   1  10
BRANCH   4  18
ATOM     18  C   LIG    1       -5.668   6.738   8.768  0.00  0.00    +0.030 C 
BRANCH  18  19
ATOM     19  C   LIG    1       -6.410   8.037   8.451  0.00  0.00    +0.250 C 
BRANCH  19  20
ATOM     20  N   LIG    1       -7.120   8.501   9.650  0.00  0.00    -0.640 N 
ATOM     21  H   LIG    1       -7.610   9.358   9.441  0.00  0.00    +0.440 HD
ATOM     22  H   LIG    1       -6.456   8.665  10.392  0.00  0.00    +0.440 HD
ATOM     23  H   LIG    1       -7.782   7.798   9.942  0.00  0.00    +0.440 HD
ENDBRANCH  19  20
ENDBRANCH  18  19
ENDBRANCH   4  18
TORSDOF 5
