REMARK  Name = ZINCnE000001P1z9.0
REMARK                            x       y       z     vdW  Elec       q    Type
REMARK                         _______ _______ _______ _____ _____    ______ ____
ROOT
ATOM      1  S   LIG    1        1.234  -2.441  -0.024  0.00  0.00    +2.580 S 
ATOM      2  O   LIG    1       -0.005  -2.863   0.530  0.00  0.00    -1.000 OA
ATOM      3  O   LIG    1        2.494  -2.828   0.507  0.00  0.00    -1.010 OA
ENDROOT
BRANCH   1   8
ATOM      4  C   LIG    1        1.150   3.594   0.010  0.00  0.00    +0.100 C 
ATOM      5  C   LIG    1        1.171   2.087   0.002  0.00  0.00    -0.040 A 
ATOM      6  C   LIG    1        2.377   1.413  -0.013  0.00  0.00    +0.010 A 
ATOM      7  C   LIG    1        2.397   0.029  -0.021  0.00  0.00    +0.060 A 
ATOM      8  C   LIG    1        1.209  -0.679  -0.013  0.00  0.00    -0.600 A 
ATOM      9  C   LIG    1        0.002  -0.004   0.002  0.00  0.00    +0.010 A 
ATOM     10 BR   LIG    1       -1.623  -0.972   0.013  0.00  0.00    +0.010 Br
ATOM     11 CL   LIG    1        3.913  -0.817  -0.039  0.00  0.00    -0.020 Cl
ATOM     12  C   LIG    1       -0.017   1.379   0.010  0.00  0.00    +0.020 A 
ENDBRANCH   1   8
BRANCH   1  13
ATOM     13  N   LIG    1        1.226  -2.922  -1.608  0.00  0.00    -1.070 NA
BRANCH  13  14
ATOM     14  C   LIG    1        1.242  -4.284  -1.925  0.00  0.00    +0.280 A 
ATOM     15  C   LIG    1        1.270  -5.234  -0.904  0.00  0.00    -0.080 A 
ATOM     16  C   LIG    1        1.281  -6.569  -1.195  0.00  0.00    +0.050 A 
ATOM     17  C   LIG    1        1.275  -6.992  -2.518  0.00  0.00    -0.060 A 
ATOM     18  C   LIG    1        1.252  -6.043  -3.558  0.00  0.00    +0.060 A 
ATOM     19  N   LIG    1        1.250  -6.758  -4.701  0.00  0.00    -0.280 NA
ATOM     20  N   LIG    1        1.271  -8.013  -4.417  0.00  0.00    -0.050 NA
ATOM     21  N   LIG    1        1.286  -8.214  -3.145  0.00  0.00    -0.330 N 
ATOM     22  C   LIG    1        1.311  -9.521  -2.482  0.00  0.00    +0.360 C 
ATOM     23  C   LIG    1        1.235  -4.681  -3.249  0.00  0.00    -0.020 A 
ENDBRANCH  13  14
ENDBRANCH   1  13
TORSDOF 3
