REMARK  Name = ZINCqH0000050kkJ.0
REMARK                            x       y       z     vdW  Elec       q    Type
REMARK                         _______ _______ _______ _____ _____    ______ ____
ROOT
ATOM      1  C   LIG    1       -4.692  -1.818   0.235  0.00  0.00    -0.140 A 
ATOM      2  C   LIG    1       -6.043  -2.163   0.147  0.00  0.00    +0.100 A 
ATOM      3  C   LIG    1       -6.412  -3.483  -0.020  0.00  0.00    +0.010 A 
ATOM      4  C   LIG    1       -5.451  -4.471  -0.091  0.00  0.00    +0.060 A 
ATOM      5  C   LIG    1       -4.097  -4.141   0.001  0.00  0.00    -0.140 A 
ATOM      6  C   LIG    1       -3.717  -2.811   0.165  0.00  0.00    +0.120 A 
ENDROOT
BRANCH   1   8
ATOM      7  N   LIG    1       -3.245   0.091  -0.272  0.00  0.00    -0.600 N 
ATOM      8  C   LIG    1       -4.298  -0.404   0.409  0.00  0.00    +0.560 C 
ATOM      9  O   LIG    1       -4.923   0.313   1.166  0.00  0.00    -0.520 OA
ATOM     10  C   LIG    1       -2.431  -0.795  -1.108  0.00  0.00    +0.300 C 
BRANCH   7  11
ATOM     11  C   LIG    1       -2.915   1.515  -0.177  0.00  0.00    +0.340 C 
BRANCH  11  17
ATOM     12  C   LIG    1       -2.053   2.908   4.552  0.00  0.00    +0.100 C 
ATOM     13  C   LIG    1       -1.544   2.399   3.228  0.00  0.00    -0.100 A 
ATOM     14  C   LIG    1       -0.197   2.139   3.059  0.00  0.00    +0.010 A 
ATOM     15  C   LIG    1        0.270   1.673   1.844  0.00  0.00    +0.000 A 
ATOM     16  C   LIG    1       -0.610   1.467   0.798  0.00  0.00    -0.080 A 
ATOM     17  C   LIG    1       -1.956   1.733   0.965  0.00  0.00    -0.110 A 
ATOM     18  C   LIG    1       -0.101   0.960  -0.526  0.00  0.00    +0.090 C 
ATOM     19  C   LIG    1       -2.424   2.194   2.182  0.00  0.00    +0.040 A 
ENDBRANCH  11  17
ENDBRANCH   7  11
ENDBRANCH   1   8
BRANCH   5  20
ATOM     20  C   LIG    1       -3.069  -5.201  -0.074  0.00  0.00    +0.560 C 
ATOM     21  N   LIG    1       -3.438  -6.488  -0.233  0.00  0.00    -0.720 N 
ATOM     22  H   LIG    1       -4.378  -6.718  -0.297  0.00  0.00    +0.400 HD
ATOM     23  O   LIG    1       -1.891  -4.913   0.006  0.00  0.00    -0.530 OA
BRANCH  21  24
ATOM     24  C   LIG    1       -2.420  -7.538  -0.307  0.00  0.00    +0.300 C 
BRANCH  24  25
ATOM     25  C   LIG    1       -3.100  -8.897  -0.487  0.00  0.00    -0.070 C 
ATOM     26  C   LIG    1       -2.927  -9.926   0.632  0.00  0.00    +0.020 C 
ATOM     27  C   LIG    1       -2.200 -10.115  -0.702  0.00  0.00    +0.030 C 
ENDBRANCH  24  25
ENDBRANCH  21  24
ENDBRANCH   5  20
TORSDOF 6
