REMARK  Name = ZINCpk00001AZjbV.0
REMARK                            x       y       z     vdW  Elec       q    Type
REMARK                         _______ _______ _______ _____ _____    ______ ____
ROOT
ATOM      1  C   LIG    1        0.814  -2.860  -0.020  0.00  0.00    +0.350 C 
ENDROOT
BRANCH   1   2
ATOM      2  C   LIG    1        1.556  -4.198  -0.034  0.00  0.00    -0.130 C 
ATOM      3  C   LIG    1        2.544  -4.756  -1.087  0.00  0.00    +0.050 C 
ATOM      4  C   LIG    1        2.494  -5.921  -0.034  0.00  0.00    +0.110 C 
ATOM      5  C   LIG    1        2.564  -4.766   0.996  0.00  0.00    +0.040 C 
ATOM      6  C   LIG    1        0.978  -5.630  -0.035  0.00  0.00    +0.060 C 
BRANCH   4   7
ATOM      7  N   LIG    1        3.186  -7.213  -0.047  0.00  0.00    -0.660 N 
ATOM      8  H   LIG    1        2.674  -8.037  -0.058  0.00  0.00    +0.410 HD
ATOM      9  C   LIG    1        4.532  -7.256  -0.043  0.00  0.00    +0.660 C 
ATOM     10  O   LIG    1        5.174  -6.224  -0.029  0.00  0.00    -0.560 OA
BRANCH   9  11
ATOM     11  O   LIG    1        5.168  -8.444  -0.055  0.00  0.00    -0.360 OA
BRANCH  11  12
ATOM     12  C   LIG    1        6.619  -8.415  -0.050  0.00  0.00    +0.140 C 
ATOM     13  C   LIG    1        7.119  -7.669  -1.289  0.00  0.00    +0.040 C 
ATOM     14  C   LIG    1        7.158  -9.847  -0.065  0.00  0.00    +0.080 C 
ATOM     15  C   LIG    1        7.111  -7.698   1.210  0.00  0.00    +0.040 C 
ENDBRANCH  11  12
ENDBRANCH   9  11
ENDBRANCH   4   7
ENDBRANCH   1   2
BRANCH   1  16
ATOM     16  N   LIG    1        1.785  -1.763  -0.024  0.00  0.00    -0.740 N 
ATOM     17  H   LIG    1        2.735  -1.957  -0.034  0.00  0.00    +0.400 HD
BRANCH  16  20
ATOM     18  N   LIG    1        1.308   1.764  -0.001  0.00  0.00    -0.370 N 
ATOM     19  C   LIG    1        2.126   0.678  -0.015  0.00  0.00    +0.140 A 
ATOM     20  C   LIG    1        1.339  -0.428  -0.013  0.00  0.00    +0.070 A 
ATOM     21  C   LIG    1        0.002  -0.004   0.002  0.00  0.00    +0.190 A 
ATOM     22  N   LIG    1       -0.016   1.304   0.009  0.00  0.00    -0.250 NA
BRANCH  18  23
ATOM     23  C   LIG    1        1.734   3.165   0.003  0.00  0.00    +0.360 C 
BRANCH  23  27
ATOM     24  C   LIG    1        0.711   5.903  -2.470  0.00  0.00    +0.290 C 
ATOM     25  N   LIG    1        1.338   5.199  -1.348  0.00  0.00    -0.740 N 
ATOM     26  H   LIG    1        1.932   5.676  -0.747  0.00  0.00    +0.400 HD
ATOM     27  C   LIG    1        1.089   3.889  -1.151  0.00  0.00    +0.490 C 
ATOM     28  O   LIG    1        0.347   3.294  -1.902  0.00  0.00    -0.510 OA
ENDBRANCH  23  27
ENDBRANCH  18  23
ENDBRANCH  16  20
ENDBRANCH   1  16
TORSDOF 8
