REMARK  Name = ZINCAx0000000i8B.0
REMARK                            x       y       z     vdW  Elec       q    Type
REMARK                         _______ _______ _______ _____ _____    ______ ____
ROOT
ATOM      1  C   LIG    1       -4.477  -4.041  -3.027  0.00  0.00    +0.200 C 
ENDROOT
BRANCH   1   5
ATOM      2  N   LIG    1       -8.482  -5.240  -3.631  0.00  0.00    -0.540 NA
ATOM      3  C   LIG    1       -8.064  -4.899  -2.264  0.00  0.00    +0.190 C 
ATOM      4  C   LIG    1       -6.793  -4.049  -2.320  0.00  0.00    +0.200 C 
ATOM      5  N   LIG    1       -5.738  -4.795  -3.019  0.00  0.00    -0.520 NA
ATOM      6  C   LIG    1       -6.156  -5.136  -4.386  0.00  0.00    +0.190 C 
ATOM      7  C   LIG    1       -7.427  -5.986  -4.331  0.00  0.00    +0.180 C 
BRANCH   2   8
ATOM      8  C   LIG    1       -9.743  -5.994  -3.624  0.00  0.00    +0.180 C 
BRANCH   8   9
ATOM      9  C   LIG    1      -10.017  -6.543  -5.025  0.00  0.00    +0.050 C 
BRANCH   9  10
ATOM     10  C   LIG    1      -11.331  -7.328  -5.017  0.00  0.00    +0.110 C 
BRANCH  10  11
ATOM     11  C   LIG    1      -11.601  -7.869  -6.398  0.00  0.00    +0.460 C 
ATOM     12  O   LIG    1      -10.822  -7.650  -7.295  0.00  0.00    -0.510 OA
BRANCH  11  14
ATOM     13  C   LIG    1      -12.901  -9.084  -7.983  0.00  0.00    +0.250 C 
ATOM     14  O   LIG    1      -12.706  -8.595  -6.630  0.00  0.00    -0.360 OA
ENDBRANCH  11  14
ENDBRANCH  10  11
ENDBRANCH   9  10
ENDBRANCH   8   9
ENDBRANCH   2   8
ENDBRANCH   1   5
BRANCH   1  15
ATOM     15  C   LIG    1       -3.421  -4.836  -3.751  0.00  0.00    -0.200 A 
ATOM     16  C   LIG    1       -3.322  -6.208  -3.579  0.00  0.00    +0.360 A 
ATOM     17  N   LIG    1       -2.386  -6.873  -4.236  0.00  0.00    -0.510 NA
ATOM     18  C   LIG    1       -1.548  -6.246  -5.036  0.00  0.00    +0.330 A 
ATOM     19  N   LIG    1       -1.608  -4.942  -5.220  0.00  0.00    -0.510 NA
ATOM     20  C   LIG    1       -2.522  -4.212  -4.601  0.00  0.00    +0.330 A 
BRANCH  18  21
ATOM     21  C   LIG    1       -0.491  -7.041  -5.760  0.00  0.00    -0.000 C 
ATOM     22  C   LIG    1       -0.675  -6.876  -7.270  0.00  0.00    +0.050 C 
ATOM     23  C   LIG    1       -0.621  -8.519  -5.389  0.00  0.00    +0.050 C 
ATOM     24  C   LIG    1        0.894  -6.533  -5.357  0.00  0.00    +0.050 C 
ENDBRANCH  18  21
ENDBRANCH   1  15
BRANCH   1  25
ATOM     25  C   LIG    1       -4.033  -3.791  -1.608  0.00  0.00    +0.520 C 
ATOM     26  N   LIG    1       -2.893  -3.113  -1.369  0.00  0.00    -0.720 N 
ATOM     27  H   LIG    1       -2.359  -2.785  -2.109  0.00  0.00    +0.400 HD
ATOM     28  O   LIG    1       -4.701  -4.200  -0.683  0.00  0.00    -0.510 OA
BRANCH  26  29
ATOM     29  C   LIG    1       -2.461  -2.870   0.010  0.00  0.00    +0.320 C 
BRANCH  29  30
ATOM     30  C   LIG    1       -1.167  -2.096   0.002  0.00  0.00    -0.070 A 
ATOM     31  C   LIG    1        0.040  -2.770  -0.013  0.00  0.00    -0.020 A 
ATOM     32  C   LIG    1        1.228  -2.064  -0.020  0.00  0.00    +0.050 A 
ATOM     33  C   LIG    1        1.212  -0.682  -0.019  0.00  0.00    -0.070 A 
ATOM     34  C   LIG    1        0.002  -0.004   0.002  0.00  0.00    +0.130 A 
ATOM     35  C   LIG    1       -1.189  -0.715   0.010  0.00  0.00    +0.000 A 
BRANCH  34  36
ATOM     36  O   LIG    1       -0.016   1.355   0.009  0.00  0.00    -0.320 OA
ATOM     37  C   LIG    1        1.248   2.021   0.001  0.00  0.00    +0.250 C 
ENDBRANCH  34  36
ENDBRANCH  29  30
ENDBRANCH  26  29
ENDBRANCH   1  25
TORSDOF 12
