REMARK  Name = ZINCpk00000y6vEL.0
REMARK                            x       y       z     vdW  Elec       q    Type
REMARK                         _______ _______ _______ _____ _____    ______ ____
ROOT
ATOM      1  C   LIG    1        2.570   6.955   2.195  0.00  0.00    +0.520 C 
ATOM      2  N   LIG    1        1.964   6.442   1.106  0.00  0.00    -0.610 N 
ATOM      3  C   LIG    1        1.798   7.250  -0.110  0.00  0.00    +0.280 C 
ATOM      4  C   LIG    1        2.383   6.480  -1.298  0.00  0.00    +0.020 C 
ATOM      5  C   LIG    1        1.736   5.095  -1.371  0.00  0.00    +0.040 C 
ATOM      6  C   LIG    1        2.047   4.317  -0.091  0.00  0.00    +0.080 C 
ATOM      7  C   LIG    1        1.459   5.062   1.111  0.00  0.00    +0.300 C 
ATOM      8  O   LIG    1        3.039   8.073   2.158  0.00  0.00    -0.530 OA
ENDROOT
BRANCH   1  13
ATOM      9  C   LIG    1        1.951   5.983   7.502  0.00  0.00    +0.550 C 
ATOM     10  N   LIG    1        2.309   5.708   6.232  0.00  0.00    -0.610 N 
ATOM     11  C   LIG    1        3.659   6.032   5.748  0.00  0.00    +0.280 C 
ATOM     12  C   LIG    1        3.537   6.878   4.477  0.00  0.00    +0.050 C 
ATOM     13  C   LIG    1        2.664   6.141   3.459  0.00  0.00    -0.010 C 
ATOM     14  C   LIG    1        1.263   5.936   4.040  0.00  0.00    +0.040 C 
ATOM     15  C   LIG    1        1.359   5.079   5.305  0.00  0.00    +0.280 C 
ATOM     16  O   LIG    1        2.713   6.588   8.231  0.00  0.00    -0.540 OA
BRANCH   9  18
ATOM     17  C   LIG    1        0.323   5.736   9.284  0.00  0.00    +0.140 C 
ATOM     18  C   LIG    1        0.638   5.551   8.005  0.00  0.00    -0.090 C 
ENDBRANCH   9  18
ENDBRANCH   1  13
BRANCH   6  19
ATOM     19  C   LIG    1        1.437   2.942  -0.177  0.00  0.00    +0.180 A 
ATOM     20  N   LIG    1        0.169   2.665  -0.321  0.00  0.00    -0.280 NA
ATOM     21  N   LIG    1        0.006   1.391  -0.363  0.00  0.00    -0.290 NA
ATOM     22  C   LIG    1        1.161   0.795  -0.238  0.00  0.00    +0.370 A 
ATOM     23  N   LIG    1        2.102   1.763  -0.121  0.00  0.00    -0.470 N 
BRANCH  23  24
ATOM     24  C   LIG    1        3.546   1.573   0.035  0.00  0.00    +0.300 C 
ATOM     25  C   LIG    1        3.908   1.611   1.522  0.00  0.00    +0.040 C 
ENDBRANCH  23  24
ENDBRANCH   6  19
TORSDOF 4
