REMARK  Name = ZINCrg00000Bn6Vs.0
REMARK                            x       y       z     vdW  Elec       q    Type
REMARK                         _______ _______ _______ _____ _____    ______ ____
ROOT
ATOM      1  C   LIG    1        1.986  -0.307  -0.374  0.00  0.00    +0.260 C 
ATOM      2  C   LIG    1        2.647   0.920   0.303  0.00  0.00    +0.050 C 
ATOM      3  C   LIG    1        1.805   2.103  -0.237  0.00  0.00    +0.000 C 
ATOM      4  C   LIG    1        0.364   1.554  -0.278  0.00  0.00    +0.010 C 
ATOM      5  C   LIG    1        0.479   0.022  -0.365  0.00  0.00    +0.150 C 
ENDROOT
BRANCH   1   8
ATOM      6  O   LIG    1        1.851  -2.811  -1.362  0.00  0.00    -0.480 OA
ATOM      7  C   LIG    1        2.155  -2.731  -0.191  0.00  0.00    +0.500 C 
ATOM      8  N   LIG    1        2.250  -1.523   0.400  0.00  0.00    -0.720 N 
ATOM      9  H   LIG    1        2.493  -1.459   1.337  0.00  0.00    +0.400 HD
BRANCH   7  10
ATOM     10  C   LIG    1        2.426  -3.982   0.605  0.00  0.00    +0.370 C 
BRANCH  10  11
ATOM     11  N   LIG    1        2.258  -5.154  -0.257  0.00  0.00    -0.290 N 
ATOM     12  C   LIG    1        3.183  -6.119  -0.473  0.00  0.00    +0.140 A 
ATOM     13  C   LIG    1        2.614  -7.003  -1.325  0.00  0.00    +0.140 A 
ATOM     14  N   LIG    1        1.388  -6.538  -1.591  0.00  0.00    -0.270 NA
ATOM     15  N   LIG    1        1.208  -5.442  -0.943  0.00  0.00    -0.050 NA
ENDBRANCH  10  11
ENDBRANCH   7  10
ENDBRANCH   1   8
BRANCH   5  16
ATOM     16  O   LIG    1       -0.132  -0.447  -1.569  0.00  0.00    -0.550 OA
ATOM     17  H   LIG    1       -1.077  -0.252  -1.633  0.00  0.00    +0.380 HD
ENDBRANCH   5  16
BRANCH   3  18
ATOM     18  C   LIG    1        1.895   3.301   0.710  0.00  0.00    +0.290 C 
BRANCH  18  19
ATOM     19  N   LIG    1        1.130   4.420   0.155  0.00  0.00    -0.450 N 
ATOM     20  C   LIG    1        0.356   4.397  -0.974  0.00  0.00    +0.130 A 
ATOM     21  C   LIG    1       -0.167   5.632  -1.119  0.00  0.00    +0.150 A 
ATOM     22  N   LIG    1        0.271   6.397  -0.112  0.00  0.00    -0.470 NA
ATOM     23  C   LIG    1        1.049   5.682   0.669  0.00  0.00    +0.240 A 
BRANCH  23  24
ATOM     24  C   LIG    1        1.725   6.163   1.893  0.00  0.00    -0.010 A 
ATOM     25  C   LIG    1        2.220   5.250   2.825  0.00  0.00    +0.000 A 
ATOM     26  C   LIG    1        2.854   5.705   3.963  0.00  0.00    +0.010 A 
ATOM     27  C   LIG    1        2.990   7.064   4.186  0.00  0.00    +0.020 A 
ATOM     28  C   LIG    1        2.498   7.974   3.268  0.00  0.00    +0.010 A 
ATOM     29  C   LIG    1        1.866   7.532   2.124  0.00  0.00    +0.060 A 
ENDBRANCH  23  24
ENDBRANCH  18  19
ENDBRANCH   3  18
TORSDOF 7
