REMARK  Name = ZINCpe00000bcWG6.0
REMARK                            x       y       z     vdW  Elec       q    Type
REMARK                         _______ _______ _______ _____ _____    ______ ____
ROOT
ATOM      1  C   LIG    1        1.802   2.903   0.881  0.00  0.00    +0.570 C 
ATOM      2  N   LIG    1        1.419   1.845   0.138  0.00  0.00    -0.610 N 
ATOM      3  C   LIG    1        2.384   1.125  -0.708  0.00  0.00    +0.260 C 
ATOM      4  C   LIG    1        2.267  -0.373  -0.405  0.00  0.00    +0.230 C 
ATOM      5  O   LIG    1        0.900  -0.772  -0.521  0.00  0.00    -0.360 OA
ATOM      6  C   LIG    1        0.023  -0.134   0.415  0.00  0.00    +0.110 C 
ATOM      7  C   LIG    1        0.516  -0.400   1.835  0.00  0.00    +0.050 C 
ATOM      8  C   LIG    1       -0.532  -1.139   2.691  0.00  0.00    -0.300 C 
ATOM      9  S   LIG    1       -1.545  -2.015   1.433  0.00  0.00    +2.380 S 
ATOM     10  O   LIG    1       -2.889  -2.118   1.883  0.00  0.00    -0.930 OA
ATOM     11  O   LIG    1       -0.853  -3.168   0.974  0.00  0.00    -0.920 OA
ATOM     12  C   LIG    1       -1.407  -0.669   0.188  0.00  0.00    -0.270 C 
ATOM     13  C   LIG    1        0.024   1.378   0.150  0.00  0.00    +0.300 C 
ATOM     14  O   LIG    1        0.977   3.533   1.513  0.00  0.00    -0.530 OA
ENDROOT
BRANCH   1  18
ATOM     15  C   LIG    1        5.893   4.035   1.012  0.00  0.00    +0.170 A 
ATOM     16  C   LIG    1        5.299   3.718  -0.206  0.00  0.00    +0.020 A 
ATOM     17  C   LIG    1        3.974   3.351  -0.252  0.00  0.00    +0.070 A 
ATOM     18  C   LIG    1        3.224   3.296   0.926  0.00  0.00    -0.150 A 
ATOM     19  C   LIG    1        3.822   3.620   2.147  0.00  0.00    +0.100 A 
ATOM     20  C   LIG    1        5.150   3.982   2.187  0.00  0.00    -0.010 A 
BRANCH  15  22
ATOM     21  C   LIG    1        7.767   5.130   0.051  0.00  0.00    +0.550 C 
ATOM     22  N   LIG    1        7.236   4.406   1.055  0.00  0.00    -0.670 N 
ATOM     23  H   LIG    1        7.788   4.143   1.808  0.00  0.00    +0.420 HD
ATOM     24  O   LIG    1        7.099   5.388  -0.933  0.00  0.00    -0.520 OA
BRANCH  21  26
ATOM     25  C   LIG    1        9.679   6.325  -0.848  0.00  0.00    +0.160 C 
ATOM     26  C   LIG    1        9.154   5.610   0.143  0.00  0.00    -0.090 C 
ENDBRANCH  21  26
ENDBRANCH  15  22
ENDBRANCH   1  18
TORSDOF 3
