REMARK  Name = ZINCvU000000047D.0
REMARK                            x       y       z     vdW  Elec       q    Type
REMARK                         _______ _______ _______ _____ _____    ______ ____
ROOT
ATOM      1  C   LIG    1        2.804  -4.282  -0.052  0.00  0.00    +0.070 C 
ENDROOT
BRANCH   1   2
ATOM      2  C   LIG    1        4.093  -5.064  -0.070  0.00  0.00    +0.530 C 
ATOM      3  N   LIG    1        4.064  -6.411  -0.077  0.00  0.00    -0.720 N 
ATOM      4  H   LIG    1        3.213  -6.878  -0.070  0.00  0.00    +0.400 HD
ATOM      5  O   LIG    1        5.156  -4.480  -0.079  0.00  0.00    -0.520 OA
BRANCH   3   6
ATOM      6  C   LIG    1        5.316  -7.171  -0.095  0.00  0.00    +0.240 C 
ATOM      7  C   LIG    1        5.801  -7.320  -1.538  0.00  0.00    +0.020 C 
BRANCH   6   8
ATOM      8  C   LIG    1        5.081  -8.557   0.510  0.00  0.00    -0.060 C 
ATOM      9  C   LIG    1        4.595  -8.407   1.953  0.00  0.00    +0.020 C 
ATOM     10  C   LIG    1        4.360  -9.793   2.558  0.00  0.00    -0.020 C 
ATOM     11  C   LIG    1        3.302 -10.534   1.738  0.00  0.00    +0.010 C 
ATOM     12  C   LIG    1        3.787 -10.684   0.295  0.00  0.00    -0.020 C 
ATOM     13  C   LIG    1        5.095 -11.477   0.276  0.00  0.00    +0.010 C 
ATOM     14  C   LIG    1        6.153 -10.736   1.096  0.00  0.00    -0.020 C 
ATOM     15  C   LIG    1        5.668 -10.586   2.539  0.00  0.00    +0.010 C 
ATOM     16  C   LIG    1        4.023  -9.298  -0.310  0.00  0.00    +0.030 C 
ATOM     17  C   LIG    1        6.389  -9.350   0.491  0.00  0.00    +0.040 C 
ENDBRANCH   6   8
ENDBRANCH   3   6
ENDBRANCH   1   2
BRANCH   1  18
ATOM     18  S   LIG    1        3.174  -2.510  -0.046  0.00  0.00    +0.070 S 
BRANCH  18  22
ATOM     19  C   LIG    1       -1.899  -3.157   0.006  0.00  0.00    +0.190 C 
ATOM     20  C   LIG    1       -0.743  -2.190  -0.001  0.00  0.00    +0.350 A 
ATOM     21  N   LIG    1        0.488  -2.667  -0.018  0.00  0.00    -0.530 NA
ATOM     22  C   LIG    1        1.538  -1.857  -0.025  0.00  0.00    +0.190 A 
ATOM     23  C   LIG    1        1.320  -0.454  -0.014  0.00  0.00    -0.160 A 
ATOM     24  C   LIG    1        0.002  -0.004   0.002  0.00  0.00    +0.100 A 
ATOM     25  S   LIG    1       -0.022   1.751   0.012  0.00  0.00    +0.170 S 
ATOM     26  C   LIG    1        1.731   1.850  -0.004  0.00  0.00    -0.170 A 
ATOM     27  C   LIG    1        2.514   3.152  -0.004  0.00  0.00    +0.120 C 
ATOM     28  C   LIG    1        3.961   2.857   0.398  0.00  0.00    +0.030 C 
ATOM     29  C   LIG    1        4.488   1.700  -0.456  0.00  0.00    +0.030 C 
ATOM     30  C   LIG    1        3.792   0.406  -0.031  0.00  0.00    +0.110 C 
ATOM     31  C   LIG    1        2.287   0.638  -0.017  0.00  0.00    -0.070 A 
ATOM     32  N   LIG    1       -0.994  -0.901   0.008  0.00  0.00    -0.490 NA
ENDBRANCH  18  22
ENDBRANCH   1  18
TORSDOF 5
