REMARK  Name = ZINCkj00000FDJs3.0
REMARK                            x       y       z     vdW  Elec       q    Type
REMARK                         _______ _______ _______ _____ _____    ______ ____
ROOT
ATOM      1  S   LIG    1       -5.441   2.596   5.860  0.00  0.00    +2.690 S 
ATOM      2  O   LIG    1       -6.788   2.494   5.419  0.00  0.00    -0.940 OA
ATOM      3  O   LIG    1       -4.886   3.792   6.390  0.00  0.00    -0.950 OA
ENDROOT
BRANCH   1   7
ATOM      4  C   LIG    1       -2.848   1.433   2.335  0.00  0.00    +0.200 A 
ATOM      5  C   LIG    1       -2.330   2.231   3.345  0.00  0.00    -0.090 A 
ATOM      6  C   LIG    1       -3.125   2.589   4.417  0.00  0.00    +0.150 A 
ATOM      7  C   LIG    1       -4.432   2.144   4.489  0.00  0.00    -0.730 A 
ATOM      8  C   LIG    1       -4.949   1.344   3.486  0.00  0.00    +0.170 A 
ATOM      9  C   LIG    1       -4.160   0.988   2.409  0.00  0.00    -0.020 A 
BRANCH   4  10
ATOM     10  O   LIG    1       -2.070   1.085   1.277  0.00  0.00    -0.310 OA
BRANCH  10  12
ATOM     11  C   LIG    1       -0.013   1.086   0.008  0.00  0.00    +0.070 C 
ATOM     12  C   LIG    1       -0.729   1.579   1.267  0.00  0.00    +0.190 C 
ENDBRANCH  10  12
ENDBRANCH   4  10
ENDBRANCH   1   7
BRANCH   1  13
ATOM     13  N   LIG    1       -5.240   1.432   7.021  0.00  0.00    -1.110 NA
ATOM     14  H   LIG    1       -5.987   0.869   7.278  0.00  0.00    +0.430 HD
BRANCH  13  15
ATOM     15  C   LIG    1       -3.935   1.254   7.662  0.00  0.00    +0.270 C 
ATOM     16  C   LIG    1       -3.898   1.989   9.014  0.00  0.00    +0.260 C 
ATOM     17  N   LIG    1       -3.690   0.963  10.060  0.00  0.00    -0.390 N 
ATOM     18  C   LIG    1       -3.005  -0.169   9.385  0.00  0.00    +0.280 C 
ATOM     19  C   LIG    1       -2.845   1.499  11.134  0.00  0.00    +0.340 C 
ATOM     20  H   LIG    1       -4.578   0.660  10.432  0.00  0.00    +0.430 HD
ATOM     21  C   LIG    1       -3.704  -0.236   8.002  0.00  0.00    +0.000 C 
ATOM     22  C   LIG    1       -2.792  -0.894   6.964  0.00  0.00    +0.080 C 
ENDBRANCH  13  15
ENDBRANCH   1  13
TORSDOF 5
