REMARK  Name = ZINCkj00000FDJs3.1
REMARK                            x       y       z     vdW  Elec       q    Type
REMARK                         _______ _______ _______ _____ _____    ______ ____
ROOT
ATOM      1  S   LIG    1        3.489   4.846   0.278  0.00  0.00    +2.690 S 
ATOM      2  O   LIG    1        3.647   4.204  -0.980  0.00  0.00    -0.950 OA
ATOM      3  O   LIG    1        4.580   5.158   1.133  0.00  0.00    -0.940 OA
ENDROOT
BRANCH   1   7
ATOM      4  C   LIG    1        1.347   8.752  -0.539  0.00  0.00    +0.200 A 
ATOM      5  C   LIG    1        2.125   8.611   0.601  0.00  0.00    -0.020 A 
ATOM      6  C   LIG    1        2.777   7.418   0.848  0.00  0.00    +0.170 A 
ATOM      7  C   LIG    1        2.656   6.366  -0.041  0.00  0.00    -0.730 A 
ATOM      8  C   LIG    1        1.887   6.506  -1.181  0.00  0.00    +0.150 A 
ATOM      9  C   LIG    1        1.228   7.694  -1.429  0.00  0.00    -0.090 A 
BRANCH   4  10
ATOM     10  O   LIG    1        0.705   9.924  -0.785  0.00  0.00    -0.300 OA
BRANCH  10  12
ATOM     11  C   LIG    1       -0.720  11.382  -2.083  0.00  0.00    +0.070 C 
ATOM     12  C   LIG    1       -0.078   9.997  -1.978  0.00  0.00    +0.190 C 
ENDBRANCH  10  12
ENDBRANCH   4  10
ENDBRANCH   1   7
BRANCH   1  13
ATOM     13  N   LIG    1        2.459   3.898   1.161  0.00  0.00    -1.110 NA
ATOM     14  H   LIG    1        2.686   3.653   2.072  0.00  0.00    +0.430 HD
BRANCH  13  15
ATOM     15  C   LIG    1        1.205   3.428   0.567  0.00  0.00    +0.260 C 
ATOM     16  C   LIG    1        1.369   1.996  -0.000  0.00  0.00    +0.260 C 
ATOM     17  N   LIG    1       -0.018   1.465   0.010  0.00  0.00    -0.390 N 
ATOM     18  C   LIG    1       -0.630   1.960   1.262  0.00  0.00    +0.270 C 
ATOM     19  C   LIG    1        0.002  -0.004   0.002  0.00  0.00    +0.340 C 
ATOM     20  H   LIG    1       -0.529   1.811  -0.788  0.00  0.00    +0.430 HD
ATOM     21  C   LIG    1        0.119   3.247   1.653  0.00  0.00    +0.000 C 
ATOM     22  C   LIG    1       -0.839   4.440   1.650  0.00  0.00    +0.070 C 
ENDBRANCH  13  15
ENDBRANCH   1  13
TORSDOF 5
