REMARK  Name = ZINCpk00000y6xqD.0
REMARK                            x       y       z     vdW  Elec       q    Type
REMARK                         _______ _______ _______ _____ _____    ______ ____
ROOT
ATOM      1  N   LIG    1       -4.437  -0.857   0.910  0.00  0.00    -0.570 N 
ATOM      2  C   LIG    1       -4.776  -0.872  -0.527  0.00  0.00    +0.270 C 
ATOM      3  C   LIG    1       -4.696   0.530  -1.157  0.00  0.00    +0.010 C 
ATOM      4  C   LIG    1       -3.494   1.270  -0.624  0.00  0.00    +0.010 C 
ATOM      5  C   LIG    1       -3.901   2.083   0.601  0.00  0.00    +0.240 C 
ATOM      6  C   LIG    1       -3.882   1.328   1.863  0.00  0.00    +0.020 C 
ATOM      7  C   LIG    1       -4.908   0.170   1.813  0.00  0.00    +0.310 C 
ENDROOT
BRANCH   1  12
ATOM      8  N   LIG    1       -2.377  -2.828   3.252  0.00  0.00    -0.480 N 
ATOM      9  C   LIG    1       -2.060  -3.850   2.406  0.00  0.00    +0.160 A 
ATOM     10  C   LIG    1       -2.516  -3.864   1.135  0.00  0.00    +0.190 A 
ATOM     11  N   LIG    1       -3.287  -2.888   0.656  0.00  0.00    -0.510 NA
ATOM     12  C   LIG    1       -3.633  -1.870   1.415  0.00  0.00    +0.340 A 
ATOM     13  C   LIG    1       -3.153  -1.817   2.801  0.00  0.00    +0.480 A 
ATOM     14  O   LIG    1       -3.450  -0.886   3.530  0.00  0.00    -0.520 OA
BRANCH   8  16
ATOM     15  C   LIG    1       -0.529  -2.102   4.679  0.00  0.00    +0.030 C 
ATOM     16  C   LIG    1       -1.877  -2.823   4.629  0.00  0.00    +0.280 C 
ENDBRANCH   8  16
ENDBRANCH   1  12
BRANCH   5  17
ATOM     17  N   LIG    1       -2.991   3.224   0.726  0.00  0.00    -0.990 NA
BRANCH  17  18
ATOM     18  S   LIG    1       -3.590   4.768   0.709  0.00  0.00    +2.600 S 
ATOM     19  O   LIG    1       -2.632   5.523   1.437  0.00  0.00    -0.950 OA
ATOM     20  O   LIG    1       -4.925   4.631   1.177  0.00  0.00    -0.950 OA
ATOM     21  C   LIG    1       -3.575   5.239  -1.042  0.00  0.00    -0.290 C 
ENDBRANCH  17  18
BRANCH  17  22
ATOM     22  C   LIG    1       -1.550   2.999   0.867  0.00  0.00    +0.250 C 
ATOM     23  C   LIG    1       -0.987   3.445   2.227  0.00  0.00    +0.010 C 
ATOM     24  C   LIG    1        0.236   3.973   1.458  0.00  0.00    +0.030 C 
ATOM     25  C   LIG    1       -0.685   4.104   0.234  0.00  0.00    -0.010 C 
ENDBRANCH  17  22
ENDBRANCH   5  17
TORSDOF 5
