REMARK  Name = ZINCkj00000dDM4G.1
REMARK                            x       y       z     vdW  Elec       q    Type
REMARK                         _______ _______ _______ _____ _____    ______ ____
ROOT
ATOM      1  C   LIG    1        3.134  -0.533   2.109  0.00  0.00    +0.090 C 
ATOM      2  C   LIG    1        2.286  -0.018   0.944  0.00  0.00    +0.230 C 
ATOM      3  C   LIG    1        0.854  -0.532   1.078  0.00  0.00    +0.250 C 
ATOM      4  N   LIG    1        0.002  -0.004   0.002  0.00  0.00    -0.390 N 
ATOM      5  C   LIG    1       -1.395  -0.386   0.359  0.00  0.00    +0.250 C 
ATOM      6  C   LIG    1       -1.950   0.752   1.240  0.00  0.00    +0.060 C 
ATOM      7  C   LIG    1       -0.829   1.822   1.272  0.00  0.00    +0.080 C 
ATOM      8  C   LIG    1       -0.018   1.471   0.010  0.00  0.00    +0.160 C 
ATOM      9  C   LIG    1        1.352   2.108   0.001  0.00  0.00    +0.330 C 
ATOM     10  H   LIG    1        0.280  -0.364  -0.899  0.00  0.00    +0.430 HD
ATOM     11  N   LIG    1        2.235   1.455   0.976  0.00  0.00    -0.630 N 
ATOM     12  C   LIG    1        2.965   2.168   1.857  0.00  0.00    +0.520 C 
ATOM     13  O   LIG    1        3.685   1.599   2.649  0.00  0.00    -0.500 OA
ENDROOT
BRANCH  12  14
ATOM     14  C   LIG    1        2.885   3.673   1.857  0.00  0.00    +0.060 C 
BRANCH  14  15
ATOM     15  C   LIG    1        3.803   4.232   2.945  0.00  0.00    +0.040 C 
BRANCH  15  16
ATOM     16  C   LIG    1        3.722   5.760   2.946  0.00  0.00    +0.290 C 
BRANCH  16  17
ATOM     17  N   LIG    1        4.602   6.295   3.988  0.00  0.00    -0.460 N 
ATOM     18  C   LIG    1        5.919   6.636   3.842  0.00  0.00    +0.110 A 
ATOM     19  C   LIG    1        6.341   7.082   5.041  0.00  0.00    +0.150 A 
ATOM     20  N   LIG    1        5.309   7.015   5.895  0.00  0.00    -0.490 NA
ATOM     21  C   LIG    1        4.262   6.550   5.270  0.00  0.00    +0.380 A 
ENDBRANCH  16  17
ENDBRANCH  15  16
ENDBRANCH  14  15
ENDBRANCH  12  14
TORSDOF 4
