REMARK  Name = ZINCkj00000dDM4G.0
REMARK                            x       y       z     vdW  Elec       q    Type
REMARK                         _______ _______ _______ _____ _____    ______ ____
ROOT
ATOM      1  C   LIG    1       -0.749   1.591  -1.234  0.00  0.00    +0.050 C 
ATOM      2  C   LIG    1       -0.013   1.086   0.008  0.00  0.00    +0.260 C 
ATOM      3  C   LIG    1        1.431   1.616  -0.003  0.00  0.00    +0.260 C 
ATOM      4  N   LIG    1        1.376   3.059   0.198  0.00  0.00    -0.400 N 
ATOM      5  C   LIG    1        2.680   3.741   0.161  0.00  0.00    +0.260 C 
ATOM      6  C   LIG    1        2.408   5.084   0.888  0.00  0.00    +0.060 C 
ATOM      7  C   LIG    1        1.185   4.805   1.798  0.00  0.00    +0.080 C 
ATOM      8  C   LIG    1        0.888   3.317   1.579  0.00  0.00    +0.170 C 
ATOM      9  C   LIG    1       -0.594   2.960   1.612  0.00  0.00    +0.320 C 
ATOM     10  H   LIG    1        0.747   3.475  -0.472  0.00  0.00    +0.420 HD
ATOM     11  N   LIG    1       -0.710   1.558   1.211  0.00  0.00    -0.630 N 
ATOM     12  C   LIG    1       -1.447   0.703   1.948  0.00  0.00    +0.520 C 
ATOM     13  O   LIG    1       -1.536  -0.461   1.619  0.00  0.00    -0.500 OA
ENDROOT
BRANCH  12  14
ATOM     14  C   LIG    1       -2.161   1.194   3.182  0.00  0.00    +0.070 C 
BRANCH  14  15
ATOM     15  C   LIG    1       -2.919   0.032   3.828  0.00  0.00    +0.030 C 
BRANCH  15  16
ATOM     16  C   LIG    1       -3.643   0.530   5.081  0.00  0.00    +0.300 C 
BRANCH  16  17
ATOM     17  N   LIG    1       -4.369  -0.582   5.700  0.00  0.00    -0.460 N 
ATOM     18  C   LIG    1       -3.884  -1.438   6.651  0.00  0.00    +0.110 A 
ATOM     19  C   LIG    1       -4.876  -2.303   6.938  0.00  0.00    +0.150 A 
ATOM     20  N   LIG    1       -5.937  -1.983   6.183  0.00  0.00    -0.490 NA
ATOM     21  C   LIG    1       -5.642  -0.949   5.442  0.00  0.00    +0.380 A 
ENDBRANCH  16  17
ENDBRANCH  15  16
ENDBRANCH  14  15
ENDBRANCH  12  14
TORSDOF 4
