REMARK  Name = ZINCtV00000kShLo.0
REMARK                            x       y       z     vdW  Elec       q    Type
REMARK                         _______ _______ _______ _____ _____    ______ ____
ROOT
ATOM      1  C   LIG    1       -0.915   1.807  -0.764  0.00  0.00    +0.020 C 
ATOM      2  C   LIG    1       -0.796   1.442   0.717  0.00  0.00    +0.290 C 
ENDROOT
BRANCH   2   3
ATOM      3  C   LIG    1       -1.992   0.624   1.131  0.00  0.00    -0.130 A 
ATOM      4  C   LIG    1       -2.043  -0.725   0.831  0.00  0.00    +0.050 A 
ATOM      5  C   LIG    1       -3.136  -1.478   1.214  0.00  0.00    -0.080 A 
ATOM      6  C   LIG    1       -4.189  -0.877   1.889  0.00  0.00    +0.130 A 
ATOM      7  C   LIG    1       -4.138   0.477   2.183  0.00  0.00    -0.020 A 
ATOM      8  C   LIG    1       -3.040   1.225   1.804  0.00  0.00    +0.060 A 
BRANCH   6   9
ATOM      9  O   LIG    1       -5.268  -1.615   2.261  0.00  0.00    -0.310 OA
BRANCH   9  10
ATOM     10  C   LIG    1       -5.307  -2.974   1.824  0.00  0.00    +0.210 C 
ATOM     11  C   LIG    1       -4.519  -3.848   2.802  0.00  0.00    +0.040 C 
BRANCH  10  12
ATOM     12  C   LIG    1       -6.738  -3.444   1.771  0.00  0.00    -0.090 A 
ATOM     13  C   LIG    1       -7.648  -2.994   2.709  0.00  0.00    +0.040 A 
ATOM     14  C   LIG    1       -8.961  -3.422   2.658  0.00  0.00    +0.000 A 
ATOM     15  C   LIG    1       -9.363  -4.307   1.675  0.00  0.00    +0.000 A 
ATOM     16  C   LIG    1       -8.451  -4.761   0.741  0.00  0.00    +0.010 A 
ATOM     17  C   LIG    1       -7.139  -4.330   0.789  0.00  0.00    +0.010 A 
ENDBRANCH  10  12
ENDBRANCH   9  10
ENDBRANCH   6   9
ENDBRANCH   2   3
BRANCH   2  18
ATOM     18  N   LIG    1        0.426   0.662   0.931  0.00  0.00    -0.740 N 
ATOM     19  H   LIG    1        0.389  -0.307   0.933  0.00  0.00    +0.400 HD
BRANCH  18  20
ATOM     20  C   LIG    1        1.655   1.320   1.127  0.00  0.00    +0.070 A 
ATOM     21  C   LIG    1        1.850   2.663   1.142  0.00  0.00    +0.140 A 
ATOM     22  N   LIG    1        3.173   2.883   1.362  0.00  0.00    -0.380 N 
ATOM     23  N   LIG    1        3.803   1.637   1.477  0.00  0.00    -0.270 NA
ATOM     24  C   LIG    1        3.825   4.191   1.457  0.00  0.00    +0.350 C 
ATOM     25  C   LIG    1        2.897   0.703   1.337  0.00  0.00    +0.050 A 
BRANCH  25  26
ATOM     26  C   LIG    1        3.147  -0.782   1.391  0.00  0.00    +0.070 C 
ATOM     27  C   LIG    1        3.784  -1.162   2.744  0.00  0.00    +0.020 C 
ATOM     28  C   LIG    1        4.797  -2.279   2.385  0.00  0.00    +0.020 C 
ATOM     29  C   LIG    1        5.368  -1.800   1.027  0.00  0.00    +0.010 C 
ATOM     30  C   LIG    1        4.153  -1.188   0.300  0.00  0.00    +0.020 C 
ENDBRANCH  25  26
ENDBRANCH  18  20
ENDBRANCH   2  18
TORSDOF 7
