REMARK  Name = ZINCkj00000y7IRi.1
REMARK                            x       y       z     vdW  Elec       q    Type
REMARK                         _______ _______ _______ _____ _____    ______ ____
ROOT
ATOM      1  N   LIG    1        1.405   3.084   0.119  0.00  0.00    -0.380 N 
ATOM      2  C   LIG    1        0.705   3.459  -1.115  0.00  0.00    +0.240 C 
ATOM      3  C   LIG    1       -0.755   3.007  -1.036  0.00  0.00    +0.050 C 
ATOM      4  C   LIG    1       -0.804   1.486  -0.862  0.00  0.00    +0.070 C 
ATOM      5  C   LIG    1       -0.007   1.099   0.387  0.00  0.00    +0.010 C 
ATOM      6  C   LIG    1        1.425   1.622   0.255  0.00  0.00    +0.300 C 
ATOM      7  H   LIG    1        0.927   3.488   0.911  0.00  0.00    +0.430 HD
ENDROOT
BRANCH   5   8
ATOM      8  C   LIG    1       -0.655   1.706   1.605  0.00  0.00    +0.520 C 
ATOM      9  N   LIG    1       -1.926   1.389   1.922  0.00  0.00    -0.680 N 
ATOM     10  H   LIG    1       -2.424   0.770   1.365  0.00  0.00    +0.410 HD
ATOM     11  O   LIG    1       -0.032   2.480   2.301  0.00  0.00    -0.550 OA
BRANCH   9  12
ATOM     12  C   LIG    1       -2.555   1.979   3.106  0.00  0.00    +0.200 C 
ATOM     13  C   LIG    1       -3.375   1.052   4.006  0.00  0.00    +0.030 C 
ATOM     14  C   LIG    1       -4.082   2.080   3.119  0.00  0.00    +0.030 C 
ENDBRANCH   9  12
ENDBRANCH   5   8
BRANCH   1  15
ATOM     15  C   LIG    1        2.784   3.588   0.071  0.00  0.00    +0.260 C 
BRANCH  15  21
ATOM     16  C   LIG    1        5.512   7.656  -0.375  0.00  0.00    +0.200 C 
ATOM     17  N   LIG    1        4.181   7.113  -0.072  0.00  0.00    -0.540 NA
ATOM     18  C   LIG    1        3.689   7.616   1.217  0.00  0.00    +0.180 C 
ATOM     19  C   LIG    1        2.248   7.149   1.431  0.00  0.00    +0.040 C 
ATOM     20  C   LIG    1        2.204   5.618   1.410  0.00  0.00    +0.010 C 
ATOM     21  C   LIG    1        2.768   5.118   0.077  0.00  0.00    -0.010 C 
ATOM     22  C   LIG    1        4.194   5.645  -0.099  0.00  0.00    +0.190 C 
ENDBRANCH  15  21
ENDBRANCH   1  15
TORSDOF 4
