REMARK  Name = ZINCkj00000y7IRi.2
REMARK                            x       y       z     vdW  Elec       q    Type
REMARK                         _______ _______ _______ _____ _____    ______ ____
ROOT
ATOM      1  N   LIG    1        0.002  -0.004   0.002  0.00  0.00    -0.380 N 
ATOM      2  C   LIG    1        0.644  -0.500   1.225  0.00  0.00    +0.250 C 
ATOM      3  C   LIG    1        2.104  -0.042   1.261  0.00  0.00    +0.070 C 
ATOM      4  C   LIG    1        2.154   1.488   1.241  0.00  0.00    +0.060 C 
ATOM      5  C   LIG    1        1.416   1.997  -0.001  0.00  0.00    -0.010 C 
ATOM      6  C   LIG    1       -0.018   1.464   0.010  0.00  0.00    +0.290 C 
ATOM      7  H   LIG    1        0.518  -0.328  -0.802  0.00  0.00    +0.420 HD
ENDROOT
BRANCH   5   8
ATOM      8  C   LIG    1        1.393   3.504   0.010  0.00  0.00    +0.530 C 
ATOM      9  N   LIG    1        2.550   4.196   0.003  0.00  0.00    -0.690 N 
ATOM     10  H   LIG    1        3.397   3.724  -0.009  0.00  0.00    +0.400 HD
ATOM     11  O   LIG    1        0.333   4.094   0.025  0.00  0.00    -0.530 OA
BRANCH   9  12
ATOM     12  C   LIG    1        2.527   5.661   0.014  0.00  0.00    +0.210 C 
ATOM     13  C   LIG    1        3.486   6.389  -0.929  0.00  0.00    +0.020 C 
ATOM     14  C   LIG    1        3.752   6.382   0.578  0.00  0.00    +0.030 C 
ENDBRANCH   9  12
ENDBRANCH   5   8
BRANCH   1  15
ATOM     15  C   LIG    1       -1.375  -0.511  -0.064  0.00  0.00    +0.270 C 
BRANCH  15  21
ATOM     16  C   LIG    1        0.014  -4.295  -2.882  0.00  0.00    +0.200 C 
ATOM     17  N   LIG    1       -0.713  -3.882  -1.675  0.00  0.00    -0.540 NA
ATOM     18  C   LIG    1       -2.080  -4.419  -1.674  0.00  0.00    +0.180 C 
ATOM     19  C   LIG    1       -2.757  -4.093  -0.340  0.00  0.00    +0.040 C 
ATOM     20  C   LIG    1       -2.784  -2.574  -0.144  0.00  0.00    +0.040 C 
ATOM     21  C   LIG    1       -1.352  -2.035  -0.199  0.00  0.00    -0.010 C 
ATOM     22  C   LIG    1       -0.716  -2.420  -1.536  0.00  0.00    +0.170 C 
ENDBRANCH  15  21
ENDBRANCH   1  15
TORSDOF 4
