REMARK  Name = ZINCpk00000y6ug4.0
REMARK                            x       y       z     vdW  Elec       q    Type
REMARK                         _______ _______ _______ _____ _____    ______ ____
ROOT
ATOM      1  C   LIG    1       -0.118   1.522  -0.060  0.00  0.00    +0.610 C 
ATOM      2  N   LIG    1       -0.807   2.176   0.896  0.00  0.00    -0.610 N 
ATOM      3  C   LIG    1       -1.482   1.435   1.971  0.00  0.00    +0.270 C 
ATOM      4  C   LIG    1       -0.982   1.975   3.321  0.00  0.00    +0.290 C 
ATOM      5  N   LIG    1       -1.078   3.442   3.303  0.00  0.00    -0.590 N 
ATOM      6  C   LIG    1       -0.408   4.182   2.225  0.00  0.00    +0.300 C 
ATOM      7  C   LIG    1       -0.903   3.642   0.878  0.00  0.00    +0.290 C 
ATOM      8  O   LIG    1        0.423   2.146  -0.955  0.00  0.00    -0.520 OA
ENDROOT
BRANCH   5   9
ATOM      9  C   LIG    1       -1.790   4.116   4.290  0.00  0.00    +0.420 A 
ATOM     10  N   LIG    1       -1.984   5.409   4.178  0.00  0.00    -0.340 NA
ATOM     11  N   LIG    1       -2.701   6.105   5.154  0.00  0.00    -0.270 N 
ATOM     12  C   LIG    1       -3.058   7.397   5.310  0.00  0.00    +0.210 A 
ATOM     13  N   LIG    1       -3.730   7.493   6.430  0.00  0.00    -0.260 NA
ATOM     14  N   LIG    1       -3.820   6.339   6.994  0.00  0.00    -0.250 NA
ATOM     15  C   LIG    1       -2.740   8.527   4.364  0.00  0.00    +0.210 C 
ATOM     16  C   LIG    1       -3.200   5.439   6.247  0.00  0.00    +0.110 A 
ATOM     17  C   LIG    1       -2.985   4.053   6.367  0.00  0.00    +0.190 A 
ATOM     18  C   LIG    1       -2.288   3.404   5.398  0.00  0.00    -0.030 A 
ENDBRANCH   5   9
BRANCH   1  20
ATOM     19  C   LIG    1        1.125  -0.620  -0.192  0.00  0.00    +0.190 A 
ATOM     20  C   LIG    1       -0.027   0.108  -0.026  0.00  0.00    -0.340 A 
ATOM     21  S   LIG    1       -1.372  -0.995   0.227  0.00  0.00    +0.240 S 
ATOM     22  C   LIG    1       -0.346  -2.352   0.107  0.00  0.00    -0.020 A 
ATOM     23  C   LIG    1        0.919  -1.983  -0.108  0.00  0.00    -0.060 A 
BRANCH  19  25
ATOM     24  C   LIG    1        3.448  -0.949  -0.566  0.00  0.00    +0.250 C 
ATOM     25  O   LIG    1        2.341  -0.059  -0.413  0.00  0.00    -0.280 OA
ENDBRANCH  19  25
ENDBRANCH   1  20
TORSDOF 3
