REMARK  Name = ZINCpe00000VVGxZ.0
REMARK                            x       y       z     vdW  Elec       q    Type
REMARK                         _______ _______ _______ _____ _____    ______ ____
ROOT
ATOM      1  S   LIG    1       -0.859  -1.916   2.521  0.00  0.00    +0.100 S 
ENDROOT
BRANCH   1   2
ATOM      2  C   LIG    1       -1.666  -1.549   0.998  0.00  0.00    +0.160 A 
ATOM      3  N   LIG    1       -2.826  -2.015   0.597  0.00  0.00    -0.300 NA
ATOM      4  N   LIG    1       -3.111  -1.539  -0.563  0.00  0.00    -0.280 NA
ATOM      5  C   LIG    1       -2.162  -0.743  -0.967  0.00  0.00    +0.390 A 
ATOM      6  N   LIG    1       -1.203  -0.724   0.010  0.00  0.00    -0.410 N 
BRANCH   6   7
ATOM      7  C   LIG    1        0.002  -0.004   0.002  0.00  0.00    +0.060 A 
ATOM      8  C   LIG    1       -0.017   1.382   0.010  0.00  0.00    +0.080 A 
ATOM      9  C   LIG    1        1.171   2.089   0.002  0.00  0.00    -0.010 A 
ATOM     10  C   LIG    1        2.379   1.418  -0.013  0.00  0.00    +0.080 A 
ATOM     11  C   LIG    1        2.406   0.035  -0.021  0.00  0.00    -0.060 A 
ATOM     12  C   LIG    1        1.220  -0.680  -0.013  0.00  0.00    +0.150 A 
BRANCH  12  13
ATOM     13  O   LIG    1        1.244  -2.040  -0.020  0.00  0.00    -0.300 OA
ATOM     14  C   LIG    1        2.529  -2.665  -0.036  0.00  0.00    +0.250 C 
ENDBRANCH  12  13
ENDBRANCH   6   7
ENDBRANCH   1   2
BRANCH   1  15
ATOM     15  C   LIG    1       -2.070  -3.044   3.254  0.00  0.00    +0.110 C 
BRANCH  15  21
ATOM     16  N   LIG    1       -2.624  -5.612   7.280  0.00  0.00    -0.730 N 
ATOM     17  H   LIG    1       -3.476  -5.929   6.942  0.00  0.00    +0.400 HD
ATOM     18  C   LIG    1       -1.881  -4.761   6.545  0.00  0.00    +0.700 C 
ATOM     19  N   LIG    1       -2.321  -4.352   5.339  0.00  0.00    -0.690 N 
ATOM     20  H   LIG    1       -3.173  -4.669   5.000  0.00  0.00    +0.410 HD
ATOM     21  C   LIG    1       -1.578  -3.501   4.603  0.00  0.00    +0.540 C 
ATOM     22  O   LIG    1       -0.514  -3.105   5.026  0.00  0.00    -0.450 OA
ATOM     23  O   LIG    1       -0.814  -4.363   6.969  0.00  0.00    -0.530 OA
BRANCH  16  24
ATOM     24  C   LIG    1       -2.145  -6.056   8.592  0.00  0.00    +0.310 C 
BRANCH  24  25
ATOM     25  C   LIG    1       -3.169  -7.009   9.212  0.00  0.00    +0.180 C 
BRANCH  25  27
ATOM     26  C   LIG    1       -4.191  -9.157   8.914  0.00  0.00    +0.200 C 
ATOM     27  O   LIG    1       -3.257  -8.195   8.419  0.00  0.00    -0.390 OA
ENDBRANCH  25  27
ENDBRANCH  24  25
ENDBRANCH  16  24
ENDBRANCH  15  21
ENDBRANCH   1  15
TORSDOF 8
