REMARK  Name = ZINCrD000000CozF.0
REMARK                            x       y       z     vdW  Elec       q    Type
REMARK                         _______ _______ _______ _____ _____    ______ ____
ROOT
ATOM      1  C   LIG    1        2.646   5.611   0.007  0.00  0.00    -0.140 A 
ATOM      2  C   LIG    1        1.467   6.358   0.016  0.00  0.00    +0.160 A 
ATOM      3  C   LIG    1        1.527   7.736   0.027  0.00  0.00    +0.020 A 
ATOM      4  C   LIG    1        2.754   8.378   0.019  0.00  0.00    +0.080 A 
ATOM      5  C   LIG    1        3.927   7.642   0.005  0.00  0.00    -0.690 A 
ATOM      6 CL   LIG    1        2.821  10.113   0.027  0.00  0.00    -0.020 Cl
ATOM      7  C   LIG    1        3.881   6.264  -0.001  0.00  0.00    +0.220 A 
ENDROOT
BRANCH   5   8
ATOM      8  S   LIG    1        5.483   8.469  -0.005  0.00  0.00    +2.710 S 
ATOM      9  O   LIG    1        6.477   7.454  -0.054  0.00  0.00    -0.940 OA
ATOM     10  O   LIG    1        5.424   9.449   1.022  0.00  0.00    -0.930 OA
BRANCH   8  11
ATOM     11  N   LIG    1        5.589   9.297  -1.436  0.00  0.00    -1.010 NA
ATOM     12  C   LIG    1        6.153   8.773  -2.689  0.00  0.00    +0.270 C 
ATOM     13  C   LIG    1        6.062   9.901  -3.738  0.00  0.00    +0.030 C 
ATOM     14  C   LIG    1        5.979  11.180  -2.865  0.00  0.00    +0.040 C 
ATOM     15  C   LIG    1        5.139  10.682  -1.662  0.00  0.00    +0.270 C 
ENDBRANCH   8  11
ENDBRANCH   5   8
BRANCH   1  17
ATOM     16  O   LIG    1        3.617   3.487  -0.014  0.00  0.00    -0.490 OA
ATOM     17  C   LIG    1        2.589   4.135  -0.001  0.00  0.00    +0.510 C 
BRANCH  17  18
ATOM     18  O   LIG    1        1.397   3.507   0.008  0.00  0.00    -0.350 OA
BRANCH  18  19
ATOM     19  C   LIG    1        1.417   2.055  -0.000  0.00  0.00    +0.230 C 
BRANCH  19  20
ATOM     20  C   LIG    1       -0.019   1.526   0.010  0.00  0.00    +0.050 C 
BRANCH  20  21
ATOM     21  C   LIG    1        0.002  -0.004   0.002  0.00  0.00    +0.080 C 
BRANCH  21  22
ATOM     22  C   LIG    1       -1.412  -0.526   0.013  0.00  0.00    -0.040 A 
ATOM     23  C   LIG    1       -2.064  -0.783   1.209  0.00  0.00    -0.030 A 
ATOM     24  C   LIG    1       -3.362  -1.257   1.179  0.00  0.00    +0.260 A 
ATOM     25  N   LIG    1       -3.975  -1.473   0.032  0.00  0.00    -0.490 NA
ATOM     26  C   LIG    1       -3.385  -1.244  -1.124  0.00  0.00    +0.260 A 
ATOM     27  C   LIG    1       -2.089  -0.765  -1.173  0.00  0.00    -0.030 A 
ENDBRANCH  21  22
ENDBRANCH  20  21
ENDBRANCH  19  20
ENDBRANCH  18  19
ENDBRANCH  17  18
ENDBRANCH   1  17
TORSDOF 8
