REMARK  Name = ZINCvU0000000D2w.0
REMARK                            x       y       z     vdW  Elec       q    Type
REMARK                         _______ _______ _______ _____ _____    ______ ____
ROOT
ATOM      1  C   LIG    1        0.016  -1.966  -1.213  0.00  0.00    +0.370 A 
ATOM      2  N   LIG    1       -0.006  -0.646  -1.151  0.00  0.00    -0.500 NA
ATOM      3  C   LIG    1        0.002  -0.004   0.002  0.00  0.00    +0.110 A 
ATOM      4  C   LIG    1        0.023  -0.690   1.202  0.00  0.00    +0.020 A 
ATOM      5  C   LIG    1        0.041  -2.074   1.196  0.00  0.00    +0.210 A 
ATOM      6  C   LIG    1        0.038  -2.732  -0.038  0.00  0.00    -0.070 A 
ENDROOT
BRANCH   6   7
ATOM      7  C   LIG    1        0.056  -4.207  -0.103  0.00  0.00    +0.240 A 
ATOM      8  N   LIG    1        0.077  -5.039   0.922  0.00  0.00    -0.420 NA
ATOM      9  C   LIG    1        0.088  -6.276   0.382  0.00  0.00    +0.250 A 
ATOM     10  N   LIG    1        0.074  -6.134  -0.920  0.00  0.00    -0.360 NA
ATOM     11  O   LIG    1        0.050  -4.958  -1.215  0.00  0.00    +0.130 OA
BRANCH   9  12
ATOM     12  C   LIG    1        0.112  -7.558   1.124  0.00  0.00    +0.350 A 
ATOM     13  N   LIG    1        0.133  -7.672   2.428  0.00  0.00    -0.420 NA
ATOM     14  C   LIG    1        0.148  -8.982   2.771  0.00  0.00    +0.050 A 
ATOM     15  C   LIG    1        0.170  -9.655   3.997  0.00  0.00    +0.130 A 
ATOM     16  C   LIG    1        0.189 -11.031   4.022  0.00  0.00    -0.100 A 
ATOM     17  C   LIG    1        0.186 -11.757   2.838  0.00  0.00    +0.090 A 
ATOM     18  C   LIG    1        0.165 -11.111   1.621  0.00  0.00    +0.040 A 
ATOM     19 BR   LIG    1        0.218 -11.939   5.680  0.00  0.00    -0.030 Br
ATOM     20  C   LIG    1        0.146  -9.724   1.575  0.00  0.00    +0.080 A 
ATOM     21  N   LIG    1        0.123  -8.800   0.550  0.00  0.00    -0.580 N 
ATOM     22  H   LIG    1        0.115  -8.995  -0.400  0.00  0.00    +0.430 HD
ENDBRANCH   9  12
ENDBRANCH   6   7
BRANCH   3  23
ATOM     23  C   LIG    1       -0.018   1.503   0.010  0.00  0.00    +0.520 C 
ATOM     24  F   LIG    1       -0.673   1.954   1.161  0.00  0.00    -0.160 F 
ATOM     25  F   LIG    1       -0.695   1.966  -1.123  0.00  0.00    -0.160 F 
ATOM     26  F   LIG    1        1.294   1.987   0.000  0.00  0.00    -0.160 F 
ENDBRANCH   3  23
BRANCH   1  27
ATOM     27  O   LIG    1        0.013  -2.583  -2.419  0.00  0.00    -0.280 OA
BRANCH  27  28
ATOM     28  C   LIG    1       -0.009  -1.745  -3.577  0.00  0.00    +0.260 C 
BRANCH  28  30
ATOM     29  F   LIG    1       -1.141  -3.438  -4.834  0.00  0.00    -0.170 F 
ATOM     30  C   LIG    1       -0.010  -2.615  -4.836  0.00  0.00    +0.460 C 
ATOM     31  F   LIG    1        1.143  -3.407  -4.856  0.00  0.00    -0.170 F 
ATOM     32  F   LIG    1       -0.032  -1.794  -5.969  0.00  0.00    -0.170 F 
ENDBRANCH  28  30
ENDBRANCH  27  28
ENDBRANCH   1  27
TORSDOF 6
