REMARK  Name = ZINCvU0000000D2w.1
REMARK                            x       y       z     vdW  Elec       q    Type
REMARK                         _______ _______ _______ _____ _____    ______ ____
ROOT
ATOM      1  C   LIG    1        5.320  10.076  -0.005  0.00  0.00    +0.370 A 
ATOM      2  N   LIG    1        6.502  10.668  -0.008  0.00  0.00    -0.500 NA
ATOM      3  C   LIG    1        7.626   9.976  -0.022  0.00  0.00    +0.110 A 
ATOM      4  C   LIG    1        7.616   8.594  -0.029  0.00  0.00    +0.020 A 
ATOM      5  C   LIG    1        6.405   7.922  -0.020  0.00  0.00    +0.210 A 
ATOM      6  C   LIG    1        5.227   8.676  -0.005  0.00  0.00    -0.070 A 
ENDROOT
BRANCH   6   7
ATOM      7  C   LIG    1        3.909   8.011   0.005  0.00  0.00    +0.240 A 
ATOM      8  N   LIG    1        3.685   6.710   0.001  0.00  0.00    -0.420 NA
ATOM      9  C   LIG    1        2.342   6.575   0.013  0.00  0.00    +0.250 A 
ATOM     10  N   LIG    1        1.829   7.779   0.019  0.00  0.00    -0.360 NA
ATOM     11  O   LIG    1        2.710   8.613   0.019  0.00  0.00    +0.130 OA
BRANCH   9  12
ATOM     12  C   LIG    1        1.588   5.300   0.014  0.00  0.00    +0.360 A 
ATOM     13  N   LIG    1        2.127   4.106   0.003  0.00  0.00    -0.430 NA
ATOM     14  C   LIG    1        1.152   3.167   0.008  0.00  0.00    +0.060 A 
ATOM     15  C   LIG    1        1.165   1.768   0.000  0.00  0.00    +0.110 A 
ATOM     16  C   LIG    1       -0.013   1.076   0.008  0.00  0.00    +0.050 A 
ATOM     17  C   LIG    1       -1.228   1.746   0.017  0.00  0.00    -0.060 A 
ATOM     18  C   LIG    1       -1.266   3.126   0.031  0.00  0.00    +0.060 A 
ATOM     19 BR   LIG    1       -2.844   0.763   0.019  0.00  0.00    -0.030 Br
ATOM     20  C   LIG    1       -0.080   3.846   0.024  0.00  0.00    +0.070 A 
ATOM     21  N   LIG    1        0.223   5.192   0.027  0.00  0.00    -0.570 N 
ATOM     22  H   LIG    1       -0.412   5.926   0.037  0.00  0.00    +0.430 HD
ENDBRANCH   9  12
ENDBRANCH   6   7
BRANCH   3  23
ATOM     23  C   LIG    1        8.944  10.707  -0.033  0.00  0.00    +0.520 C 
ATOM     24  F   LIG    1        9.912   9.931   0.614  0.00  0.00    -0.160 F 
ATOM     25  F   LIG    1        8.805  11.929   0.634  0.00  0.00    -0.160 F 
ATOM     26  F   LIG    1        9.338  10.939  -1.355  0.00  0.00    -0.160 F 
ENDBRANCH   3  23
BRANCH   1  27
ATOM     27  O   LIG    1        4.192  10.825   0.003  0.00  0.00    -0.280 OA
BRANCH  27  28
ATOM     28  C   LIG    1        4.356  12.245   0.003  0.00  0.00    +0.260 C 
BRANCH  28  30
ATOM     29  F   LIG    1        2.281  12.530   1.161  0.00  0.00    -0.170 F 
ATOM     30  C   LIG    1        2.982  12.917   0.013  0.00  0.00    +0.460 C 
ATOM     31  F   LIG    1        2.264  12.530  -1.124  0.00  0.00    -0.170 F 
ATOM     32  F   LIG    1        3.142  14.307   0.012  0.00  0.00    -0.170 F 
ENDBRANCH  28  30
ENDBRANCH  27  28
ENDBRANCH   1  27
TORSDOF 6
