REMARK  Name = ZINCtV000002sQdI.0
REMARK                            x       y       z     vdW  Elec       q    Type
REMARK                         _______ _______ _______ _____ _____    ______ ____
ROOT
ATOM      1  N   LIG    1       -0.133   2.702  -2.538  0.00  0.00    -0.670 N 
ATOM      2  H   LIG    1        0.334   3.552  -2.521  0.00  0.00    +0.410 HD
ATOM      3  C   LIG    1       -0.042   1.863  -1.487  0.00  0.00    +0.490 C 
ATOM      4  O   LIG    1       -0.698   0.843  -1.467  0.00  0.00    -0.480 OA
ENDROOT
BRANCH   1  10
ATOM      5  C   LIG    1       -2.268   2.143  -3.520  0.00  0.00    -0.050 A 
ATOM      6  C   LIG    1       -3.023   1.798  -4.623  0.00  0.00    +0.010 A 
ATOM      7  C   LIG    1       -2.418   1.643  -5.857  0.00  0.00    +0.010 A 
ATOM      8  C   LIG    1       -1.056   1.840  -5.991  0.00  0.00    +0.020 A 
ATOM      9  C   LIG    1       -0.295   2.191  -4.893  0.00  0.00    -0.070 A 
ATOM     10  C   LIG    1       -0.900   2.346  -3.653  0.00  0.00    +0.130 A 
BRANCH   5  12
ATOM     11  C   LIG    1       -3.392   3.752  -2.004  0.00  0.00    +0.030 C 
ATOM     12  C   LIG    1       -2.927   2.304  -2.174  0.00  0.00    +0.020 C 
ATOM     13  C   LIG    1       -4.133   1.367  -2.082  0.00  0.00    +0.040 C 
ENDBRANCH   5  12
BRANCH   9  14
ATOM     14  C   LIG    1        1.189   2.404  -5.040  0.00  0.00    +0.010 C 
ATOM     15  C   LIG    1        1.446   3.533  -6.041  0.00  0.00    +0.040 C 
ATOM     16  C   LIG    1        1.842   1.116  -5.545  0.00  0.00    +0.040 C 
ENDBRANCH   9  14
ENDBRANCH   1  10
BRANCH   3  17
ATOM     17  C   LIG    1        0.875   2.192  -0.337  0.00  0.00    +0.350 C 
BRANCH  17  18
ATOM     18  N   LIG    1        0.795   1.131   0.670  0.00  0.00    -0.460 N 
ATOM     19  C   LIG    1       -0.078   1.083   1.745  0.00  0.00    +0.070 A 
ATOM     20  C   LIG    1       -1.087   1.917   2.201  0.00  0.00    +0.010 A 
ATOM     21  C   LIG    1       -1.800   1.576   3.333  0.00  0.00    +0.040 A 
ATOM     22  C   LIG    1       -1.518   0.402   4.014  0.00  0.00    +0.010 A 
ATOM     23  C   LIG    1       -0.523  -0.441   3.572  0.00  0.00    +0.070 A 
ATOM     24  C   LIG    1        0.209  -0.111   2.428  0.00  0.00    +0.060 A 
ATOM     25  N   LIG    1        1.224  -0.720   1.762  0.00  0.00    -0.470 NA
ATOM     26  C   LIG    1        1.571   0.008   0.728  0.00  0.00    +0.270 A 
BRANCH  26  27
ATOM     27  S   LIG    1        2.846  -0.402  -0.416  0.00  0.00    -0.010 S 
BRANCH  27  28
ATOM     28  C   LIG    1        3.404  -1.975   0.285  0.00  0.00    +0.450 C 
ATOM     29  F   LIG    1        2.340  -2.882   0.298  0.00  0.00    -0.170 F 
ATOM     30  F   LIG    1        3.857  -1.768   1.592  0.00  0.00    -0.170 F 
ENDBRANCH  27  28
ENDBRANCH  26  27
ENDBRANCH  17  18
ENDBRANCH   3  17
TORSDOF 7
