REMARK  Name = ZINCue00000001jw.0
REMARK                            x       y       z     vdW  Elec       q    Type
REMARK                         _______ _______ _______ _____ _____    ______ ____
ROOT
ATOM      1  C   LIG    1        2.075   4.978   2.302  0.00  0.00    +0.130 C 
ATOM      2  C   LIG    1        2.801   4.714   1.009  0.00  0.00    +0.010 A 
ATOM      3  C   LIG    1        3.998   5.223   0.665  0.00  0.00    +0.000 A 
ATOM      4  C   LIG    1        4.302   4.701  -0.672  0.00  0.00    -0.210 A 
ATOM      5  C   LIG    1        3.245   3.904  -1.018  0.00  0.00    +0.100 A 
ATOM      6  C   LIG    1        3.100   3.143  -2.311  0.00  0.00    +0.140 C 
ATOM      7  N   LIG    1        2.354   3.915  -0.006  0.00  0.00    -0.400 N 
ENDROOT
BRANCH   7   8
ATOM      8  C   LIG    1        1.140   3.213   0.003  0.00  0.00    +0.130 A 
ATOM      9  C   LIG    1        1.141   1.825  -0.007  0.00  0.00    +0.040 A 
ATOM     10  C   LIG    1       -0.055   1.133  -0.002  0.00  0.00    +0.050 A 
ATOM     11  C   LIG    1       -1.259   1.821   0.009  0.00  0.00    +0.060 A 
ATOM     12  O   LIG    1       -2.427   1.122   0.003  0.00  0.00    -0.300 OA
ATOM     13  C   LIG    1       -3.606   1.835   0.394  0.00  0.00    +0.220 C 
ATOM     14  C   LIG    1       -3.614   3.185  -0.335  0.00  0.00    +0.220 C 
ATOM     15  O   LIG    1       -2.434   3.904   0.053  0.00  0.00    -0.300 OA
ATOM     16  C   LIG    1       -1.262   3.212   0.028  0.00  0.00    +0.060 A 
ATOM     17  C   LIG    1       -0.063   3.905   0.020  0.00  0.00    +0.040 A 
ENDBRANCH   7   8
BRANCH   4  18
ATOM     18  C   LIG    1        5.502   4.977  -1.478  0.00  0.00    +0.600 C 
ATOM     19  N   LIG    1        6.648   5.350  -0.874  0.00  0.00    -0.600 N 
ATOM     20  C   LIG    1        6.871   5.415   0.582  0.00  0.00    +0.250 C 
ATOM     21  C   LIG    1        8.406   5.270   0.753  0.00  0.00    +0.050 C 
ATOM     22  C   LIG    1        8.929   6.072  -0.468  0.00  0.00    -0.140 C 
ATOM     23  C   LIG    1        7.881   5.765  -1.558  0.00  0.00    +0.260 C 
ATOM     24  O   LIG    1        5.460   4.870  -2.689  0.00  0.00    -0.560 OA
BRANCH  22  25
ATOM     25  C   LIG    1        8.966   7.548  -0.165  0.00  0.00    +0.510 C 
ATOM     26  O   LIG    1        9.719   7.975   0.694  0.00  0.00    -0.690 OA
ATOM     27  O   LIG    1        8.244   8.315  -0.778  0.00  0.00    -0.690 OA
ENDBRANCH  22  25
BRANCH  22  28
ATOM     28  C   LIG    1       10.312   5.574  -0.890  0.00  0.00    +0.060 C 
BRANCH  28  29
ATOM     29  C   LIG    1       10.747   6.295  -2.168  0.00  0.00    +0.170 C 
BRANCH  29  30
ATOM     30  O   LIG    1       12.039   5.829  -2.563  0.00  0.00    -0.580 OA
ATOM     31  H   LIG    1       12.378   6.245  -3.367  0.00  0.00    +0.370 HD
ENDBRANCH  29  30
ENDBRANCH  28  29
ENDBRANCH  22  28
ENDBRANCH   4  18
TORSDOF 6
