REMARK  Name = ZINCvU00000006vP.0
REMARK                            x       y       z     vdW  Elec       q    Type
REMARK                         _______ _______ _______ _____ _____    ______ ____
ROOT
ATOM      1  N   LIG    1        5.066  -6.417   2.285  0.00  0.00    -0.410 N 
ATOM      2  C   LIG    1        4.592  -5.546   1.342  0.00  0.00    +0.170 A 
ATOM      3  N   LIG    1        4.857  -6.067   0.164  0.00  0.00    -0.290 NA
ATOM      4  N   LIG    1        5.467  -7.189   0.303  0.00  0.00    -0.240 NA
ATOM      5  C   LIG    1        5.622  -7.461   1.578  0.00  0.00    +0.230 A 
ENDROOT
BRANCH   1  11
ATOM      6  C   LIG    1        2.660  -7.174   6.507  0.00  0.00    +0.100 C 
ATOM      7  C   LIG    1        3.845  -6.634   5.749  0.00  0.00    -0.080 A 
ATOM      8  C   LIG    1        4.868  -5.999   6.428  0.00  0.00    +0.050 A 
ATOM      9  C   LIG    1        5.957  -5.501   5.735  0.00  0.00    +0.030 A 
ATOM     10  C   LIG    1        6.025  -5.638   4.363  0.00  0.00    -0.060 A 
ATOM     11  C   LIG    1        5.000  -6.277   3.678  0.00  0.00    +0.100 A 
ATOM     12  C   LIG    1        7.212  -5.097   3.609  0.00  0.00    +0.100 C 
ATOM     13  C   LIG    1        3.905  -6.770   4.375  0.00  0.00    +0.040 A 
ENDBRANCH   1  11
BRANCH   5  14
ATOM     14  C   LIG    1        6.270  -8.661   2.148  0.00  0.00    -0.010 A 
ATOM     15  C   LIG    1        6.368  -8.815   3.532  0.00  0.00    +0.040 A 
ATOM     16  C   LIG    1        6.969  -9.940   4.057  0.00  0.00    +0.020 A 
ATOM     17  C   LIG    1        7.485 -10.910   3.216  0.00  0.00    +0.050 A 
ATOM     18  C   LIG    1        7.396 -10.763   1.843  0.00  0.00    +0.030 A 
ATOM     19  C   LIG    1        6.792  -9.645   1.304  0.00  0.00    -0.000 A 
ATOM     20 CL   LIG    1        6.682  -9.460  -0.419  0.00  0.00    -0.030 Cl
ENDBRANCH   5  14
BRANCH   2  21
ATOM     21  S   LIG    1        3.773  -4.017   1.649  0.00  0.00    +0.040 S 
BRANCH  21  22
ATOM     22  C   LIG    1        3.470  -3.475  -0.051  0.00  0.00    +0.210 C 
BRANCH  22  23
ATOM     23  C   LIG    1        2.758  -2.148  -0.036  0.00  0.00    +0.080 A 
ATOM     24  C   LIG    1        3.351  -0.935  -0.035  0.00  0.00    +0.120 A 
ATOM     25  N   LIG    1        2.353   0.001  -0.020  0.00  0.00    -0.400 N 
ATOM     26  C   LIG    1        2.364   1.365  -0.013  0.00  0.00    +0.290 A 
ATOM     27  C   LIG    1        1.184   2.034   0.002  0.00  0.00    -0.030 A 
ATOM     28  C   LIG    1       -0.016   1.308   0.009  0.00  0.00    +0.370 A 
ATOM     29  N   LIG    1        0.002  -0.004   0.002  0.00  0.00    -0.440 NA
ATOM     30  C   LIG    1        1.162  -0.677  -0.013  0.00  0.00    +0.380 A 
ATOM     31  N   LIG    1        1.433  -1.974  -0.023  0.00  0.00    -0.450 NA
ENDBRANCH  22  23
ENDBRANCH  21  22
ENDBRANCH   2  21
TORSDOF 5
