REMARK  Name = ZINCvU0000000A1m.0
REMARK                            x       y       z     vdW  Elec       q    Type
REMARK                         _______ _______ _______ _____ _____    ______ ____
ROOT
ATOM      1  C   LIG    1        8.205   3.501  -0.356  0.00  0.00    +0.140 A 
ATOM      2  C   LIG    1        7.890   4.849  -0.255  0.00  0.00    +0.160 A 
ATOM      3  C   LIG    1        8.881   5.801  -0.391  0.00  0.00    -0.660 A 
ATOM      4  C   LIG    1       10.185   5.414  -0.637  0.00  0.00    +0.130 A 
ATOM      5  C   LIG    1       10.503   4.072  -0.744  0.00  0.00    +0.040 A 
ATOM      6  C   LIG    1        9.517   3.114  -0.604  0.00  0.00    -0.020 A 
ATOM      7 CL   LIG    1        9.916   1.430  -0.739  0.00  0.00    -0.040 Cl
ENDROOT
BRANCH   1   9
ATOM      8  C   LIG    1        6.080   2.822   0.472  0.00  0.00    +0.520 C 
ATOM      9  N   LIG    1        7.204   2.534  -0.214  0.00  0.00    -0.670 N 
ATOM     10  H   LIG    1        7.318   1.655  -0.609  0.00  0.00    +0.420 HD
ATOM     11  O   LIG    1        5.978   3.885   1.049  0.00  0.00    -0.500 OA
BRANCH   8  12
ATOM     12  C   LIG    1        4.951   1.826   0.523  0.00  0.00    +0.100 C 
BRANCH  12  13
ATOM     13  C   LIG    1        3.804   2.397   1.360  0.00  0.00    +0.100 C 
BRANCH  13  14
ATOM     14  S   LIG    1        2.445   1.197   1.421  0.00  0.00    -0.110 S 
BRANCH  14  19
ATOM     15  C   LIG    1       -1.689   4.001   4.810  0.00  0.00    +0.090 C 
ATOM     16  C   LIG    1       -0.657   3.301   3.964  0.00  0.00    -0.090 A 
ATOM     17  C   LIG    1       -0.919   2.041   3.458  0.00  0.00    +0.030 A 
ATOM     18  C   LIG    1        0.026   1.394   2.687  0.00  0.00    +0.040 A 
ATOM     19  C   LIG    1        1.238   2.015   2.411  0.00  0.00    -0.090 A 
ATOM     20  C   LIG    1        1.496   3.284   2.916  0.00  0.00    +0.000 A 
ATOM     21  C   LIG    1        0.548   3.923   3.690  0.00  0.00    +0.030 A 
ENDBRANCH  14  19
ENDBRANCH  13  14
ENDBRANCH  12  13
ENDBRANCH   8  12
ENDBRANCH   1   9
BRANCH   3  22
ATOM     22  S   LIG    1        8.482   7.512  -0.256  0.00  0.00    +2.690 S 
ATOM     23  O   LIG    1        9.684   8.177   0.108  0.00  0.00    -0.940 OA
ATOM     24  O   LIG    1        7.289   7.587   0.512  0.00  0.00    -0.930 OA
BRANCH  22  25
ATOM     25  N   LIG    1        8.094   8.046  -1.775  0.00  0.00    -1.050 N 
ATOM     26  H   LIG    1        8.610   8.758  -2.185  0.00  0.00    +0.430 HD
BRANCH  25  27
ATOM     27  C   LIG    1        7.024   7.471  -2.466  0.00  0.00    +0.120 A 
ATOM     28  C   LIG    1        5.890   7.062  -1.778  0.00  0.00    +0.020 A 
ATOM     29  C   LIG    1        4.833   6.494  -2.463  0.00  0.00    +0.040 A 
ATOM     30  C   LIG    1        4.903   6.332  -3.834  0.00  0.00    +0.040 A 
ATOM     31  C   LIG    1        6.031   6.737  -4.525  0.00  0.00    +0.010 A 
ATOM     32  C   LIG    1        7.090   7.311  -3.847  0.00  0.00    +0.080 A 
ATOM     33  F   LIG    1        8.189   7.712  -4.522  0.00  0.00    -0.130 F 
ENDBRANCH  25  27
ENDBRANCH  22  25
ENDBRANCH   3  22
TORSDOF 8
