REMARK  Name = ZINCqH0000008vbI.0
REMARK                            x       y       z     vdW  Elec       q    Type
REMARK                         _______ _______ _______ _____ _____    ______ ____
ROOT
ATOM      1  C   LIG    1       -1.208   6.312  -0.207  0.00  0.00    +0.520 C 
ATOM      2  N   LIG    1       -0.046   5.631  -0.262  0.00  0.00    -0.520 N 
ATOM      3  H   LIG    1        0.795   6.096  -0.130  0.00  0.00    +0.430 HD
ATOM      4  O   LIG    1       -2.259   5.732  -0.373  0.00  0.00    -0.510 OA
ENDROOT
BRANCH   2   5
ATOM      5  N   LIG    1       -0.053   4.252  -0.510  0.00  0.00    -0.520 N 
ATOM      6  H   LIG    1       -0.895   3.788  -0.643  0.00  0.00    +0.430 HD
ATOM      7  C   LIG    1        1.108   3.571  -0.565  0.00  0.00    +0.560 C 
ATOM      8  O   LIG    1        2.163   4.153  -0.399  0.00  0.00    -0.510 OA
BRANCH   7   9
ATOM      9  C   LIG    1        1.100   2.117  -0.827  0.00  0.00    -0.130 A 
ATOM     10  C   LIG    1       -0.108   1.445  -1.018  0.00  0.00    +0.070 A 
ATOM     11  C   LIG    1       -0.109   0.088  -1.262  0.00  0.00    +0.020 A 
ATOM     12  C   LIG    1        1.085  -0.609  -1.319  0.00  0.00    +0.070 A 
ATOM     13  C   LIG    1        2.287   0.049  -1.130  0.00  0.00    +0.020 A 
ATOM     14  C   LIG    1        2.303   1.408  -0.885  0.00  0.00    +0.020 A 
ATOM     15 CL   LIG    1        3.812   2.232  -0.650  0.00  0.00    -0.030 Cl
ENDBRANCH   7   9
ENDBRANCH   2   5
BRANCH   1  17
ATOM     16  C   LIG    1       -0.514   8.519  -1.101  0.00  0.00    +0.060 C 
ATOM     17  C   LIG    1       -1.200   7.795   0.060  0.00  0.00    +0.190 C 
BRANCH  17  18
ATOM     18  O   LIG    1       -2.544   8.264   0.185  0.00  0.00    -0.280 OA
BRANCH  18  19
ATOM     19  C   LIG    1       -2.736   9.400   0.907  0.00  0.00    +0.130 A 
ATOM     20  C   LIG    1       -4.007   9.834   1.153  0.00  0.00    -0.010 A 
ATOM     21  C   LIG    1       -4.208  11.007   1.899  0.00  0.00    -0.010 A 
ATOM     22  C   LIG    1       -5.501  11.485   2.173  0.00  0.00    +0.020 A 
ATOM     23  C   LIG    1       -5.658  12.625   2.899  0.00  0.00    +0.020 A 
ATOM     24  C   LIG    1       -4.554  13.330   3.376  0.00  0.00    -0.010 A 
ATOM     25  C   LIG    1       -3.287  12.897   3.129  0.00  0.00    +0.040 A 
ATOM     26  C   LIG    1       -3.085  11.724   2.384  0.00  0.00    -0.080 A 
ATOM     27  C   LIG    1       -1.790  11.248   2.111  0.00  0.00    +0.070 A 
ATOM     28  C   LIG    1       -1.630  10.105   1.391  0.00  0.00    -0.070 A 
ENDBRANCH  18  19
ENDBRANCH  17  18
ENDBRANCH   1  17
TORSDOF 5
