REMARK  Name = ZINCrD00000hQ5vb.0
REMARK                            x       y       z     vdW  Elec       q    Type
REMARK                         _______ _______ _______ _____ _____    ______ ____
ROOT
ATOM      1  O   LIG    1        3.042   3.924  -0.041  0.00  0.00    -0.520 OA
ATOM      2  C   LIG    1        2.084   4.410   0.529  0.00  0.00    +0.720 C 
ATOM      3  N   LIG    1        2.077   5.723   0.835  0.00  0.00    -0.620 N 
ATOM      4  C   LIG    1        0.984   6.440   1.516  0.00  0.00    +0.240 C 
ATOM      5  C   LIG    1        1.667   7.669   2.171  0.00  0.00    +0.040 C 
ATOM      6  C   LIG    1        2.718   8.049   1.095  0.00  0.00    +0.030 C 
ATOM      7  C   LIG    1        3.156   6.677   0.540  0.00  0.00    +0.230 C 
ATOM      8  N   LIG    1        1.030   3.636   0.855  0.00  0.00    -0.690 N 
ATOM      9  H   LIG    1        0.231   4.038   1.231  0.00  0.00    +0.400 HD
ENDROOT
BRANCH   8  10
ATOM     10  C   LIG    1        1.088   2.251   0.651  0.00  0.00    +0.140 A 
ATOM     11  C   LIG    1        2.295   1.579   0.786  0.00  0.00    +0.060 A 
ATOM     12  C   LIG    1        2.351   0.214   0.585  0.00  0.00    +0.000 A 
ATOM     13  C   LIG    1        1.201  -0.486   0.249  0.00  0.00    +0.110 A 
ATOM     14  C   LIG    1       -0.005   0.185   0.114  0.00  0.00    -0.060 A 
ATOM     15  C   LIG    1       -0.062   1.550   0.314  0.00  0.00    +0.010 A 
BRANCH  13  16
ATOM     16  O   LIG    1        1.257  -1.830   0.052  0.00  0.00    -0.310 OA
BRANCH  16  17
ATOM     17  C   LIG    1        0.065  -2.468  -0.409  0.00  0.00    +0.160 C 
ATOM     18  C   LIG    1       -0.827  -2.853   0.789  0.00  0.00    +0.000 C 
ATOM     19  C   LIG    1       -1.444  -4.214   0.381  0.00  0.00    +0.020 C 
ATOM     20  C   LIG    1       -0.274  -4.915  -0.354  0.00  0.00    +0.020 C 
ATOM     21  C   LIG    1        0.416  -3.778  -1.136  0.00  0.00    +0.040 C 
ENDBRANCH  16  17
ENDBRANCH  13  16
ENDBRANCH   8  10
BRANCH   7  22
ATOM     22  C   LIG    1        3.367   6.771  -0.973  0.00  0.00    +0.150 C 
BRANCH  22  23
ATOM     23  N   LIG    1        3.649   5.434  -1.512  0.00  0.00    -0.500 NA
ATOM     24  C   LIG    1        4.936   4.927  -1.016  0.00  0.00    +0.160 C 
ATOM     25  C   LIG    1        5.162   3.511  -1.553  0.00  0.00    +0.230 C 
ATOM     26  O   LIG    1        5.102   3.534  -2.982  0.00  0.00    -0.390 OA
ATOM     27  C   LIG    1        3.861   4.022  -3.499  0.00  0.00    +0.220 C 
ATOM     28  C   LIG    1        3.623   5.443  -2.982  0.00  0.00    +0.130 C 
ENDBRANCH  22  23
ENDBRANCH   7  22
TORSDOF 5
