REMARK  Name = ZINCqH0000006YWV.0
REMARK                            x       y       z     vdW  Elec       q    Type
REMARK                         _______ _______ _______ _____ _____    ______ ____
ROOT
ATOM      1  C   LIG    1        4.775  -0.725   0.326  0.00  0.00    -0.010 A 
ATOM      2  C   LIG    1        5.773   0.116   0.591  0.00  0.00    -0.020 A 
ATOM      3  S   LIG    1        5.309   1.776   0.271  0.00  0.00    +0.180 S 
ATOM      4  C   LIG    1        3.696   1.303  -0.242  0.00  0.00    +0.090 A 
ATOM      5  N   LIG    1        2.659   2.034  -0.671  0.00  0.00    -0.490 NA
ATOM      6  C   LIG    1        1.524   1.467  -1.010  0.00  0.00    +0.540 A 
ATOM      7  N   LIG    1        1.345   0.160  -0.947  0.00  0.00    -0.550 NA
ATOM      8  C   LIG    1        2.313  -0.645  -0.534  0.00  0.00    +0.400 A 
ATOM      9  C   LIG    1        3.558  -0.084  -0.157  0.00  0.00    -0.140 A 
ENDROOT
BRANCH   1  13
ATOM     10  C   LIG    1        5.109  -4.933   0.846  0.00  0.00    +0.140 A 
ATOM     11  C   LIG    1        6.010  -4.263   0.031  0.00  0.00    -0.030 A 
ATOM     12  C   LIG    1        5.905  -2.898  -0.140  0.00  0.00    +0.060 A 
ATOM     13  C   LIG    1        4.891  -2.192   0.507  0.00  0.00    -0.060 A 
ATOM     14  C   LIG    1        3.991  -2.868   1.329  0.00  0.00    +0.100 A 
ATOM     15  C   LIG    1        4.099  -4.234   1.492  0.00  0.00    -0.070 A 
BRANCH  10  17
ATOM     16  C   LIG    1        4.255  -6.904   1.865  0.00  0.00    +0.240 C 
ATOM     17  O   LIG    1        5.216  -6.278   1.012  0.00  0.00    -0.320 OA
ENDBRANCH  10  17
ENDBRANCH   1  13
BRANCH   8  18
ATOM     18  N   LIG    1        2.112  -2.012  -0.474  0.00  0.00    -0.480 N 
ATOM     19  C   LIG    1        1.137  -2.355   0.570  0.00  0.00    +0.240 C 
BRANCH  18  20
ATOM     20  C   LIG    1        1.694  -2.541  -1.779  0.00  0.00    +0.320 C 
BRANCH  20  21
ATOM     21  C   LIG    1        1.863  -4.038  -1.792  0.00  0.00    +0.210 A 
ATOM     22  N   LIG    1        1.016  -4.904  -1.306  0.00  0.00    -0.480 NA
ATOM     23  C   LIG    1        1.493  -6.143  -1.493  0.00  0.00    +0.140 A 
ATOM     24  C   LIG    1        2.681  -6.042  -2.118  0.00  0.00    +0.120 A 
ATOM     25  N   LIG    1        2.914  -4.707  -2.313  0.00  0.00    -0.440 N 
ATOM     26  C   LIG    1        4.086  -4.115  -2.963  0.00  0.00    +0.320 C 
ENDBRANCH  20  21
ENDBRANCH  18  20
ENDBRANCH   8  18
TORSDOF 5
