REMARK  Name = ZINCrD000000AIfl.0
REMARK                            x       y       z     vdW  Elec       q    Type
REMARK                         _______ _______ _______ _____ _____    ______ ____
ROOT
ATOM      1  O   LIG    1        0.229  -2.690  -0.001  0.00  0.00    -0.560 OA
ATOM      2  C   LIG    1       -0.888  -2.211   0.005  0.00  0.00    +0.750 C 
ATOM      3  N   LIG    1       -1.967  -3.019   0.005  0.00  0.00    -0.650 N 
ATOM      4  C   LIG    1       -3.428  -2.832   0.011  0.00  0.00    +0.280 C 
ATOM      5  C   LIG    1       -3.537  -4.199   0.675  0.00  0.00    -0.120 C 
ATOM      6  C   LIG    1       -4.749  -5.105   0.469  0.00  0.00    +0.050 C 
ATOM      7  C   LIG    1       -4.439  -5.686   1.861  0.00  0.00    +0.010 C 
ATOM      8  C   LIG    1       -3.732  -4.355   2.180  0.00  0.00    +0.050 C 
ATOM      9  C   LIG    1       -2.199  -4.474  -0.006  0.00  0.00    +0.280 C 
ATOM     10  N   LIG    1       -1.049  -0.873   0.010  0.00  0.00    -0.640 N 
ATOM     11  H   LIG    1       -1.940  -0.491   0.015  0.00  0.00    +0.410 HD
ENDROOT
BRANCH   9  12
ATOM     12  C   LIG    1       -2.338  -5.059  -1.413  0.00  0.00    -0.010 C 
ATOM     13  C   LIG    1       -2.419  -6.586  -1.326  0.00  0.00    +0.010 C 
ATOM     14  C   LIG    1       -2.476  -7.167  -2.742  0.00  0.00    +0.210 C 
ATOM     15  O   LIG    1       -1.329  -6.740  -3.479  0.00  0.00    -0.380 OA
ATOM     16  C   LIG    1       -1.229  -5.323  -3.633  0.00  0.00    +0.200 C 
ATOM     17  C   LIG    1       -1.119  -4.668  -2.253  0.00  0.00    +0.010 C 
ENDBRANCH   9  12
BRANCH  10  18
ATOM     18  C   LIG    1        0.068  -0.037   0.009  0.00  0.00    +0.270 A 
ATOM     19  N   LIG    1        0.070   1.270   0.015  0.00  0.00    -0.390 NA
ATOM     20  O   LIG    1        1.195   1.711   0.013  0.00  0.00    +0.100 OA
ATOM     21  C   LIG    1        2.112   0.733   0.006  0.00  0.00    -0.010 A 
ATOM     22  C   LIG    1        1.431  -0.435   0.003  0.00  0.00    -0.030 A 
BRANCH  21  23
ATOM     23  C   LIG    1        3.610   0.903   0.002  0.00  0.00    +0.100 C 
ATOM     24  C   LIG    1        4.040   1.682   1.248  0.00  0.00    +0.010 C 
ATOM     25  C   LIG    1        5.552   1.918   1.196  0.00  0.00    +0.210 C 
ATOM     26  O   LIG    1        5.883   2.620  -0.004  0.00  0.00    -0.380 OA
ATOM     27  C   LIG    1        5.546   1.918  -1.202  0.00  0.00    +0.210 C 
ATOM     28  C   LIG    1        4.034   1.682  -1.247  0.00  0.00    +0.010 C 
ENDBRANCH  21  23
ENDBRANCH  10  18
TORSDOF 3
