REMARK  Name = ZINCkj000005hrdO.1
REMARK                            x       y       z     vdW  Elec       q    Type
REMARK                         _______ _______ _______ _____ _____    ______ ____
ROOT
ATOM      1  C   LIG    1       -2.498   0.945   0.038  0.00  0.00    +0.320 C 
ATOM      2  C   LIG    1       -3.678   1.837  -0.352  0.00  0.00    +0.270 C 
ATOM      3  N   LIG    1       -3.644   3.049   0.479  0.00  0.00    -0.380 N 
ATOM      4  C   LIG    1       -2.536   3.901   0.036  0.00  0.00    +0.330 C 
ATOM      5  C   LIG    1       -1.244   3.128   0.027  0.00  0.00    -0.130 A 
ATOM      6  C   LIG    1       -0.050   3.833   0.020  0.00  0.00    +0.030 A 
ATOM      7  C   LIG    1        1.157   3.161   0.007  0.00  0.00    +0.040 A 
ATOM      8  C   LIG    1        1.176   1.779   0.000  0.00  0.00    +0.030 A 
ATOM      9  C   LIG    1       -0.013   1.076   0.008  0.00  0.00    +0.060 A 
ATOM     10  C   LIG    1       -4.911   3.779   0.341  0.00  0.00    +0.330 C 
ATOM     11  H   LIG    1       -3.506   2.792   1.446  0.00  0.00    +0.430 HD
ATOM     12  C   LIG    1       -1.224   1.749   0.017  0.00  0.00    -0.110 A 
ENDROOT
BRANCH   1  13
ATOM     13  N   LIG    1       -2.387  -0.161  -0.917  0.00  0.00    -0.690 N 
ATOM     14  H   LIG    1       -2.736  -0.061  -1.817  0.00  0.00    +0.420 HD
BRANCH  13  20
ATOM     15  C   LIG    1       -0.926  -4.742  -1.979  0.00  0.00    +0.340 C 
ATOM     16  N   LIG    1       -1.066  -3.603  -1.069  0.00  0.00    -0.480 N 
ATOM     17  C   LIG    1       -0.595  -3.677   0.209  0.00  0.00    +0.210 A 
ATOM     18  C   LIG    1       -0.720  -2.633   1.055  0.00  0.00    +0.180 A 
ATOM     19  N   LIG    1       -1.298  -1.492   0.681  0.00  0.00    -0.480 NA
ATOM     20  C   LIG    1       -1.780  -1.350  -0.535  0.00  0.00    +0.330 A 
ATOM     21  C   LIG    1       -1.663  -2.463  -1.484  0.00  0.00    +0.480 A 
ATOM     22  O   LIG    1       -2.095  -2.363  -2.620  0.00  0.00    -0.520 OA
ENDBRANCH  13  20
ENDBRANCH   1  13
TORSDOF 2
