REMARK  Name = ZINCkj000005hrdO.2
REMARK                            x       y       z     vdW  Elec       q    Type
REMARK                         _______ _______ _______ _____ _____    ______ ____
ROOT
ATOM      1  C   LIG    1       -0.736   1.583   1.261  0.00  0.00    +0.330 C 
ATOM      2  C   LIG    1       -0.013   1.086   0.008  0.00  0.00    +0.290 C 
ATOM      3  N   LIG    1       -0.731   1.577  -1.178  0.00  0.00    -0.390 N 
ATOM      4  C   LIG    1       -1.988   0.835  -1.316  0.00  0.00    +0.330 C 
ATOM      5  C   LIG    1       -2.787   0.906  -0.042  0.00  0.00    -0.130 A 
ATOM      6  C   LIG    1       -4.142   0.614  -0.092  0.00  0.00    +0.030 A 
ATOM      7  C   LIG    1       -4.910   0.664   1.054  0.00  0.00    +0.040 A 
ATOM      8  C   LIG    1       -4.326   1.007   2.259  0.00  0.00    +0.030 A 
ATOM      9  C   LIG    1       -2.978   1.299   2.311  0.00  0.00    +0.070 A 
ATOM     10  C   LIG    1        0.096   1.369  -2.374  0.00  0.00    +0.340 C 
ATOM     11  H   LIG    1       -0.928   2.560  -1.070  0.00  0.00    +0.420 HD
ATOM     12  C   LIG    1       -2.207   1.250   1.161  0.00  0.00    -0.110 A 
ENDROOT
BRANCH   1  13
ATOM     13  N   LIG    1       -0.571   3.034   1.375  0.00  0.00    -0.710 N 
ATOM     14  H   LIG    1       -0.401   3.567   0.582  0.00  0.00    +0.410 HD
BRANCH  13  20
ATOM     15  C   LIG    1       -0.433   7.099   4.150  0.00  0.00    +0.340 C 
ATOM     16  N   LIG    1       -0.589   5.654   3.973  0.00  0.00    -0.480 N 
ATOM     17  C   LIG    1       -0.831   4.849   5.047  0.00  0.00    +0.210 A 
ATOM     18  C   LIG    1       -0.976   3.515   4.894  0.00  0.00    +0.180 A 
ATOM     19  N   LIG    1       -0.890   2.933   3.699  0.00  0.00    -0.480 NA
ATOM     20  C   LIG    1       -0.659   3.647   2.618  0.00  0.00    +0.330 A 
ATOM     21  C   LIG    1       -0.490   5.099   2.744  0.00  0.00    +0.480 A 
ATOM     22  O   LIG    1       -0.270   5.790   1.764  0.00  0.00    -0.530 OA
ENDBRANCH  13  20
ENDBRANCH   1  13
TORSDOF 2
