REMARK  Name = ZINCrD00000F5Lpr.0
REMARK                            x       y       z     vdW  Elec       q    Type
REMARK                         _______ _______ _______ _____ _____    ______ ____
ROOT
ATOM      1  C   LIG    1       -2.162   3.288   5.063  0.00  0.00    +0.330 C 
ENDROOT
BRANCH   1   6
ATOM      2  C   LIG    1       -0.836   0.440   0.213  0.00  0.00    +0.090 C 
ATOM      3  C   LIG    1       -1.182   1.182   1.478  0.00  0.00    -0.070 A 
ATOM      4  C   LIG    1       -0.198   1.456   2.410  0.00  0.00    +0.010 A 
ATOM      5  C   LIG    1       -0.515   2.137   3.570  0.00  0.00    +0.060 A 
ATOM      6  C   LIG    1       -1.816   2.545   3.798  0.00  0.00    -0.090 A 
ATOM      7  C   LIG    1       -2.800   2.273   2.866  0.00  0.00    -0.070 A 
ATOM      8  C   LIG    1       -4.218   2.718   3.114  0.00  0.00    +0.080 C 
ATOM      9  C   LIG    1       -2.482   1.595   1.704  0.00  0.00    -0.090 A 
ATOM     10  C   LIG    1       -3.553   1.302   0.685  0.00  0.00    +0.090 C 
ENDBRANCH   1   6
BRANCH   1  11
ATOM     11  C   LIG    1       -2.091   4.772   4.809  0.00  0.00    +0.160 A 
ATOM     12  N   LIG    1       -1.013   5.472   4.552  0.00  0.00    -0.290 NA
ATOM     13  N   LIG    1       -1.365   6.701   4.395  0.00  0.00    -0.070 NA
ATOM     14  N   LIG    1       -2.639   6.804   4.545  0.00  0.00    -0.090 NA
ATOM     15  N   LIG    1       -3.124   5.635   4.796  0.00  0.00    -0.270 N 
BRANCH  15  16
ATOM     16  C   LIG    1       -4.534   5.309   5.028  0.00  0.00    +0.190 C 
ATOM     17  C   LIG    1       -5.577   6.349   4.613  0.00  0.00    +0.090 C 
ATOM     18  C   LIG    1       -5.279   6.113   6.095  0.00  0.00    +0.070 C 
ENDBRANCH  15  16
ENDBRANCH   1  11
BRANCH   1  19
ATOM     19  N   LIG    1       -1.208   2.926   6.120  0.00  0.00    -0.620 NA
ATOM     20  H   LIG    1       -0.366   3.479   6.052  0.00  0.00    +0.360 HD
BRANCH  19  21
ATOM     21  C   LIG    1       -1.819   3.059   7.449  0.00  0.00    +0.050 C 
ATOM     22  C   LIG    1       -2.428   4.405   7.926  0.00  0.00    -0.050 C 
ATOM     23  C   LIG    1       -3.080   3.470   8.974  0.00  0.00    +0.080 C 
ATOM     24  O   LIG    1       -1.949   2.965   9.747  0.00  0.00    -0.350 OA
ATOM     25  C   LIG    1       -4.306   3.947   9.754  0.00  0.00    +0.110 C 
ATOM     26  C   LIG    1       -0.985   2.637   8.707  0.00  0.00    +0.190 C 
ATOM     27  C   LIG    1       -0.665   1.141   8.691  0.00  0.00    +0.050 C 
ATOM     28  C   LIG    1       -3.269   2.544   7.708  0.00  0.00    +0.040 C 
ENDBRANCH  19  21
ENDBRANCH   1  19
TORSDOF 5
