REMARK  Name = ZINCqH000003917E.1
REMARK                            x       y       z     vdW  Elec       q    Type
REMARK                         _______ _______ _______ _____ _____    ______ ____
ROOT
ATOM      1  C   LIG    1        2.306  -0.166   0.505  0.00  0.00    +0.220 A 
ATOM      2  C   LIG    1        2.343   1.230   0.499  0.00  0.00    -0.070 A 
ATOM      3  C   LIG    1        1.145   1.918   0.424  0.00  0.00    +0.330 A 
ATOM      4  N   LIG    1        0.012   1.236   0.361  0.00  0.00    -0.510 NA
ATOM      5  C   LIG    1        0.011  -0.083   0.369  0.00  0.00    +0.340 A 
ATOM      6  N   LIG    1        1.126  -0.779   0.439  0.00  0.00    -0.510 NA
ENDROOT
BRANCH   1  12
ATOM      7  F   LIG    1        4.660  -4.418   0.462  0.00  0.00    -0.140 F 
ATOM      8  C   LIG    1        4.695  -3.071   0.558  0.00  0.00    +0.090 A 
ATOM      9  C   LIG    1        5.906  -2.421   0.730  0.00  0.00    +0.000 A 
ATOM     10  C   LIG    1        5.948  -1.042   0.829  0.00  0.00    +0.050 A 
ATOM     11  C   LIG    1        4.783  -0.305   0.756  0.00  0.00    +0.040 A 
ATOM     12  C   LIG    1        3.561  -0.953   0.583  0.00  0.00    -0.030 A 
ATOM     13  C   LIG    1        3.521  -2.343   0.489  0.00  0.00    +0.040 A 
ENDBRANCH   1  12
BRANCH   5  14
ATOM     14  C   LIG    1       -1.305  -0.814   0.295  0.00  0.00    +0.070 C 
ATOM     15  C   LIG    1       -2.031  -0.432  -0.998  0.00  0.00    +0.040 C 
ATOM     16  C   LIG    1       -3.392  -1.131  -1.038  0.00  0.00    +0.180 C 
ATOM     17  N   LIG    1       -4.187  -0.724   0.128  0.00  0.00    -0.530 NA
ATOM     18  C   LIG    1       -3.532  -1.122   1.381  0.00  0.00    +0.180 C 
ATOM     19  C   LIG    1       -2.175  -0.424   1.493  0.00  0.00    +0.040 C 
BRANCH  17  20
ATOM     20  C   LIG    1       -5.550  -1.266   0.051  0.00  0.00    +0.250 C 
BRANCH  20  21
ATOM     21  C   LIG    1       -5.488  -2.758  -0.283  0.00  0.00    +0.140 C 
BRANCH  21  22
ATOM     22  O   LIG    1       -4.889  -3.465   0.804  0.00  0.00    -0.370 OA
BRANCH  22  23
ATOM     23  C   LIG    1       -4.783  -4.874   0.593  0.00  0.00    +0.170 C 
BRANCH  23  24
ATOM     24  C   LIG    1       -4.131  -5.526   1.815  0.00  0.00    +0.390 C 
ATOM     25  F   LIG    1       -4.916  -5.282   2.947  0.00  0.00    -0.200 F 
ATOM     26  F   LIG    1       -2.855  -4.985   2.006  0.00  0.00    -0.200 F 
ENDBRANCH  23  24
ENDBRANCH  22  23
ENDBRANCH  21  22
ENDBRANCH  20  21
ENDBRANCH  17  20
ENDBRANCH   5  14
TORSDOF 7
