REMARK  Name = ZINCnE000005sv71.0
REMARK                            x       y       z     vdW  Elec       q    Type
REMARK                         _______ _______ _______ _____ _____    ______ ____
ROOT
ATOM      1  N   LIG    1       -3.062   0.940  -1.339  0.00  0.00    -0.740 N 
ATOM      2  H   LIG    1       -2.590   1.377  -2.065  0.00  0.00    +0.390 HD
ATOM      3  C   LIG    1       -4.223   0.298  -1.580  0.00  0.00    +0.570 C 
ATOM      4  O   LIG    1       -4.815  -0.250  -0.670  0.00  0.00    -0.520 OA
ENDROOT
BRANCH   3   5
ATOM      5  C   LIG    1       -4.775   0.262  -2.948  0.00  0.00    -0.290 A 
ATOM      6  C   LIG    1       -4.099   0.890  -3.996  0.00  0.00    +0.080 A 
ATOM      7  C   LIG    1       -4.619   0.852  -5.271  0.00  0.00    -0.240 A 
ATOM      8  C   LIG    1       -5.812   0.193  -5.520  0.00  0.00    +0.080 A 
ATOM      9  C   LIG    1       -6.492  -0.433  -4.493  0.00  0.00    -0.220 A 
ATOM     10 BR   LIG    1       -8.119  -1.329  -4.846  0.00  0.00    -0.090 Br
ATOM     11  C   LIG    1       -3.888   1.530  -6.401  0.00  0.00    +0.070 C 
ATOM     12  C   LIG    1       -5.979  -0.409  -3.204  0.00  0.00    +0.320 A 
ATOM     13  O   LIG    1       -6.643  -1.028  -2.195  0.00  0.00    -0.640 OA
ENDBRANCH   3   5
BRANCH   1  14
ATOM     14  C   LIG    1       -2.514   0.977   0.019  0.00  0.00    +0.320 C 
BRANCH  14  19
ATOM     15  C   LIG    1       -0.044   3.845   0.023  0.00  0.00    +0.110 A 
ATOM     16  C   LIG    1        1.162   3.164   0.007  0.00  0.00    -0.070 A 
ATOM     17  C   LIG    1        1.176   1.782   0.000  0.00  0.00    +0.040 A 
ATOM     18  C   LIG    1       -0.013   1.076   0.008  0.00  0.00    +0.000 A 
ATOM     19  C   LIG    1       -1.220   1.749   0.017  0.00  0.00    -0.080 A 
ATOM     20  C   LIG    1       -1.241   3.134   0.031  0.00  0.00    +0.080 A 
BRANCH  15  22
ATOM     21  C   LIG    1        1.207   5.868   0.022  0.00  0.00    +0.230 C 
ATOM     22  O   LIG    1       -0.059   5.205   0.030  0.00  0.00    -0.310 OA
ENDBRANCH  15  22
BRANCH  20  23
ATOM     23  O   LIG    1       -2.428   3.798   0.046  0.00  0.00    -0.320 OA
ATOM     24  C   LIG    1       -3.006   4.121  -1.220  0.00  0.00    +0.210 C 
ENDBRANCH  20  23
ENDBRANCH  14  19
ENDBRANCH   1  14
TORSDOF 5
