REMARK  Name = ZINCtV00000L6kYi.0
REMARK                            x       y       z     vdW  Elec       q    Type
REMARK                         _______ _______ _______ _____ _____    ______ ____
ROOT
ATOM      1  C   LIG    1       -1.355  -3.535   2.339  0.00  0.00    +0.140 A 
ATOM      2  N   LIG    1       -0.286  -3.768   1.617  0.00  0.00    -0.290 NA
ATOM      3  N   LIG    1       -0.127  -2.811   0.771  0.00  0.00    -0.240 NA
ATOM      4  C   LIG    1       -1.080  -1.938   0.918  0.00  0.00    +0.160 A 
ATOM      5  O   LIG    1       -1.877  -2.369   1.915  0.00  0.00    -0.200 OA
ENDROOT
BRANCH   4   6
ATOM      6  C   LIG    1       -1.256  -0.671   0.121  0.00  0.00    +0.300 C 
ATOM      7  C   LIG    1       -1.786  -1.014  -1.272  0.00  0.00    +0.080 C 
BRANCH   6   8
ATOM      8  O   LIG    1        0.002  -0.004   0.002  0.00  0.00    -0.290 OA
BRANCH   8   9
ATOM      9  C   LIG    1       -0.028   1.339  -0.204  0.00  0.00    +0.120 A 
ATOM     10  C   LIG    1        1.153   2.067  -0.212  0.00  0.00    +0.040 A 
ATOM     11  C   LIG    1        1.121   3.432  -0.427  0.00  0.00    +0.040 A 
ATOM     12  C   LIG    1       -0.090   4.074  -0.623  0.00  0.00    +0.070 A 
ATOM     13  C   LIG    1       -1.270   3.350  -0.610  0.00  0.00    +0.030 A 
ATOM     14  F   LIG    1       -0.120   5.409  -0.828  0.00  0.00    -0.140 F 
ATOM     15  C   LIG    1       -1.240   1.984  -0.401  0.00  0.00    -0.040 A 
ENDBRANCH   8   9
ENDBRANCH   6   8
ENDBRANCH   4   6
BRANCH   1  16
ATOM     16  S   LIG    1       -1.988  -4.556   3.628  0.00  0.00    +0.090 S 
BRANCH  16  17
ATOM     17  C   LIG    1       -0.766  -5.891   3.601  0.00  0.00    +0.200 C 
BRANCH  17  20
ATOM     18  C   LIG    1       -2.130  -8.760   5.379  0.00  0.00    +0.130 A 
ATOM     19  N   LIG    1       -1.895  -7.937   4.398  0.00  0.00    -0.450 NA
ATOM     20  C   LIG    1       -1.114  -6.912   4.652  0.00  0.00    +0.070 A 
ATOM     21  C   LIG    1       -0.643  -6.835   5.902  0.00  0.00    -0.040 A 
ATOM     22  S   LIG    1       -1.277  -8.201   6.816  0.00  0.00    +0.120 S 
BRANCH  18  27
ATOM     23  C   LIG    1       -5.431 -13.465   5.074  0.00  0.00    +0.100 C 
ATOM     24  C   LIG    1       -4.566 -12.233   5.154  0.00  0.00    -0.060 A 
ATOM     25  C   LIG    1       -3.947 -11.902   6.346  0.00  0.00    +0.010 A 
ATOM     26  C   LIG    1       -3.155 -10.775   6.426  0.00  0.00    +0.040 A 
ATOM     27  C   LIG    1       -2.978  -9.969   5.301  0.00  0.00    -0.040 A 
ATOM     28  C   LIG    1       -3.609 -10.306   4.103  0.00  0.00    +0.080 A 
ATOM     29  C   LIG    1       -4.395 -11.438   4.035  0.00  0.00    +0.010 A 
ENDBRANCH  18  27
ENDBRANCH  17  20
ENDBRANCH  16  17
ENDBRANCH   1  16
TORSDOF 7
