REMARK  Name = ZINCnE000001UgOq.0
REMARK                            x       y       z     vdW  Elec       q    Type
REMARK                         _______ _______ _______ _____ _____    ______ ____
ROOT
ATOM      1  S   LIG    1        2.426  -0.548  -0.024  0.00  0.00    +2.610 S 
ATOM      2  O   LIG    1        1.876  -0.951  -1.271  0.00  0.00    -1.010 OA
ATOM      3  O   LIG    1        1.900  -0.964   1.229  0.00  0.00    -1.010 OA
ENDROOT
BRANCH   1   8
ATOM      4  C   LIG    1        6.118  -1.632   1.132  0.00  0.00    -0.070 A 
ATOM      5  C   LIG    1        6.770  -1.821  -0.072  0.00  0.00    +0.140 A 
ATOM      6  C   LIG    1        6.095  -1.621  -1.262  0.00  0.00    +0.010 A 
ATOM      7  C   LIG    1        4.767  -1.236  -1.247  0.00  0.00    +0.190 A 
ATOM      8  C   LIG    1        4.117  -1.043  -0.043  0.00  0.00    -0.620 A 
ATOM      9  C   LIG    1        4.792  -1.244   1.147  0.00  0.00    +0.210 A 
BRANCH   4  11
ATOM     10  O   LIG    1        6.267  -1.681   3.467  0.00  0.00    -0.160 OA
ATOM     11  N   LIG    1        6.841  -1.847   2.406  0.00  0.00    +0.030 N 
ATOM     12  O   LIG    1        8.010  -2.189   2.393  0.00  0.00    -0.170 OA
ENDBRANCH   4  11
ENDBRANCH   1   8
BRANCH   1  13
ATOM     13  N   LIG    1        2.401   1.108  -0.015  0.00  0.00    -1.080 NA
BRANCH  13  14
ATOM     14  C   LIG    1        1.180   1.787   0.000  0.00  0.00    +0.320 A 
ATOM     15  C   LIG    1       -0.013   1.076   0.008  0.00  0.00    -0.150 A 
ATOM     16  C   LIG    1       -1.218   1.751   0.017  0.00  0.00    +0.070 A 
ATOM     17  C   LIG    1       -1.237   3.133   0.030  0.00  0.00    -0.120 A 
ATOM     18  C   LIG    1       -0.051   3.845   0.022  0.00  0.00    +0.090 A 
ATOM     19  C   LIG    1        1.157   3.176   0.008  0.00  0.00    -0.260 A 
BRANCH  19  20
ATOM     20  C   LIG    1        2.449   3.953  -0.001  0.00  0.00    +0.530 C 
ATOM     21  F   LIG    1        3.177   3.633  -1.152  0.00  0.00    -0.180 F 
ATOM     22  F   LIG    1        3.199   3.622   1.132  0.00  0.00    -0.180 F 
ATOM     23  F   LIG    1        2.169   5.323   0.009  0.00  0.00    -0.200 F 
ENDBRANCH  19  20
ENDBRANCH  13  14
ENDBRANCH   1  13
TORSDOF 5
