REMARK  Name = ZINCfA000000bmef.0
REMARK                            x       y       z     vdW  Elec       q    Type
REMARK                         _______ _______ _______ _____ _____    ______ ____
ROOT
ATOM      1  N   LIG    1        2.398   5.189   0.007  0.00  0.00    -0.510 N 
ATOM      2  H   LIG    1        1.975   5.482   0.875  0.00  0.00    +0.420 HD
ATOM      3  H   LIG    1        1.816   5.478  -0.765  0.00  0.00    +0.430 HD
ENDROOT
BRANCH   1   5
ATOM      4  C   LIG    1        3.311   3.279   1.237  0.00  0.00    +0.100 C 
ATOM      5  C   LIG    1        2.534   3.726  -0.002  0.00  0.00    +0.180 C 
BRANCH   5   6
ATOM      6  C   LIG    1        1.145   3.085   0.008  0.00  0.00    -0.080 C 
ATOM      7  C   LIG    1        0.392   3.519   1.266  0.00  0.00    +0.050 C 
ATOM      8  C   LIG    1        0.368   3.533  -1.232  0.00  0.00    +0.060 C 
BRANCH   6   9
ATOM      9  C   LIG    1        1.286   1.562  -0.002  0.00  0.00    +0.210 C 
BRANCH   9  10
ATOM     10  O   LIG    1       -0.011   0.963   0.007  0.00  0.00    -0.560 OA
ATOM     11  H   LIG    1        0.002  -0.004   0.002  0.00  0.00    +0.400 HD
ENDBRANCH   9  10
ENDBRANCH   6   9
ENDBRANCH   5   6
ENDBRANCH   1   5
BRANCH   1  12
ATOM     12  C   LIG    1        3.725   5.805  -0.123  0.00  0.00    +0.350 C 
BRANCH  12  13
ATOM     13  C   LIG    1        3.586   7.306  -0.114  0.00  0.00    -0.160 A 
ATOM     14  C   LIG    1        3.606   8.035  -1.230  0.00  0.00    +0.010 A 
ATOM     15  S   LIG    1        3.417   9.736  -0.827  0.00  0.00    +0.240 S 
ATOM     16  C   LIG    1        3.319   9.351   0.886  0.00  0.00    +0.020 A 
ATOM     17  C   LIG    1        3.422   8.031   1.054  0.00  0.00    -0.120 A 
ATOM     18 BR   LIG    1        3.355   7.214   2.758  0.00  0.00    -0.010 Br
ENDBRANCH  12  13
ENDBRANCH   1  12
TORSDOF 6
