REMARK  Name = ZINCrg000000mWwD.0
REMARK                            x       y       z     vdW  Elec       q    Type
REMARK                         _______ _______ _______ _____ _____    ______ ____
ROOT
ATOM      1  C   LIG    1       -5.077   1.178  -0.644  0.00  0.00    +0.220 C 
ENDROOT
BRANCH   1   2
ATOM      2  N   LIG    1       -6.173   2.083  -0.275  0.00  0.00    -0.520 NA
ATOM      3  C   LIG    1       -5.996   2.596   1.091  0.00  0.00    +0.190 C 
ATOM      4  C   LIG    1       -7.112   3.594   1.407  0.00  0.00    +0.190 C 
ATOM      5  N   LIG    1       -8.415   2.929   1.263  0.00  0.00    -0.520 NA
ATOM      6  C   LIG    1       -8.593   2.416  -0.103  0.00  0.00    +0.190 C 
ATOM      7  C   LIG    1       -7.476   1.419  -0.420  0.00  0.00    +0.190 C 
BRANCH   5   8
ATOM      8  C   LIG    1       -9.511   3.834   1.632  0.00  0.00    +0.210 C 
BRANCH   8   9
ATOM      9  C   LIG    1      -10.799   3.055   1.717  0.00  0.00    +0.530 C 
ATOM     10  N   LIG    1      -11.964   3.700   1.924  0.00  0.00    -0.620 N 
ATOM     11  C   LIG    1      -12.122   5.152   2.090  0.00  0.00    +0.240 C 
ATOM     12  C   LIG    1      -13.623   5.426   2.325  0.00  0.00    +0.030 C 
ATOM     13  C   LIG    1      -14.144   4.062   2.850  0.00  0.00    +0.040 C 
ATOM     14  C   LIG    1      -13.290   3.065   2.028  0.00  0.00    +0.260 C 
ATOM     15  O   LIG    1      -10.786   1.848   1.600  0.00  0.00    -0.520 OA
ENDBRANCH   8   9
ENDBRANCH   5   8
ENDBRANCH   1   2
BRANCH   1  18
ATOM     16  N   LIG    1       -2.641   1.328  -1.046  0.00  0.00    -0.680 N 
ATOM     17  H   LIG    1       -2.655   0.393  -1.304  0.00  0.00    +0.410 HD
ATOM     18  C   LIG    1       -3.788   1.956  -0.722  0.00  0.00    +0.510 C 
ATOM     19  O   LIG    1       -3.784   3.147  -0.492  0.00  0.00    -0.490 OA
BRANCH  16  23
ATOM     20  C   LIG    1        0.968   3.396  -0.940  0.00  0.00    -0.190 A 
ATOM     21  C   LIG    1       -0.046   3.705  -0.025  0.00  0.00    +0.100 A 
ATOM     22  C   LIG    1       -1.235   3.024  -0.067  0.00  0.00    +0.000 A 
ATOM     23  C   LIG    1       -1.433   2.022  -1.012  0.00  0.00    +0.180 A 
ATOM     24  C   LIG    1       -0.430   1.714  -1.927  0.00  0.00    -0.030 A 
ATOM     25  C   LIG    1        0.762   2.390  -1.893  0.00  0.00    +0.090 A 
BRANCH  20  27
ATOM     26  C   LIG    1        3.333   3.788  -1.885  0.00  0.00    +0.080 C 
ATOM     27  C   LIG    1        2.243   4.123  -0.900  0.00  0.00    +0.400 C 
ATOM     28  O   LIG    1        2.419   4.994  -0.074  0.00  0.00    -0.460 OA
ENDBRANCH  20  27
ENDBRANCH  16  23
ENDBRANCH   1  18
TORSDOF 6
