REMARK  Name = ZINCtV00000vxB2c.0
REMARK                            x       y       z     vdW  Elec       q    Type
REMARK                         _______ _______ _______ _____ _____    ______ ____
ROOT
ATOM      1  N   LIG    1       -1.086   3.552   0.147  0.00  0.00    -0.740 N 
ATOM      2  H   LIG    1       -0.178   3.892   0.136  0.00  0.00    +0.390 HD
ATOM      3  C   LIG    1       -2.122   4.404   0.279  0.00  0.00    +0.710 C 
ATOM      4  N   LIG    1       -1.896   5.727   0.396  0.00  0.00    -0.740 N 
ATOM      5  H   LIG    1       -0.988   6.067   0.385  0.00  0.00    +0.390 HD
ATOM      6  O   LIG    1       -3.261   3.978   0.293  0.00  0.00    -0.580 OA
ENDROOT
BRANCH   4   7
ATOM      7  C   LIG    1       -3.023   6.653   0.540  0.00  0.00    +0.270 C 
ATOM      8  C   LIG    1       -3.556   7.057  -0.850  0.00  0.00    +0.020 C 
ATOM      9  C   LIG    1       -2.843   8.398  -1.155  0.00  0.00    +0.010 C 
ATOM     10  C   LIG    1       -2.821   9.095   0.228  0.00  0.00    +0.040 C 
ATOM     11  C   LIG    1       -2.555   7.949   1.225  0.00  0.00    +0.010 C 
BRANCH  11  12
ATOM     12  C   LIG    1       -3.340   8.175   2.492  0.00  0.00    -0.020 A 
ATOM     13  C   LIG    1       -4.714   8.318   2.438  0.00  0.00    +0.020 A 
ATOM     14  C   LIG    1       -5.434   8.521   3.601  0.00  0.00    +0.050 A 
ATOM     15  C   LIG    1       -4.779   8.591   4.816  0.00  0.00    +0.020 A 
ATOM     16  C   LIG    1       -3.404   8.453   4.869  0.00  0.00    +0.070 A 
ATOM     17  C   LIG    1       -2.685   8.245   3.708  0.00  0.00    -0.180 A 
BRANCH  17  18
ATOM     18  C   LIG    1       -1.187   8.096   3.766  0.00  0.00    +0.510 C 
ATOM     19  F   LIG    1       -0.587   9.102   3.001  0.00  0.00    -0.180 F 
ATOM     20  F   LIG    1       -0.823   6.844   3.258  0.00  0.00    -0.170 F 
ATOM     21  F   LIG    1       -0.758   8.202   5.093  0.00  0.00    -0.180 F 
ENDBRANCH  17  18
ENDBRANCH  11  12
ENDBRANCH   4   7
BRANCH   1  23
ATOM     22  C   LIG    1       -2.164   1.847  -1.236  0.00  0.00    +0.060 C 
ATOM     23  C   LIG    1       -1.332   2.114   0.020  0.00  0.00    +0.240 C 
ATOM     24  C   LIG    1       -2.092   1.615   1.250  0.00  0.00    +0.050 C 
BRANCH  23  25
ATOM     25  C   LIG    1       -0.016   1.387  -0.086  0.00  0.00    -0.080 A 
ATOM     26  C   LIG    1        1.131   1.956   0.433  0.00  0.00    +0.020 A 
ATOM     27  C   LIG    1        2.340   1.292   0.332  0.00  0.00    +0.040 A 
ATOM     28  C   LIG    1        2.400   0.058  -0.290  0.00  0.00    -0.040 A 
ATOM     29  C   LIG    1        1.251  -0.511  -0.810  0.00  0.00    +0.040 A 
ATOM     30 CL   LIG    1        3.917  -0.776  -0.420  0.00  0.00    -0.070 Cl
ATOM     31  C   LIG    1        0.044   0.153  -0.707  0.00  0.00    +0.040 A 
ENDBRANCH  23  25
ENDBRANCH   1  23
TORSDOF 5
