REMARK  Name = ZINCqH0000034odi.0
REMARK                            x       y       z     vdW  Elec       q    Type
REMARK                         _______ _______ _______ _____ _____    ______ ____
ROOT
ATOM      1  N   LIG    1       -0.005  -1.444   4.657  0.00  0.00    -0.670 N 
ATOM      2  H   LIG    1       -0.949  -1.232   4.713  0.00  0.00    +0.400 HD
ATOM      3  C   LIG    1        0.629  -1.986   5.716  0.00  0.00    +0.740 C 
ATOM      4  N   LIG    1       -0.068  -2.319   6.820  0.00  0.00    -0.660 N 
ATOM      5  C   LIG    1       -1.478  -2.245   7.243  0.00  0.00    +0.280 C 
ATOM      6  C   LIG    1       -1.185  -3.406   8.182  0.00  0.00    -0.090 C 
ATOM      7  C   LIG    1       -1.885  -3.393   9.544  0.00  0.00    +0.090 C 
ATOM      8  C   LIG    1       -2.929  -4.486   9.438  0.00  0.00    -0.040 C 
ATOM      9  C   LIG    1       -2.695  -5.263   8.412  0.00  0.00    -0.030 C 
ATOM     10  C   LIG    1       -1.457  -4.819   7.662  0.00  0.00    +0.090 C 
ATOM     11  C   LIG    1        0.249  -2.910   8.133  0.00  0.00    +0.310 C 
ATOM     12  O   LIG    1        1.830  -2.173   5.676  0.00  0.00    -0.550 OA
ENDROOT
BRANCH   1  17
ATOM     13  N   LIG    1        2.485  -0.080   2.335  0.00  0.00    -0.500 N 
ATOM     14  C   LIG    1        2.103  -0.665   1.168  0.00  0.00    +0.290 A 
ATOM     15  C   LIG    1        1.047  -1.509   1.130  0.00  0.00    -0.070 A 
ATOM     16  C   LIG    1        0.323  -1.781   2.299  0.00  0.00    +0.110 A 
ATOM     17  C   LIG    1        0.702  -1.189   3.473  0.00  0.00    +0.040 A 
ATOM     18  C   LIG    1        1.813  -0.318   3.477  0.00  0.00    +0.520 A 
ATOM     19  O   LIG    1        2.164   0.218   4.516  0.00  0.00    -0.520 OA
BRANCH  13  21
ATOM     20  C   LIG    1        4.910   0.026   2.632  0.00  0.00    +0.040 C 
ATOM     21  C   LIG    1        3.636   0.825   2.348  0.00  0.00    +0.280 C 
ENDBRANCH  13  21
ENDBRANCH   1  17
BRANCH  11  22
ATOM     22  C   LIG    1        1.268  -4.018   8.064  0.00  0.00    -0.090 A 
ATOM     23  C   LIG    1        1.491  -4.678   6.870  0.00  0.00    +0.040 A 
ATOM     24  C   LIG    1        2.430  -5.691   6.806  0.00  0.00    +0.000 A 
ATOM     25  C   LIG    1        3.137  -6.051   7.938  0.00  0.00    +0.000 A 
ATOM     26  C   LIG    1        2.910  -5.394   9.133  0.00  0.00    +0.000 A 
ATOM     27  C   LIG    1        1.976  -4.377   9.196  0.00  0.00    +0.010 A 
ENDBRANCH  11  22
TORSDOF 3
