REMARK  Name = ZINCtV00000L6l6b.0
REMARK                            x       y       z     vdW  Elec       q    Type
REMARK                         _______ _______ _______ _____ _____    ______ ____
ROOT
ATOM      1  C   LIG    1       -0.872   1.672  -3.608  0.00  0.00    -0.070 A 
ATOM      2  C   LIG    1       -2.069   2.369  -3.573  0.00  0.00    +0.070 A 
ATOM      3  C   LIG    1       -2.664   2.782  -4.779  0.00  0.00    +0.230 A 
ATOM      4  N   LIG    1       -2.121   2.528  -5.953  0.00  0.00    -0.440 NA
ATOM      5  C   LIG    1       -0.971   1.863  -6.079  0.00  0.00    +0.130 A 
ATOM      6  C   LIG    1       -0.415   1.608  -7.345  0.00  0.00    +0.050 A 
ATOM      7  C   LIG    1        0.768   0.941  -7.441  0.00  0.00    +0.040 A 
ATOM      8  C   LIG    1        1.434   0.490  -6.304  0.00  0.00    +0.030 A 
ATOM      9  C   LIG    1        0.922   0.716  -5.060  0.00  0.00    +0.050 A 
ATOM     10  C   LIG    1       -0.286   1.407  -4.924  0.00  0.00    -0.060 A 
ENDROOT
BRANCH   3  11
ATOM     11  C   LIG    1       -3.938   3.524  -4.728  0.00  0.00    -0.170 A 
ATOM     12  C   LIG    1       -4.616   3.984  -5.801  0.00  0.00    +0.070 A 
ATOM     13  C   LIG    1       -5.787   4.645  -5.502  0.00  0.00    +0.010 A 
ATOM     14  C   LIG    1       -6.068   4.740  -4.198  0.00  0.00    -0.030 A 
ATOM     15  S   LIG    1       -4.806   3.952  -3.259  0.00  0.00    +0.140 S 
ENDBRANCH   3  11
BRANCH   1  16
ATOM     16  C   LIG    1       -0.210   1.218  -2.368  0.00  0.00    +0.520 C 
ATOM     17  O   LIG    1        0.783   0.521  -2.429  0.00  0.00    -0.490 OA
BRANCH  16  18
ATOM     18  O   LIG    1       -0.707   1.578  -1.168  0.00  0.00    -0.330 OA
BRANCH  18  19
ATOM     19  C   LIG    1       -0.005   1.096   0.008  0.00  0.00    +0.240 C 
BRANCH  19  21
ATOM     20  O   LIG    1       -1.691   2.290   1.150  0.00  0.00    -0.400 OA
ATOM     21  C   LIG    1       -0.701   1.596   1.248  0.00  0.00    +0.390 C 
BRANCH  21  22
ATOM     22  C   LIG    1       -0.180   1.242   2.576  0.00  0.00    -0.160 A 
ATOM     23  C   LIG    1        0.958   0.438   2.693  0.00  0.00    +0.100 A 
ATOM     24  C   LIG    1        1.444   0.115   3.942  0.00  0.00    +0.030 A 
ATOM     25  C   LIG    1        0.802   0.576   5.080  0.00  0.00    +0.010 A 
ATOM     26  C   LIG    1       -0.329   1.368   4.974  0.00  0.00    +0.030 A 
ATOM     27 CL   LIG    1        1.420   0.159   6.648  0.00  0.00    -0.040 Cl
ATOM     28  C   LIG    1       -0.824   1.705   3.731  0.00  0.00    +0.030 A 
ATOM     29 CL   LIG    1       -2.242   2.697   3.598  0.00  0.00    -0.010 Cl
ENDBRANCH  21  22
ENDBRANCH  19  21
ENDBRANCH  18  19
ENDBRANCH  16  18
ENDBRANCH   1  16
TORSDOF 6
