REMARK  Name = ZINCrD00000l61Ov.0
REMARK                            x       y       z     vdW  Elec       q    Type
REMARK                         _______ _______ _______ _____ _____    ______ ____
ROOT
ATOM      1  C   LIG    1       -0.715   1.568   1.280  0.00  0.00    +0.130 C 
ATOM      2  N   LIG    1       -0.037   1.088   2.497  0.00  0.00    -0.720 N 
ATOM      3  H   LIG    1        0.873   1.284   2.769  0.00  0.00    +0.440 HD
ATOM      4  C   LIG    1       -0.927   0.325   3.157  0.00  0.00    +0.710 C 
ATOM      5  N   LIG    1       -2.102   0.246   2.523  0.00  0.00    -0.560 N 
ATOM      6  O   LIG    1       -0.689  -0.231   4.212  0.00  0.00    -0.540 OA
ATOM      7  C   LIG    1        0.009   1.069   0.028  0.00  0.00    +0.090 C 
ATOM      8  C   LIG    1       -2.098   0.955   1.378  0.00  0.00    +0.540 C 
ATOM      9  O   LIG    1       -3.010   1.078   0.589  0.00  0.00    -0.460 OA
ENDROOT
BRANCH   1  10
ATOM     10  C   LIG    1       -0.799   3.096   1.278  0.00  0.00    +0.050 C 
BRANCH  10  11
ATOM     11  C   LIG    1        0.613   3.684   1.235  0.00  0.00    +0.010 C 
BRANCH  11  12
ATOM     12  C   LIG    1        0.529   5.212   1.233  0.00  0.00    +0.000 C 
BRANCH  12  13
ATOM     13  C   LIG    1        1.941   5.800   1.190  0.00  0.00    +0.000 C 
BRANCH  13  14
ATOM     14  C   LIG    1        1.857   7.328   1.188  0.00  0.00    +0.000 C 
BRANCH  14  16
ATOM     15  C   LIG    1        3.185   9.444   1.142  0.00  0.00    +0.000 C 
ATOM     16  C   LIG    1        3.269   7.916   1.145  0.00  0.00    -0.010 C 
ENDBRANCH  14  16
ENDBRANCH  13  14
ENDBRANCH  12  13
ENDBRANCH  11  12
ENDBRANCH  10  11
ENDBRANCH   1  10
BRANCH   5  17
ATOM     17  C   LIG    1       -3.253  -0.517   3.015  0.00  0.00    +0.360 C 
BRANCH  17  18
ATOM     18  C   LIG    1       -4.104   0.366   3.890  0.00  0.00    +0.500 C 
ATOM     19  N   LIG    1       -5.224  -0.125   4.457  0.00  0.00    -0.660 N 
ATOM     20  H   LIG    1       -5.525  -1.021   4.239  0.00  0.00    +0.420 HD
ATOM     21  O   LIG    1       -3.782   1.520   4.084  0.00  0.00    -0.510 OA
BRANCH  19  22
ATOM     22  C   LIG    1       -5.953   0.658   5.362  0.00  0.00    +0.120 A 
ATOM     23  C   LIG    1       -5.323   1.673   6.068  0.00  0.00    +0.060 A 
ATOM     24  C   LIG    1       -6.046   2.448   6.955  0.00  0.00    +0.000 A 
ATOM     25  C   LIG    1       -7.393   2.207   7.150  0.00  0.00    +0.030 A 
ATOM     26  C   LIG    1       -8.026   1.194   6.454  0.00  0.00    -0.060 A 
ATOM     27  C   LIG    1       -7.311   0.417   5.559  0.00  0.00    +0.100 A 
BRANCH  27  28
ATOM     28  O   LIG    1       -7.932  -0.580   4.873  0.00  0.00    -0.320 OA
ATOM     29  C   LIG    1       -9.326  -0.770   5.126  0.00  0.00    +0.250 C 
ENDBRANCH  27  28
ENDBRANCH  19  22
ENDBRANCH  17  18
ENDBRANCH   5  17
TORSDOF 10
