REMARK  Name = ZINCvU0000000Itw.0
REMARK                            x       y       z     vdW  Elec       q    Type
REMARK                         _______ _______ _______ _____ _____    ______ ____
ROOT
ATOM      1  N   LIG    1        5.328  -5.620  -0.475  0.00  0.00    -0.670 N 
ATOM      2  H   LIG    1        5.330  -6.588  -0.419  0.00  0.00    +0.410 HD
ATOM      3  C   LIG    1        6.448  -4.963  -0.836  0.00  0.00    +0.530 C 
ATOM      4  O   LIG    1        6.470  -3.751  -0.825  0.00  0.00    -0.490 OA
ENDROOT
BRANCH   1   8
ATOM      5  C   LIG    1        1.857  -3.491   0.403  0.00  0.00    -0.150 A 
ATOM      6  C   LIG    1        2.179  -4.637   1.135  0.00  0.00    +0.070 A 
ATOM      7  C   LIG    1        3.325  -5.341   0.839  0.00  0.00    -0.020 A 
ATOM      8  C   LIG    1        4.166  -4.907  -0.181  0.00  0.00    +0.170 A 
ATOM      9  C   LIG    1        3.850  -3.764  -0.908  0.00  0.00    +0.020 A 
ATOM     10  C   LIG    1        2.704  -3.058  -0.621  0.00  0.00    +0.100 A 
BRANCH   5  12
ATOM     11  N   LIG    1       -0.503  -3.395   1.042  0.00  0.00    -0.610 N 
ATOM     12  C   LIG    1        0.626  -2.737   0.713  0.00  0.00    +0.560 C 
ATOM     13  O   LIG    1        0.632  -1.522   0.672  0.00  0.00    -0.530 OA
BRANCH  11  15
ATOM     14  C   LIG    1       -0.447  -5.389   2.458  0.00  0.00    +0.020 C 
ATOM     15  C   LIG    1       -0.528  -4.860   1.024  0.00  0.00    +0.260 C 
ENDBRANCH  11  15
BRANCH  11  16
ATOM     16  C   LIG    1       -1.702  -2.646   1.424  0.00  0.00    +0.270 C 
ATOM     17  C   LIG    1       -2.540  -2.355   0.177  0.00  0.00    +0.020 C 
ENDBRANCH  11  16
ENDBRANCH   5  12
ENDBRANCH   1   8
BRANCH   3  18
ATOM     18  C   LIG    1        7.673  -5.735  -1.254  0.00  0.00    +0.090 C 
BRANCH  18  19
ATOM     19  S   LIG    1        9.003  -4.577  -1.678  0.00  0.00    -0.140 S 
BRANCH  19  20
ATOM     20  C   LIG    1       10.367  -5.676  -2.147  0.00  0.00    +0.110 C 
BRANCH  20  21
ATOM     21  C   LIG    1       11.603  -4.856  -2.414  0.00  0.00    -0.060 A 
ATOM     22  C   LIG    1       11.557  -3.810  -3.316  0.00  0.00    +0.030 A 
ATOM     23  C   LIG    1       12.690  -3.055  -3.558  0.00  0.00    +0.010 A 
ATOM     24  C   LIG    1       13.871  -3.353  -2.905  0.00  0.00    +0.010 A 
ATOM     25  C   LIG    1       13.919  -4.403  -2.007  0.00  0.00    +0.010 A 
ATOM     26  C   LIG    1       12.785  -5.155  -1.762  0.00  0.00    +0.020 A 
ENDBRANCH  20  21
BRANCH  20  27
ATOM     27  C   LIG    1        9.992  -6.440  -3.391  0.00  0.00    -0.090 A 
ATOM     28  C   LIG    1        9.488  -5.768  -4.489  0.00  0.00    +0.030 A 
ATOM     29  C   LIG    1        9.148  -6.467  -5.632  0.00  0.00    +0.000 A 
ATOM     30  C   LIG    1        9.303  -7.840  -5.673  0.00  0.00    +0.000 A 
ATOM     31  C   LIG    1        9.803  -8.513  -4.574  0.00  0.00    +0.000 A 
ATOM     32  C   LIG    1       10.147  -7.813  -3.433  0.00  0.00    +0.010 A 
ENDBRANCH  20  27
ENDBRANCH  19  20
ENDBRANCH  18  19
ENDBRANCH   3  18
TORSDOF 9
