REMARK  Name = ZINCrD0000071XzF.0
REMARK                            x       y       z     vdW  Elec       q    Type
REMARK                         _______ _______ _______ _____ _____    ______ ____
ROOT
ATOM      1  S   LIG    1        0.437   5.969   0.290  0.00  0.00    +0.080 S 
ENDROOT
BRANCH   1   5
ATOM      2  C   LIG    1       -0.014   1.546   0.079  0.00  0.00    -0.330 A 
ATOM      3  C   LIG    1        1.246   2.149  -0.021  0.00  0.00    +0.440 A 
ATOM      4  N   LIG    1        1.335   3.464   0.047  0.00  0.00    -0.570 NA
ATOM      5  C   LIG    1        0.253   4.218   0.207  0.00  0.00    +0.360 A 
ATOM      6  N   LIG    1       -0.961   3.695   0.306  0.00  0.00    -0.570 NA
ATOM      7  C   LIG    1       -1.142   2.382   0.243  0.00  0.00    +0.510 A 
BRANCH   7   8
ATOM      8  N   LIG    1       -2.406   1.842   0.342  0.00  0.00    -0.810 N 
ATOM      9  H   LIG    1       -3.182   2.424   0.368  0.00  0.00    +0.410 HD
ATOM     10  H   LIG    1       -2.521   0.879   0.385  0.00  0.00    +0.430 HD
ENDBRANCH   7   8
BRANCH   2  11
ATOM     11  C   LIG    1       -0.160   0.086   0.008  0.00  0.00    +0.540 C 
ATOM     12  O   LIG    1       -1.246  -0.427   0.195  0.00  0.00    -0.520 OA
BRANCH  11  13
ATOM     13  O   LIG    1        0.911  -0.686  -0.264  0.00  0.00    -0.350 OA
BRANCH  13  15
ATOM     14  C   LIG    1        2.014  -2.826  -0.636  0.00  0.00    +0.070 C 
ATOM     15  C   LIG    1        0.693  -2.121  -0.318  0.00  0.00    +0.200 C 
ENDBRANCH  13  15
ENDBRANCH  11  13
ENDBRANCH   2  11
ENDBRANCH   1   5
BRANCH   1  16
ATOM     16  C   LIG    1        2.233   6.105   0.105  0.00  0.00    -0.010 C 
ATOM     17  C   LIG    1        2.641   5.612  -1.284  0.00  0.00    +0.090 C 
BRANCH  16  18
ATOM     18  C   LIG    1        2.647   7.544   0.270  0.00  0.00    +0.470 C 
ATOM     19  O   LIG    1        1.858   8.435   0.029  0.00  0.00    -0.430 OA
BRANCH  18  20
ATOM     20  C   LIG    1        3.958   7.859   0.707  0.00  0.00    -0.270 A 
ATOM     21  C   LIG    1        4.403   7.924   2.010  0.00  0.00    +0.150 A 
ATOM     22  N   LIG    1        5.709   8.252   2.026  0.00  0.00    -0.570 N 
ATOM     23  H   LIG    1        6.242   8.358   2.830  0.00  0.00    +0.420 HD
ATOM     24  C   LIG    1        6.186   8.419   0.742  0.00  0.00    +0.090 A 
ATOM     25  C   LIG    1        7.436   8.752   0.229  0.00  0.00    +0.000 A 
ATOM     26  C   LIG    1        7.621   8.831  -1.135  0.00  0.00    +0.030 A 
ATOM     27  C   LIG    1        6.568   8.595  -2.006  0.00  0.00    +0.000 A 
ATOM     28  C   LIG    1        5.321   8.268  -1.516  0.00  0.00    +0.040 A 
ATOM     29  C   LIG    1        3.558   7.667   3.231  0.00  0.00    +0.150 C 
ATOM     30  C   LIG    1        5.123   8.176  -0.142  0.00  0.00    -0.060 A 
ENDBRANCH  18  20
ENDBRANCH  16  18
ENDBRANCH   1  16
TORSDOF 8
