REMARK  Name = ZINCkj000005hpBp.1
REMARK                            x       y       z     vdW  Elec       q    Type
REMARK                         _______ _______ _______ _____ _____    ______ ____
ROOT
ATOM      1  C   LIG    1        1.509   3.557   0.235  0.00  0.00    +0.310 C 
ATOM      2  N   LIG    1        1.561   2.089   0.203  0.00  0.00    -0.390 N 
ATOM      3  C   LIG    1        1.949   1.589   1.526  0.00  0.00    +0.250 C 
ATOM      4  C   LIG    1        2.057   0.061   1.504  0.00  0.00    +0.100 C 
ATOM      5  C   LIG    1        0.702  -0.518   1.100  0.00  0.00    +0.230 C 
ATOM      6  C   LIG    1        0.320   0.044  -0.275  0.00  0.00    -0.030 C 
ATOM      7  C   LIG    1       -1.016  -0.557  -0.702  0.00  0.00    +0.050 C 
ATOM      8  C   LIG    1       -0.857  -2.075  -0.840  0.00  0.00    +0.020 C 
ATOM      9  C   LIG    1       -0.438  -2.680   0.502  0.00  0.00    +0.290 C 
ATOM     10  N   LIG    1        0.757  -1.979   1.001  0.00  0.00    -0.590 N 
ATOM     11  C   LIG    1        1.865  -2.659   1.354  0.00  0.00    +0.590 C 
ATOM     12  O   LIG    1        2.896  -2.060   1.592  0.00  0.00    -0.520 OA
ATOM     13  C   LIG    1        0.241   1.566  -0.180  0.00  0.00    +0.260 C 
ATOM     14  H   LIG    1        2.246   1.796  -0.478  0.00  0.00    +0.420 HD
ENDROOT
BRANCH  11  15
ATOM     15  C   LIG    1        1.828  -4.134   1.453  0.00  0.00    +0.030 A 
ATOM     16  N   LIG    1        0.668  -4.773   1.349  0.00  0.00    -0.440 NA
ATOM     17  C   LIG    1        0.591  -6.082   1.426  0.00  0.00    +0.260 A 
ATOM     18  C   LIG    1        1.726  -6.855   1.631  0.00  0.00    +0.030 A 
ATOM     19  C   LIG    1        2.957  -6.236   1.751  0.00  0.00    +0.040 A 
ATOM     20  C   LIG    1        3.013  -4.847   1.660  0.00  0.00    +0.130 A 
BRANCH  20  21
ATOM     21  O   LIG    1        4.199  -4.197   1.771  0.00  0.00    -0.470 OA
ATOM     22  H   LIG    1        4.426  -3.946   2.677  0.00  0.00    +0.400 HD
ENDBRANCH  20  21
ENDBRANCH  11  15
TORSDOF 2
