REMARK  Name = ZINCkj000005hpBp.0
REMARK                            x       y       z     vdW  Elec       q    Type
REMARK                         _______ _______ _______ _____ _____    ______ ____
ROOT
ATOM      1  C   LIG    1       -4.715   3.573   1.957  0.00  0.00    +0.310 C 
ATOM      2  N   LIG    1       -4.907   2.143   1.682  0.00  0.00    -0.380 N 
ATOM      3  C   LIG    1       -4.171   1.356   2.677  0.00  0.00    +0.240 C 
ATOM      4  C   LIG    1       -2.681   1.711   2.636  0.00  0.00    +0.090 C 
ATOM      5  C   LIG    1       -2.148   1.417   1.235  0.00  0.00    +0.230 C 
ATOM      6  C   LIG    1       -2.955   2.239   0.223  0.00  0.00    -0.030 C 
ATOM      7  C   LIG    1       -2.405   1.979  -1.177  0.00  0.00    +0.050 C 
ATOM      8  C   LIG    1       -0.949   2.455  -1.236  0.00  0.00    +0.020 C 
ATOM      9  C   LIG    1       -0.108   1.688  -0.213  0.00  0.00    +0.290 C 
ATOM     10  N   LIG    1       -0.736   1.795   1.114  0.00  0.00    -0.590 N 
ATOM     11  C   LIG    1       -0.037   2.227   2.182  0.00  0.00    +0.590 C 
ATOM     12  O   LIG    1       -0.612   2.479   3.224  0.00  0.00    -0.520 OA
ATOM     13  C   LIG    1       -4.425   1.841   0.327  0.00  0.00    +0.270 C 
ATOM     14  H   LIG    1       -5.890   1.921   1.743  0.00  0.00    +0.430 HD
ENDROOT
BRANCH  11  15
ATOM     15  C   LIG    1        1.429   2.396   2.087  0.00  0.00    +0.030 A 
ATOM     16  N   LIG    1        2.073   1.971   1.006  0.00  0.00    -0.440 NA
ATOM     17  C   LIG    1        3.374   2.106   0.880  0.00  0.00    +0.260 A 
ATOM     18  C   LIG    1        4.133   2.691   1.883  0.00  0.00    +0.030 A 
ATOM     19  C   LIG    1        3.510   3.144   3.032  0.00  0.00    +0.040 A 
ATOM     20  C   LIG    1        2.129   2.995   3.140  0.00  0.00    +0.130 A 
BRANCH  20  21
ATOM     21  O   LIG    1        1.474   3.425   4.247  0.00  0.00    -0.470 OA
ATOM     22  H   LIG    1        1.399   2.758   4.943  0.00  0.00    +0.400 HD
ENDBRANCH  20  21
ENDBRANCH  11  15
TORSDOF 2
