REMARK  Name = ZINCrD000000BvTR.0
REMARK                            x       y       z     vdW  Elec       q    Type
REMARK                         _______ _______ _______ _____ _____    ______ ____
ROOT
ATOM      1  O   LIG    1       -8.583   2.659  -0.608  0.00  0.00    -0.500 OA
ATOM      2  C   LIG    1       -7.823   2.858  -1.532  0.00  0.00    +0.510 C 
ATOM      3  N   LIG    1       -6.584   3.332  -1.297  0.00  0.00    -0.720 N 
ATOM      4  H   LIG    1       -5.976   3.490  -2.036  0.00  0.00    +0.400 HD
ENDROOT
BRANCH   2   5
ATOM      5  C   LIG    1       -8.266   2.575  -2.945  0.00  0.00    +0.220 C 
ATOM      6  C   LIG    1       -8.689   3.888  -3.651  0.00  0.00    +0.060 C 
ATOM      7  C   LIG    1       -9.651   3.357  -4.746  0.00  0.00    +0.040 C 
ATOM      8  C   LIG    1      -10.352   2.174  -4.045  0.00  0.00    +0.260 C 
ATOM      9  N   LIG    1       -9.480   1.739  -2.945  0.00  0.00    -0.600 N 
ATOM     10  C   LIG    1       -9.746   0.741  -2.079  0.00  0.00    +0.620 C 
ATOM     11  O   LIG    1       -8.947   0.466  -1.203  0.00  0.00    -0.490 OA
BRANCH  10  12
ATOM     12  C   LIG    1      -10.998  -0.015  -2.193  0.00  0.00    -0.070 A 
ATOM     13  C   LIG    1      -11.390  -1.044  -1.386  0.00  0.00    +0.040 A 
ATOM     14  C   LIG    1      -12.644  -1.467  -1.853  0.00  0.00    -0.060 A 
ATOM     15  C   LIG    1      -12.959  -0.687  -2.910  0.00  0.00    +0.200 A 
ATOM     16  O   LIG    1      -11.967   0.190  -3.109  0.00  0.00    -0.160 OA
ENDBRANCH  10  12
ENDBRANCH   2   5
BRANCH   3  17
ATOM     17  C   LIG    1       -6.154   3.607   0.076  0.00  0.00    +0.380 C 
BRANCH  17  18
ATOM     18  C   LIG    1       -4.738   4.124   0.066  0.00  0.00    +0.050 A 
ATOM     19  C   LIG    1       -4.460   5.431   0.068  0.00  0.00    -0.050 A 
ATOM     20  S   LIG    1       -2.708   5.622   0.053  0.00  0.00    +0.100 S 
ATOM     21  C   LIG    1       -2.522   3.870   0.044  0.00  0.00    +0.120 A 
ATOM     22  N   LIG    1       -3.702   3.318   0.047  0.00  0.00    -0.450 NA
BRANCH  21  23
ATOM     23  C   LIG    1       -1.235   3.143   0.029  0.00  0.00    -0.030 A 
ATOM     24  C   LIG    1       -1.218   1.748   0.017  0.00  0.00    +0.070 A 
ATOM     25  C   LIG    1       -0.013   1.076   0.008  0.00  0.00    +0.010 A 
ATOM     26  C   LIG    1        1.177   1.782   0.000  0.00  0.00    +0.030 A 
ATOM     27  C   LIG    1        1.167   3.166   0.007  0.00  0.00    +0.010 A 
ATOM     28  C   LIG    1       -0.031   3.850   0.022  0.00  0.00    +0.020 A 
ENDBRANCH  21  23
ENDBRANCH  17  18
ENDBRANCH   3  17
TORSDOF 5
