REMARK  Name = ZINCrH000004nesR.0
REMARK                            x       y       z     vdW  Elec       q    Type
REMARK                         _______ _______ _______ _____ _____    ______ ____
ROOT
ATOM      1  C   LIG    1        5.606   3.400  -0.135  0.00  0.00    +0.520 C 
ATOM      2  N   LIG    1        4.742   2.371  -0.030  0.00  0.00    -0.670 N 
ATOM      3  H   LIG    1        5.074   1.462   0.029  0.00  0.00    +0.410 HD
ATOM      4  O   LIG    1        5.196   4.541  -0.125  0.00  0.00    -0.500 OA
ENDROOT
BRANCH   2   5
ATOM      5  C   LIG    1        3.362   2.616  -0.008  0.00  0.00    +0.150 A 
ATOM      6  C   LIG    1        2.489   1.716  -0.608  0.00  0.00    +0.010 A 
ATOM      7  C   LIG    1        1.129   1.952  -0.589  0.00  0.00    +0.060 A 
ATOM      8  C   LIG    1        0.631   3.088   0.030  0.00  0.00    +0.070 A 
ATOM      9  N   LIG    1       -0.657   3.591   0.211  0.00  0.00    -0.640 N 
ATOM     10  H   LIG    1       -1.477   3.179  -0.101  0.00  0.00    +0.440 HD
ATOM     11  C   LIG    1       -0.567   4.746   0.899  0.00  0.00    +0.680 A 
ATOM     12  N   LIG    1        0.724   5.018   1.163  0.00  0.00    -0.640 N 
ATOM     13  H   LIG    1        1.054   5.793   1.643  0.00  0.00    +0.440 HD
ATOM     14  O   LIG    1       -1.511   5.439   1.228  0.00  0.00    -0.550 OA
ATOM     15  C   LIG    1        1.506   3.994   0.634  0.00  0.00    +0.110 A 
ATOM     16  C   LIG    1        2.871   3.755   0.613  0.00  0.00    +0.040 A 
ENDBRANCH   2   5
BRANCH   1  17
ATOM     17  C   LIG    1        7.084   3.132  -0.264  0.00  0.00    +0.040 C 
ATOM     18  C   LIG    1        7.343   2.301  -1.522  0.00  0.00    +0.080 C 
BRANCH  17  24
ATOM     19  C   LIG    1       10.796   8.393   0.265  0.00  0.00    +0.130 A 
ATOM     20  C   LIG    1        9.857   8.078  -0.675  0.00  0.00    -0.030 A 
ATOM     21  C   LIG    1        9.166   6.859  -0.585  0.00  0.00    -0.010 A 
ATOM     22  C   LIG    1        8.193   6.500  -1.533  0.00  0.00    +0.010 A 
ATOM     23  C   LIG    1        7.541   5.311  -1.414  0.00  0.00    +0.050 A 
ATOM     24  C   LIG    1        7.825   4.440  -0.364  0.00  0.00    -0.080 A 
ATOM     25  C   LIG    1        8.757   4.756   0.576  0.00  0.00    +0.050 A 
ATOM     26  C   LIG    1        9.454   5.973   0.484  0.00  0.00    -0.080 A 
ATOM     27  C   LIG    1       10.426   6.330   1.434  0.00  0.00    +0.070 A 
ATOM     28  C   LIG    1       11.079   7.517   1.318  0.00  0.00    -0.060 A 
BRANCH  19  30
ATOM     29  C   LIG    1       12.435   9.846   1.189  0.00  0.00    +0.250 C 
ATOM     30  O   LIG    1       11.465   9.572   0.176  0.00  0.00    -0.320 OA
ENDBRANCH  19  30
ENDBRANCH  17  24
ENDBRANCH   1  17
TORSDOF 4
