REMARK  Name = ZINCah0000002qFi.0
REMARK                            x       y       z     vdW  Elec       q    Type
REMARK                         _______ _______ _______ _____ _____    ______ ____
ROOT
ATOM      1  C   LIG    1        0.750   3.960   1.439  0.00  0.00    +0.020 C 
ATOM      2  C   LIG    1        1.514   3.548   0.179  0.00  0.00    -0.020 C 
ATOM      3  C   LIG    1        0.927   4.284  -1.027  0.00  0.00    +0.280 C 
ATOM      4  N   LIG    1       -0.520   4.450  -0.819  0.00  0.00    -0.720 N 
ATOM      5  H   LIG    1       -0.881   5.328  -0.618  0.00  0.00    +0.400 HD
ATOM      6  C   LIG    1       -1.340   3.402  -0.907  0.00  0.00    +0.520 C 
ATOM      7  C   LIG    1       -0.787   2.026  -1.215  0.00  0.00    +0.050 C 
ATOM      8  C   LIG    1       -0.019   1.526   0.010  0.00  0.00    -0.010 C 
ATOM      9  C   LIG    1        0.002  -0.004   0.002  0.00  0.00    +0.030 C 
ATOM     10  O   LIG    1       -2.532   3.550  -0.739  0.00  0.00    -0.550 OA
ATOM     11  C   LIG    1        1.408   2.045  -0.000  0.00  0.00    +0.030 C 
ENDROOT
TORSDOF 0
