REMARK  Name = ZINCtV00000tRQSQ.0
REMARK                            x       y       z     vdW  Elec       q    Type
REMARK                         _______ _______ _______ _____ _____    ______ ____
ROOT
ATOM      1  C   LIG    1        1.058   6.297  -0.078  0.00  0.00    +0.300 A 
ATOM      2  C   LIG    1        2.047   5.706   0.738  0.00  0.00    -0.080 A 
ATOM      3  C   LIG    1        2.934   6.458   1.516  0.00  0.00    +0.070 A 
ATOM      4  C   LIG    1        3.865   5.815   2.279  0.00  0.00    +0.030 A 
ATOM      5  C   LIG    1        3.944   4.425   2.296  0.00  0.00    +0.050 A 
ATOM      6  C   LIG    1        3.094   3.663   1.548  0.00  0.00    +0.050 A 
ATOM      7  C   LIG    1        2.128   4.290   0.755  0.00  0.00    -0.040 A 
ATOM      8  C   LIG    1        1.211   3.568  -0.048  0.00  0.00    +0.120 A 
ATOM      9  N   LIG    1        0.333   4.239  -0.774  0.00  0.00    -0.210 NA
ATOM     10  N   LIG    1        0.259   5.518  -0.783  0.00  0.00    -0.310 NA
ENDROOT
BRANCH   8  11
ATOM     11  C   LIG    1        1.240   2.088  -0.079  0.00  0.00    -0.040 A 
ATOM     12  C   LIG    1        1.370   1.365   1.107  0.00  0.00    +0.030 A 
ATOM     13  C   LIG    1        1.396  -0.014   1.071  0.00  0.00    +0.010 A 
ATOM     14  C   LIG    1        1.295  -0.680  -0.137  0.00  0.00    +0.020 A 
ATOM     15  C   LIG    1        1.166   0.031  -1.317  0.00  0.00    +0.010 A 
ATOM     16  C   LIG    1        1.138   1.411  -1.294  0.00  0.00    +0.050 A 
ENDBRANCH   8  11
BRANCH   1  17
ATOM     17  O   LIG    1        0.930   7.645  -0.137  0.00  0.00    -0.230 OA
BRANCH  17  21
ATOM     18  C   LIG    1       -2.223   9.203  -2.300  0.00  0.00    -0.030 A 
ATOM     19  C   LIG    1       -2.446   8.649  -1.040  0.00  0.00    +0.030 A 
ATOM     20  C   LIG    1       -1.391   8.130  -0.320  0.00  0.00    +0.020 A 
ATOM     21  C   LIG    1       -0.107   8.158  -0.848  0.00  0.00    +0.080 A 
ATOM     22  C   LIG    1        0.119   8.713  -2.101  0.00  0.00    +0.020 A 
ATOM     23  C   LIG    1       -0.933   9.229  -2.828  0.00  0.00    +0.040 A 
BRANCH  18  27
ATOM     24  C   LIG    1       -5.469  10.809  -4.527  0.00  0.00    +0.000 A 
ATOM     25  C   LIG    1       -4.191  10.837  -5.055  0.00  0.00    +0.010 A 
ATOM     26  C   LIG    1       -3.133  10.317  -4.336  0.00  0.00    +0.020 A 
ATOM     27  C   LIG    1       -3.355   9.763  -3.077  0.00  0.00    -0.050 A 
ATOM     28  C   LIG    1       -4.646   9.733  -2.552  0.00  0.00    +0.020 A 
ATOM     29  C   LIG    1       -5.695  10.260  -3.277  0.00  0.00    +0.010 A 
ENDBRANCH  18  27
ENDBRANCH  17  21
ENDBRANCH   1  17
TORSDOF 4
