REMARK  Name = ZINCpe00000MJJKj.1
REMARK                            x       y       z     vdW  Elec       q    Type
REMARK                         _______ _______ _______ _____ _____    ______ ____
ROOT
ATOM      1  C   LIG    1       -0.560   1.629  -1.351  0.00  0.00    +0.180 C 
ATOM      2  C   LIG    1        0.094   3.024  -1.447  0.00  0.00    +0.270 C 
ATOM      3  N   LIG    1        1.298   3.000  -0.603  0.00  0.00    -0.620 N 
ATOM      4  C   LIG    1        1.435   1.656  -0.012  0.00  0.00    +0.280 C 
ATOM      5  C   LIG    1        2.138   4.035  -0.404  0.00  0.00    +0.610 C 
ATOM      6  O   LIG    1        3.056   3.930   0.389  0.00  0.00    -0.510 OA
ATOM      7  C   LIG    1       -0.001   1.074  -0.015  0.00  0.00    +0.190 C 
ENDROOT
BRANCH   5   8
ATOM      8  C   LIG    1        1.945   5.288  -1.141  0.00  0.00    -0.060 A 
ATOM      9  C   LIG    1        2.787   6.381  -1.116  0.00  0.00    +0.070 A 
ATOM     10  C   LIG    1        2.237   7.351  -1.952  0.00  0.00    -0.030 A 
ATOM     11  C   LIG    1        1.069   6.838  -2.475  0.00  0.00    +0.100 A 
ATOM     12  N   LIG    1        0.896   5.578  -1.984  0.00  0.00    -0.540 N 
ATOM     13  H   LIG    1        0.157   4.985  -2.192  0.00  0.00    +0.410 HD
BRANCH  11  14
ATOM     14  C   LIG    1        0.163   7.534  -3.413  0.00  0.00    -0.030 A 
ATOM     15  C   LIG    1       -0.991   6.897  -3.874  0.00  0.00    -0.010 A 
ATOM     16  C   LIG    1       -1.835   7.554  -4.746  0.00  0.00    +0.020 A 
ATOM     17  C   LIG    1       -1.534   8.836  -5.171  0.00  0.00    +0.020 A 
ATOM     18  C   LIG    1       -0.389   9.470  -4.723  0.00  0.00    +0.020 A 
ATOM     19  C   LIG    1        0.461   8.827  -3.847  0.00  0.00    +0.040 A 
ENDBRANCH  11  14
ENDBRANCH   5   8
BRANCH   1  21
ATOM     20  C   LIG    1       -2.523   2.271  -2.572  0.00  0.00    +0.310 C 
ATOM     21  N   LIG    1       -2.023   1.744  -1.295  0.00  0.00    -0.350 N 
ATOM     22  H   LIG    1       -2.283   2.371  -0.548  0.00  0.00    +0.430 HD
BRANCH  21  23
ATOM     23  C   LIG    1       -2.610   0.420  -1.049  0.00  0.00    +0.170 C 
BRANCH  23  24
ATOM     24  C   LIG    1       -4.099   0.555  -0.869  0.00  0.00    +0.490 C 
ATOM     25  O   LIG    1       -4.780  -0.433  -0.653  0.00  0.00    -0.640 OA
ATOM     26  O   LIG    1       -4.625   1.654  -0.939  0.00  0.00    -0.670 OA
ENDBRANCH  23  24
ENDBRANCH  21  23
ENDBRANCH   1  21
BRANCH   7  27
ATOM     27  O   LIG    1       -0.753   1.562   1.098  0.00  0.00    -0.560 OA
ATOM     28  H   LIG    1       -0.411   1.281   1.958  0.00  0.00    +0.410 HD
ENDBRANCH   7  27
TORSDOF 6
