REMARK  Name = ZINCpe00000MJJKj.0
REMARK                            x       y       z     vdW  Elec       q    Type
REMARK                         _______ _______ _______ _____ _____    ______ ____
ROOT
ATOM      1  C   LIG    1        5.168   4.679  -0.296  0.00  0.00    +0.180 C 
ATOM      2  C   LIG    1        3.644   4.847  -0.122  0.00  0.00    +0.270 C 
ATOM      3  N   LIG    1        3.055   3.500  -0.111  0.00  0.00    -0.620 N 
ATOM      4  C   LIG    1        4.139   2.509  -0.237  0.00  0.00    +0.270 C 
ATOM      5  C   LIG    1        1.742   3.217   0.003  0.00  0.00    +0.620 C 
ATOM      6  O   LIG    1        1.374   2.060   0.087  0.00  0.00    -0.510 OA
ATOM      7  C   LIG    1        5.292   3.273  -0.940  0.00  0.00    +0.190 C 
ENDROOT
BRANCH   5   8
ATOM      8  C   LIG    1        0.758   4.303   0.025  0.00  0.00    -0.060 A 
ATOM      9  C   LIG    1       -0.615   4.154   0.026  0.00  0.00    +0.070 A 
ATOM     10  C   LIG    1       -1.173   5.431   0.050  0.00  0.00    -0.040 A 
ATOM     11  C   LIG    1       -0.137   6.340   0.063  0.00  0.00    +0.100 A 
ATOM     12  N   LIG    1        1.040   5.650   0.047  0.00  0.00    -0.540 N 
ATOM     13  H   LIG    1        1.926   6.043   0.052  0.00  0.00    +0.410 HD
BRANCH  11  14
ATOM     14  C   LIG    1       -0.278   7.811   0.089  0.00  0.00    -0.030 A 
ATOM     15  C   LIG    1        0.857   8.623   0.105  0.00  0.00    -0.010 A 
ATOM     16  C   LIG    1        0.719   9.996   0.125  0.00  0.00    +0.020 A 
ATOM     17  C   LIG    1       -0.541  10.567   0.139  0.00  0.00    +0.020 A 
ATOM     18  C   LIG    1       -1.670   9.768   0.128  0.00  0.00    +0.020 A 
ATOM     19  C   LIG    1       -1.546   8.394   0.103  0.00  0.00    +0.040 A 
ENDBRANCH  11  14
ENDBRANCH   5   8
BRANCH   1  21
ATOM     20  C   LIG    1        7.150   5.509  -1.363  0.00  0.00    +0.320 C 
ATOM     21  N   LIG    1        5.706   5.714  -1.189  0.00  0.00    -0.350 N 
ATOM     22  H   LIG    1        5.247   5.655  -2.086  0.00  0.00    +0.430 HD
BRANCH  21  23
ATOM     23  C   LIG    1        5.467   7.040  -0.603  0.00  0.00    +0.150 C 
BRANCH  23  24
ATOM     24  C   LIG    1        5.907   8.105  -1.574  0.00  0.00    +0.490 C 
ATOM     25  O   LIG    1        5.794   9.283  -1.280  0.00  0.00    -0.630 OA
ATOM     26  O   LIG    1        6.376   7.789  -2.654  0.00  0.00    -0.670 OA
ENDBRANCH  23  24
ENDBRANCH  21  23
ENDBRANCH   1  21
BRANCH   7  27
ATOM     27  O   LIG    1        5.084   3.337  -2.352  0.00  0.00    -0.560 OA
ATOM     28  H   LIG    1        5.151   2.482  -2.799  0.00  0.00    +0.410 HD
ENDBRANCH   7  27
TORSDOF 6
