REMARK  Name = ZINCrH000004pKgm.0
REMARK                            x       y       z     vdW  Elec       q    Type
REMARK                         _______ _______ _______ _____ _____    ______ ____
ROOT
ATOM      1  C   LIG    1       -0.046   1.389  -0.041  0.00  0.00    +0.600 C 
ATOM      2  N   LIG    1       -0.091   0.237   0.655  0.00  0.00    -0.610 N 
ATOM      3  C   LIG    1        1.109  -0.279   1.328  0.00  0.00    +0.260 C 
ATOM      4  C   LIG    1        0.778  -0.535   2.801  0.00  0.00    +0.030 C 
ATOM      5  C   LIG    1       -0.440  -1.457   2.894  0.00  0.00    +0.060 C 
ATOM      6  C   LIG    1       -1.646  -0.780   2.238  0.00  0.00    -0.010 C 
ATOM      7  C   LIG    1       -1.343  -0.525   0.762  0.00  0.00    +0.300 C 
ATOM      8  O   LIG    1       -1.024   1.766  -0.659  0.00  0.00    -0.520 OA
ENDROOT
BRANCH   1  16
ATOM      9  C   LIG    1        4.665   7.233  -0.109  0.00  0.00    +0.030 C 
ATOM     10  C   LIG    1        4.258   5.789  -0.406  0.00  0.00    -0.020 C 
ATOM     11  C   LIG    1        5.222   4.829   0.298  0.00  0.00    +0.030 C 
ATOM     12  C   LIG    1        4.977   3.409  -0.217  0.00  0.00    +0.110 C 
ATOM     13  C   LIG    1        3.491   3.111  -0.140  0.00  0.00    -0.200 A 
ATOM     14  C   LIG    1        2.531   4.053   0.003  0.00  0.00    -0.110 A 
ATOM     15  C   LIG    1        1.247   3.543   0.043  0.00  0.00    +0.100 A 
ATOM     16  C   LIG    1        1.184   2.187  -0.059  0.00  0.00    -0.270 A 
ATOM     17  S   LIG    1        2.811   1.548  -0.223  0.00  0.00    +0.210 S 
ATOM     18  C   LIG    1        2.838   5.542   0.105  0.00  0.00    +0.110 C 
ENDBRANCH   1  16
BRANCH   6  19
ATOM     19  C   LIG    1       -2.852  -1.675   2.358  0.00  0.00    +0.510 C 
ATOM     20  N   LIG    1       -4.036  -1.283   1.849  0.00  0.00    -0.660 N 
ATOM     21  H   LIG    1       -4.096  -0.458   1.341  0.00  0.00    +0.420 HD
ATOM     22  O   LIG    1       -2.757  -2.749   2.914  0.00  0.00    -0.460 OA
BRANCH  20  23
ATOM     23  C   LIG    1       -5.175  -2.061   2.051  0.00  0.00    +0.360 A 
ATOM     24  C   LIG    1       -6.412  -1.597   1.619  0.00  0.00    -0.070 A 
ATOM     25  C   LIG    1       -7.534  -2.382   1.822  0.00  0.00    +0.090 A 
ATOM     26  C   LIG    1       -7.380  -3.604   2.462  0.00  0.00    -0.060 A 
ATOM     27  C   LIG    1       -6.121  -4.000   2.870  0.00  0.00    +0.290 A 
ATOM     28  N   LIG    1       -5.069  -3.232   2.658  0.00  0.00    -0.480 NA
ENDBRANCH  20  23
ENDBRANCH   6  19
TORSDOF 3
