REMARK  Name = ZINCrH000004tey3.0
REMARK                            x       y       z     vdW  Elec       q    Type
REMARK                         _______ _______ _______ _____ _____    ______ ____
ROOT
ATOM      1  C   LIG    1        1.709   5.617   0.017  0.00  0.00    +0.210 A 
ATOM      2  N   LIG    1        0.698   5.434  -0.792  0.00  0.00    -0.360 NA
ATOM      3  O   LIG    1        0.474   4.248  -0.917  0.00  0.00    +0.110 OA
ATOM      4  C   LIG    1        1.332   3.539  -0.176  0.00  0.00    +0.200 A 
ATOM      5  N   LIG    1        2.124   4.395   0.420  0.00  0.00    -0.450 NA
ENDROOT
BRANCH   1  12
ATOM      6  F   LIG    1        3.899   5.817   1.779  0.00  0.00    -0.110 F 
ATOM      7  C   LIG    1        3.377   6.964   1.294  0.00  0.00    +0.120 A 
ATOM      8  C   LIG    1        3.917   8.182   1.664  0.00  0.00    +0.030 A 
ATOM      9  C   LIG    1        3.385   9.357   1.168  0.00  0.00    +0.010 A 
ATOM     10  C   LIG    1        2.305   9.322   0.296  0.00  0.00    +0.100 A 
ATOM     11  C   LIG    1        1.760   8.107  -0.085  0.00  0.00    +0.080 A 
ATOM     12  C   LIG    1        2.291   6.921   0.417  0.00  0.00    -0.020 A 
BRANCH  10  13
ATOM     13  O   LIG    1        1.786  10.481  -0.188  0.00  0.00    -0.310 OA
BRANCH  13  14
ATOM     14  C   LIG    1        2.400  11.697   0.242  0.00  0.00    +0.600 C 
ATOM     15  F   LIG    1        3.746  11.700  -0.139  0.00  0.00    -0.200 F 
ATOM     16  F   LIG    1        2.310  11.798   1.635  0.00  0.00    -0.200 F 
ENDBRANCH  13  14
ENDBRANCH  10  13
ENDBRANCH   1  12
BRANCH   4  17
ATOM     17  C   LIG    1        1.382   2.038  -0.055  0.00  0.00    +0.240 C 
ATOM     18  C   LIG    1        1.952   1.440  -1.344  0.00  0.00    +0.250 C 
ATOM     19  O   LIG    1        1.927   0.013  -1.253  0.00  0.00    -0.370 OA
ATOM     20  C   LIG    1        0.621  -0.528  -1.043  0.00  0.00    +0.240 C 
ATOM     21  C   LIG    1        0.036   0.050   0.249  0.00  0.00    +0.170 C 
ATOM     22  N   LIG    1        0.024   1.518   0.161  0.00  0.00    -0.520 NA
BRANCH  22  23
ATOM     23  C   LIG    1       -0.582   2.111   1.360  0.00  0.00    +0.160 C 
ATOM     24  C   LIG    1        0.221   1.708   2.614  0.00  0.00    -0.020 C 
ATOM     25  C   LIG    1       -0.859   1.504   3.707  0.00  0.00    +0.020 C 
ATOM     26  C   LIG    1       -2.022   0.848   2.921  0.00  0.00    +0.010 C 
ATOM     27  C   LIG    1       -2.008   1.566   1.556  0.00  0.00    +0.030 C 
ENDBRANCH  22  23
ENDBRANCH   4  17
TORSDOF 5
