REMARK  Name = ZINCqH0000007eG8.1
REMARK                            x       y       z     vdW  Elec       q    Type
REMARK                         _______ _______ _______ _____ _____    ______ ____
ROOT
ATOM      1  C   LIG    1       -2.527   3.881   0.048  0.00  0.00    +0.280 A 
ATOM      2  N   LIG    1       -3.719   3.327   0.057  0.00  0.00    -0.260 NA
ATOM      3  N   LIG    1       -4.655   4.373   0.072  0.00  0.00    -0.460 N 
ATOM      4  H   LIG    1       -5.622   4.287   0.081  0.00  0.00    +0.450 HD
ATOM      5  C   LIG    1       -3.946   5.524   0.071  0.00  0.00    +0.250 A 
ATOM      6  N   LIG    1       -2.668   5.214   0.062  0.00  0.00    -0.530 NA
ENDROOT
BRANCH   1  13
ATOM      7  C   LIG    1       -1.222   1.751   0.017  0.00  0.00    +0.170 A 
ATOM      8  C   LIG    1       -0.013   1.076   0.008  0.00  0.00    -0.050 A 
ATOM      9  C   LIG    1        1.175   1.782   0.000  0.00  0.00    +0.090 A 
ATOM     10  C   LIG    1        1.165   3.167   0.008  0.00  0.00    -0.080 A 
ATOM     11  C   LIG    1       -0.035   3.853   0.024  0.00  0.00    +0.120 A 
ATOM     12 CL   LIG    1        2.663   4.044  -0.002  0.00  0.00    -0.060 Cl
ATOM     13  C   LIG    1       -1.237   3.149   0.031  0.00  0.00    -0.040 A 
BRANCH   7  15
ATOM     14  C   LIG    1       -2.298  -0.369   0.011  0.00  0.00    +0.240 C 
ATOM     15  O   LIG    1       -2.390   1.057   0.019  0.00  0.00    -0.290 OA
ENDBRANCH   7  15
ENDBRANCH   1  13
BRANCH   5  16
ATOM     16  S   LIG    1       -4.616   7.153   0.086  0.00  0.00    +0.090 S 
BRANCH  16  17
ATOM     17  C   LIG    1       -3.087   8.122   0.076  0.00  0.00    +0.110 C 
BRANCH  17  18
ATOM     18  C   LIG    1       -3.423   9.591   0.087  0.00  0.00    +0.530 C 
ATOM     19  N   LIG    1       -2.436  10.508   0.082  0.00  0.00    -0.600 N 
ATOM     20  C   LIG    1       -1.027  10.092   0.072  0.00  0.00    +0.280 C 
ATOM     21  C   LIG    1       -0.299  10.771   1.231  0.00  0.00    -0.030 C 
ATOM     22  C   LIG    1       -0.508  12.284   1.145  0.00  0.00    +0.030 C 
ATOM     23  C   LIG    1       -2.001  12.602   1.257  0.00  0.00    -0.030 C 
ATOM     24  C   LIG    1       -2.205  14.118   1.203  0.00  0.00    +0.030 C 
ATOM     25  C   LIG    1        1.196  10.456   1.151  0.00  0.00    +0.030 C 
ATOM     26  C   LIG    1       -2.748  11.944   0.093  0.00  0.00    +0.290 C 
ATOM     27  O   LIG    1       -4.582   9.948   0.101  0.00  0.00    -0.520 OA
ENDBRANCH  17  18
ENDBRANCH  16  17
ENDBRANCH   5  16
TORSDOF 5
