REMARK  Name = ZINCqH0000007eG8.0
REMARK                            x       y       z     vdW  Elec       q    Type
REMARK                         _______ _______ _______ _____ _____    ______ ____
ROOT
ATOM      1  C   LIG    1       -6.207   2.376   0.045  0.00  0.00    +0.350 A 
ATOM      2  N   LIG    1       -5.386   1.344   0.035  0.00  0.00    -0.480 NA
ATOM      3  C   LIG    1       -4.123   1.775   0.031  0.00  0.00    +0.190 A 
ATOM      4  N   LIG    1       -4.118   3.088   0.044  0.00  0.00    -0.320 NA
ATOM      5  N   LIG    1       -5.460   3.503   0.048  0.00  0.00    -0.470 N 
ATOM      6  H   LIG    1       -5.786   4.416   0.055  0.00  0.00    +0.440 HD
ENDROOT
BRANCH   1  13
ATOM      7  C   LIG    1       -8.335   1.072   0.041  0.00  0.00    +0.190 A 
ATOM      8  C   LIG    1       -9.720   1.022   0.051  0.00  0.00    -0.050 A 
ATOM      9  C   LIG    1      -10.455   2.192   0.062  0.00  0.00    +0.100 A 
ATOM     10  C   LIG    1       -9.816   3.421   0.067  0.00  0.00    -0.080 A 
ATOM     11  C   LIG    1       -8.437   3.487   0.062  0.00  0.00    +0.090 A 
ATOM     12 CL   LIG    1      -10.752   4.883   0.080  0.00  0.00    -0.060 Cl
ATOM     13  C   LIG    1       -7.684   2.312   0.051  0.00  0.00    -0.070 A 
BRANCH   7  15
ATOM     14  C   LIG    1       -8.344  -1.304   0.015  0.00  0.00    +0.250 C 
ATOM     15  O   LIG    1       -7.612  -0.077   0.025  0.00  0.00    -0.270 OA
ENDBRANCH   7  15
ENDBRANCH   1  13
BRANCH   3  16
ATOM     16  S   LIG    1       -2.692   0.747   0.019  0.00  0.00    +0.110 S 
BRANCH  16  17
ATOM     17  C   LIG    1       -1.330   1.944   0.019  0.00  0.00    +0.080 C 
BRANCH  17  18
ATOM     18  C   LIG    1       -0.014   1.209   0.009  0.00  0.00    +0.540 C 
ATOM     19  N   LIG    1        1.143   1.898   0.001  0.00  0.00    -0.610 N 
ATOM     20  C   LIG    1        1.140   3.368   0.003  0.00  0.00    +0.280 C 
ATOM     21  C   LIG    1        1.988   3.869  -1.165  0.00  0.00    -0.030 C 
ATOM     22  C   LIG    1        3.382   3.243  -1.085  0.00  0.00    +0.030 C 
ATOM     23  C   LIG    1        3.267   1.721  -1.188  0.00  0.00    -0.030 C 
ATOM     24  C   LIG    1        4.664   1.099  -1.141  0.00  0.00    +0.030 C 
ATOM     25  C   LIG    1        2.107   5.393  -1.095  0.00  0.00    +0.030 C 
ATOM     26  C   LIG    1        2.433   1.195  -0.015  0.00  0.00    +0.290 C 
ATOM     27  O   LIG    1        0.002  -0.004   0.002  0.00  0.00    -0.520 OA
ENDBRANCH  17  18
ENDBRANCH  16  17
ENDBRANCH   3  16
TORSDOF 5
