REMARK  Name = ZINCpk000000ohX0.1
REMARK                            x       y       z     vdW  Elec       q    Type
REMARK                         _______ _______ _______ _____ _____    ______ ____
ROOT
ATOM      1  N   LIG    1       -0.020   1.094   2.454  0.00  0.00    -0.510 N 
ATOM      2  C   LIG    1       -0.359  -0.088   3.003  0.00  0.00    +0.710 A 
ATOM      3  N   LIG    1        0.271  -0.568   4.088  0.00  0.00    -0.650 N 
ATOM      4  H   LIG    1        0.003  -1.425   4.456  0.00  0.00    +0.440 HD
ATOM      5  C   LIG    1        1.266   0.126   4.678  0.00  0.00    +0.600 A 
ATOM      6  C   LIG    1        1.651   1.372   4.138  0.00  0.00    -0.140 A 
ATOM      7  N   LIG    1        2.596   2.322   4.470  0.00  0.00    -0.390 N 
ATOM      8  C   LIG    1        2.488   3.317   3.568  0.00  0.00    +0.290 A 
ATOM      9  N   LIG    1        1.541   3.035   2.711  0.00  0.00    -0.470 NA
ATOM     10  O   LIG    1        1.827  -0.318   5.663  0.00  0.00    -0.510 OA
ATOM     11  O   LIG    1       -1.256  -0.739   2.501  0.00  0.00    -0.530 OA
ATOM     12  C   LIG    1        0.994   1.854   3.013  0.00  0.00    +0.320 A 
ENDROOT
BRANCH   7  13
ATOM     13  C   LIG    1        3.538   2.260   5.591  0.00  0.00    +0.300 C 
ATOM     14  C   LIG    1        2.903   2.900   6.827  0.00  0.00    +0.060 C 
ENDBRANCH   7  13
BRANCH   1  15
ATOM     15  C   LIG    1       -0.729   1.579   1.267  0.00  0.00    +0.320 C 
BRANCH  15  16
ATOM     16  C   LIG    1       -0.013   1.086   0.008  0.00  0.00    +0.010 C 
BRANCH  16  18
ATOM     17  C   LIG    1       -0.037   1.099  -2.490  0.00  0.00    +0.010 C 
ATOM     18  C   LIG    1       -0.753   1.593  -1.232  0.00  0.00    +0.020 C 
ENDBRANCH  16  18
ENDBRANCH  15  16
ENDBRANCH   1  15
BRANCH   8  19
ATOM     19  C   LIG    1        3.332   4.566   3.549  0.00  0.00    +0.240 C 
BRANCH  19  20
ATOM     20  S   LIG    1        2.531   5.850   4.542  0.00  0.00    +0.040 S 
BRANCH  20  21
ATOM     21  C   LIG    1        3.697   7.157   4.350  0.00  0.00    +0.150 A 
ATOM     22  N   LIG    1        4.811   7.114   3.656  0.00  0.00    -0.280 NA
ATOM     23  N   LIG    1        5.418   8.244   3.734  0.00  0.00    -0.280 NA
ATOM     24  C   LIG    1        4.734   9.069   4.475  0.00  0.00    +0.200 A 
ATOM     25  C   LIG    1        5.108  10.490   4.809  0.00  0.00    +0.200 C 
ATOM     26  N   LIG    1        3.610   8.408   4.889  0.00  0.00    -0.570 N 
ATOM     27  H   LIG    1        2.900   8.756   5.452  0.00  0.00    +0.430 HD
ENDBRANCH  20  21
ENDBRANCH  19  20
ENDBRANCH   8  19
TORSDOF 7
