REMARK  Name = ZINCpe000000Ttlw.0
REMARK                            x       y       z     vdW  Elec       q    Type
REMARK                         _______ _______ _______ _____ _____    ______ ____
ROOT
ATOM      1  N   LIG    1       -0.951   6.029   1.175  0.00  0.00    -1.010 NA
ATOM      2  C   LIG    1       -1.559   5.272   0.071  0.00  0.00    +0.300 C 
ATOM      3  C   LIG    1       -1.738   3.817   0.518  0.00  0.00    +0.170 C 
ATOM      4  N   LIG    1       -0.451   3.294   0.996  0.00  0.00    -0.520 NA
ATOM      5  C   LIG    1        0.018   4.029   2.178  0.00  0.00    +0.180 C 
ATOM      6  C   LIG    1        0.268   5.493   1.798  0.00  0.00    +0.300 C 
ENDROOT
BRANCH   1   7
ATOM      7  S   LIG    1       -1.621   7.449   1.703  0.00  0.00    +2.780 S 
ATOM      8  O   LIG    1       -2.296   8.013   0.587  0.00  0.00    -0.970 OA
ATOM      9  O   LIG    1       -0.603   8.131   2.421  0.00  0.00    -0.970 OA
BRANCH   7  10
ATOM     10  N   LIG    1       -2.791   7.057   2.808  0.00  0.00    -1.010 NA
BRANCH  10  12
ATOM     11  C   LIG    1       -2.583   8.065   5.027  0.00  0.00    +0.020 C 
ATOM     12  C   LIG    1       -2.422   6.788   4.200  0.00  0.00    +0.270 C 
ENDBRANCH  10  12
BRANCH  10  13
ATOM     13  C   LIG    1       -4.194   6.981   2.394  0.00  0.00    +0.280 C 
ATOM     14  C   LIG    1       -4.559   5.525   2.096  0.00  0.00    +0.010 C 
ENDBRANCH  10  13
ENDBRANCH   7  10
ENDBRANCH   1   7
BRANCH   4  15
ATOM     15  C   LIG    1       -0.539   1.854   1.273  0.00  0.00    +0.200 C 
BRANCH  15  16
ATOM     16  C   LIG    1        0.842   1.305   1.521  0.00  0.00    +0.510 C 
ATOM     17  N   LIG    1        1.008  -0.004   1.797  0.00  0.00    -0.720 N 
ATOM     18  H   LIG    1        0.237  -0.592   1.840  0.00  0.00    +0.400 HD
ATOM     19  O   LIG    1        1.806   2.040   1.467  0.00  0.00    -0.520 OA
BRANCH  17  20
ATOM     20  C   LIG    1        2.351  -0.539   2.032  0.00  0.00    +0.240 C 
ATOM     21  C   LIG    1        3.002  -0.890   0.693  0.00  0.00    +0.010 C 
ATOM     22  C   LIG    1        2.154  -1.940  -0.027  0.00  0.00    +0.000 C 
ATOM     23  C   LIG    1        2.058  -3.198   0.839  0.00  0.00    +0.000 C 
ATOM     24  C   LIG    1        1.407  -2.847   2.178  0.00  0.00    +0.020 C 
ATOM     25  C   LIG    1        2.255  -1.797   2.898  0.00  0.00    -0.010 C 
ATOM     26  C   LIG    1        1.604  -1.446   4.237  0.00  0.00    +0.020 C 
ENDBRANCH  17  20
ENDBRANCH  15  16
ENDBRANCH   4  15
TORSDOF 7
