REMARK  Name = ZINCtV00000tRP1e.0
REMARK                            x       y       z     vdW  Elec       q    Type
REMARK                         _______ _______ _______ _____ _____    ______ ____
ROOT
ATOM      1  S   LIG    1       -1.129   1.728  -1.195  0.00  0.00    +2.660 S 
ATOM      2  O   LIG    1       -0.441   2.943  -1.461  0.00  0.00    -0.900 OA
ATOM      3  O   LIG    1       -2.442   1.682  -0.655  0.00  0.00    -0.940 OA
ENDROOT
BRANCH   1   9
ATOM      4  C   LIG    1        1.153   1.284   0.246  0.00  0.00    +0.230 A 
ATOM      5  C   LIG    1        1.958   0.554   1.107  0.00  0.00    -0.080 A 
ATOM      6  C   LIG    1        1.506  -0.644   1.625  0.00  0.00    +0.120 A 
ATOM      7  C   LIG    1        0.252  -1.117   1.284  0.00  0.00    -0.130 A 
ATOM      8  C   LIG    1       -0.553  -0.391   0.425  0.00  0.00    +0.150 A 
ATOM      9  C   LIG    1       -0.105   0.808  -0.095  0.00  0.00    -0.710 A 
BRANCH   7  10
ATOM     10  C   LIG    1       -0.239  -2.424   1.851  0.00  0.00    -0.020 C 
ATOM     11  C   LIG    1       -1.425  -2.164   2.781  0.00  0.00    +0.040 C 
ATOM     12  C   LIG    1        0.889  -3.095   2.638  0.00  0.00    +0.040 C 
ATOM     13  C   LIG    1       -0.679  -3.342   0.708  0.00  0.00    +0.020 C 
ENDBRANCH   7  10
BRANCH   4  14
ATOM     14  O   LIG    1        1.595   2.463  -0.265  0.00  0.00    -0.290 OA
BRANCH  14  16
ATOM     15  C   LIG    1        3.296   4.120  -0.717  0.00  0.00    +0.070 C 
ATOM     16  C   LIG    1        2.941   2.836   0.036  0.00  0.00    +0.190 C 
ENDBRANCH  14  16
ENDBRANCH   4  14
ENDBRANCH   1   9
BRANCH   1  17
ATOM     17  O   LIG    1       -1.177   0.964  -2.510  0.00  0.00    -0.640 OA
BRANCH  17  18
ATOM     18  C   LIG    1       -1.927  -0.168  -2.465  0.00  0.00    +0.130 A 
ATOM     19  C   LIG    1       -3.300  -0.092  -2.518  0.00  0.00    -0.050 A 
ATOM     20  C   LIG    1       -4.081  -1.245  -2.472  0.00  0.00    +0.120 A 
ATOM     21  C   LIG    1       -3.507  -2.477  -2.373  0.00  0.00    -0.050 A 
ATOM     22  C   LIG    1       -2.108  -2.594  -2.316  0.00  0.00    -0.070 A 
ATOM     23  C   LIG    1       -1.483  -3.850  -2.214  0.00  0.00    +0.100 A 
ATOM     24  C   LIG    1       -0.118  -3.891  -2.180  0.00  0.00    +0.000 A 
ATOM     25  C   LIG    1        0.614  -2.707  -2.230  0.00  0.00    +0.320 A 
ATOM     26  N   LIG    1        0.028  -1.537  -2.320  0.00  0.00    -0.450 NA
ATOM     27 BR   LIG    1       -4.591  -4.025  -2.313  0.00  0.00    -0.010 Br
ATOM     28 BR   LIG    1       -4.137   1.598  -2.655  0.00  0.00    +0.030 Br
ATOM     29  C   LIG    1       -1.303  -1.429  -2.368  0.00  0.00    +0.140 A 
ENDBRANCH  17  18
ENDBRANCH   1  17
TORSDOF 6
