REMARK  Name = ZINCrH000004qeXS.0
REMARK                            x       y       z     vdW  Elec       q    Type
REMARK                         _______ _______ _______ _____ _____    ______ ____
ROOT
ATOM      1  C   LIG    1       -2.753   1.466  -0.019  0.00  0.00    +0.170 C 
ATOM      2  C   LIG    1       -1.865   1.791   1.154  0.00  0.00    +0.190 A 
ATOM      3  C   LIG    1       -2.283   2.233   2.361  0.00  0.00    -0.080 A 
ATOM      4  C   LIG    1       -1.093   2.422   3.191  0.00  0.00    +0.540 A 
ATOM      5  N   LIG    1       -0.029   2.078   2.435  0.00  0.00    -0.360 N 
ATOM      6  O   LIG    1       -1.066   2.816   4.343  0.00  0.00    -0.510 OA
ATOM      7  N   LIG    1       -0.500   1.684   1.177  0.00  0.00    -0.390 N 
ATOM      8  C   LIG    1        0.336   1.235   0.061  0.00  0.00    +0.370 C 
ENDROOT
BRANCH   5   9
ATOM      9  C   LIG    1        1.309   2.108   2.838  0.00  0.00    +0.160 A 
ATOM     10  C   LIG    1        2.215   1.195   2.315  0.00  0.00    -0.020 A 
ATOM     11  C   LIG    1        3.538   1.232   2.711  0.00  0.00    +0.030 A 
ATOM     12  C   LIG    1        3.958   2.170   3.637  0.00  0.00    +0.000 A 
ATOM     13  C   LIG    1        3.058   3.077   4.164  0.00  0.00    +0.040 A 
ATOM     14  C   LIG    1        1.735   3.049   3.768  0.00  0.00    +0.020 A 
ENDBRANCH   5   9
BRANCH   3  15
ATOM     15  N   LIG    1       -3.617   2.473   2.747  0.00  0.00    -0.630 N 
ATOM     16  H   LIG    1       -4.155   3.116   2.259  0.00  0.00    +0.410 HD
ATOM     17  C   LIG    1       -4.146   1.809   3.794  0.00  0.00    +0.540 C 
ATOM     18  O   LIG    1       -3.503   0.942   4.350  0.00  0.00    -0.490 OA
BRANCH  17  19
ATOM     19  C   LIG    1       -5.535   2.142   4.275  0.00  0.00    +0.000 C 
ATOM     20  C   LIG    1       -5.485   3.399   5.146  0.00  0.00    +0.080 C 
BRANCH  19  21
ATOM     21  S   LIG    1       -6.187   0.757   5.248  0.00  0.00    -0.060 S 
BRANCH  21  22
ATOM     22  C   LIG    1       -7.869   1.212   5.508  0.00  0.00    -0.150 A 
ATOM     23  C   LIG    1       -8.212   2.023   6.582  0.00  0.00    +0.100 A 
ATOM     24  C   LIG    1       -9.531   2.383   6.781  0.00  0.00    -0.020 A 
ATOM     25  C   LIG    1      -10.511   1.928   5.916  0.00  0.00    +0.130 A 
ATOM     26  C   LIG    1      -10.172   1.115   4.847  0.00  0.00    -0.020 A 
ATOM     27  F   LIG    1      -11.801   2.277   6.115  0.00  0.00    -0.130 F 
ATOM     28  C   LIG    1       -8.855   0.757   4.641  0.00  0.00    +0.100 A 
ENDBRANCH  21  22
ENDBRANCH  19  21
ENDBRANCH  17  19
ENDBRANCH   3  15
TORSDOF 5
