REMARK  Name = ZINCpe00000gN5qf.0
REMARK                            x       y       z     vdW  Elec       q    Type
REMARK                         _______ _______ _______ _____ _____    ______ ____
ROOT
ATOM      1  C   LIG    1       -6.570   4.746  -0.206  0.00  0.00    +0.160 C 
ATOM      2  C   LIG    1       -5.998   3.832  -1.299  0.00  0.00    +0.320 C 
ATOM      3  N   LIG    1       -4.672   4.024  -0.692  0.00  0.00    -0.660 N 
ATOM      4  C   LIG    1       -3.526   3.318  -0.622  0.00  0.00    +0.740 C 
ATOM      5  N   LIG    1       -2.466   3.819   0.045  0.00  0.00    -0.670 N 
ATOM      6  H   LIG    1       -2.548   4.656   0.528  0.00  0.00    +0.410 HD
ATOM      7  O   LIG    1       -3.447   2.231  -1.160  0.00  0.00    -0.570 OA
ATOM      8  C   LIG    1       -5.149   5.321  -0.189  0.00  0.00    +0.260 C 
ENDROOT
BRANCH   5   9
ATOM      9  C   LIG    1       -1.245   3.129   0.039  0.00  0.00    +0.200 A 
ATOM     10  C   LIG    1       -1.230   1.743   0.030  0.00  0.00    +0.040 A 
ATOM     11  C   LIG    1       -0.025   1.064   0.030  0.00  0.00    +0.050 A 
ATOM     12  C   LIG    1        1.167   1.764   0.029  0.00  0.00    +0.020 A 
ATOM     13  C   LIG    1        1.161   3.147   0.033  0.00  0.00    -0.050 A 
ATOM     14 CL   LIG    1        2.661   4.022   0.032  0.00  0.00    -0.050 Cl
ATOM     15  C   LIG    1       -0.043   3.836   0.039  0.00  0.00    +0.060 A 
BRANCH  15  16
ATOM     16  N   LIG    1       -0.052   5.236   0.043  0.00  0.00    -0.490 N 
ATOM     17  C   LIG    1        0.551   5.770  -1.187  0.00  0.00    +0.170 C 
ATOM     18  C   LIG    1        0.467   7.299  -1.167  0.00  0.00    +0.230 C 
ATOM     19  O   LIG    1        1.112   7.792   0.010  0.00  0.00    -0.380 OA
ATOM     20  C   LIG    1        0.549   7.292   1.226  0.00  0.00    +0.230 C 
ATOM     21  C   LIG    1        0.634   5.763   1.231  0.00  0.00    +0.150 C 
ENDBRANCH  15  16
ENDBRANCH   5   9
BRANCH   1  22
ATOM     22  O   LIG    1       -7.568   5.658  -0.669  0.00  0.00    -0.340 OA
BRANCH  22  23
ATOM     23  C   LIG    1       -8.544   6.001   0.317  0.00  0.00    +0.220 C 
BRANCH  23  27
ATOM     24  N   LIG    1      -10.560   7.425   0.475  0.00  0.00    -0.850 N 
ATOM     25  H   LIG    1      -11.202   8.044   0.093  0.00  0.00    +0.410 HD
ATOM     26  H   LIG    1      -10.651   7.140   1.397  0.00  0.00    +0.400 HD
ATOM     27  C   LIG    1       -9.542   6.962  -0.277  0.00  0.00    +0.520 C 
ATOM     28  O   LIG    1       -9.428   7.319  -1.430  0.00  0.00    -0.520 OA
ENDBRANCH  23  27
ENDBRANCH  22  23
ENDBRANCH   1  22
TORSDOF 5
