REMARK  Name = ZINCpe000000TKSS.0
REMARK                            x       y       z     vdW  Elec       q    Type
REMARK                         _______ _______ _______ _____ _____    ______ ____
ROOT
ATOM      1  C   LIG    1        4.013   1.212   2.663  0.00  0.00    +0.270 C 
ENDROOT
BRANCH   1   2
ATOM      2  N   LIG    1        3.269   1.640   1.476  0.00  0.00    -0.710 N 
ATOM      3  H   LIG    1        3.652   2.298   0.875  0.00  0.00    +0.400 HD
ATOM      4  C   LIG    1        2.052   1.121   1.219  0.00  0.00    +0.500 C 
ATOM      5  O   LIG    1        1.573   0.298   1.971  0.00  0.00    -0.520 OA
BRANCH   4   6
ATOM      6  C   LIG    1        1.286   1.562  -0.002  0.00  0.00    +0.280 C 
BRANCH   6   7
ATOM      7  C   LIG    1        2.028   1.134  -1.242  0.00  0.00    -0.120 A 
ATOM      8  C   LIG    1        1.852  -0.140  -1.748  0.00  0.00    +0.020 A 
ATOM      9  C   LIG    1        2.529  -0.531  -2.888  0.00  0.00    +0.020 A 
ATOM     10  C   LIG    1        3.390   0.349  -3.516  0.00  0.00    +0.020 A 
ATOM     11  C   LIG    1        3.571   1.621  -3.007  0.00  0.00    +0.020 A 
ATOM     12  C   LIG    1        2.890   2.014  -1.870  0.00  0.00    +0.010 A 
ENDBRANCH   6   7
BRANCH   6  13
ATOM     13  O   LIG    1       -0.011   0.963   0.007  0.00  0.00    -0.530 OA
ATOM     14  H   LIG    1        0.002  -0.004   0.002  0.00  0.00    +0.380 HD
ENDBRANCH   6  13
ENDBRANCH   4   6
ENDBRANCH   1   2
BRANCH   1  15
ATOM     15  C   LIG    1        4.777  -0.049   2.348  0.00  0.00    +0.460 C 
ATOM     16  O   LIG    1        4.707  -0.538   1.246  0.00  0.00    -0.490 OA
BRANCH  15  17
ATOM     17  O   LIG    1        5.535  -0.627   3.293  0.00  0.00    -0.360 OA
BRANCH  17  19
ATOM     18  C   LIG    1        7.048  -2.349   4.117  0.00  0.00    +0.070 C 
ATOM     19  C   LIG    1        6.243  -1.839   2.919  0.00  0.00    +0.200 C 
ENDBRANCH  17  19
ENDBRANCH  15  17
ENDBRANCH   1  15
BRANCH   1  20
ATOM     20  C   LIG    1        4.992   2.312   3.075  0.00  0.00    +0.300 C 
BRANCH  20  21
ATOM     21  C   LIG    1        4.228   3.572   3.390  0.00  0.00    -0.180 A 
ATOM     22  C   LIG    1        3.951   3.916   4.704  0.00  0.00    +0.080 A 
ATOM     23  C   LIG    1        3.250   5.088   4.946  0.00  0.00    -0.020 A 
ATOM     24  C   LIG    1        2.844   5.863   3.876  0.00  0.00    +0.270 A 
ATOM     25  N   LIG    1        3.121   5.502   2.639  0.00  0.00    -0.480 NA
ATOM     26  C   LIG    1        3.790   4.398   2.371  0.00  0.00    +0.250 A 
ENDBRANCH  20  21
BRANCH  20  27
ATOM     27  O   LIG    1        5.905   2.563   2.006  0.00  0.00    -0.540 OA
ATOM     28  H   LIG    1        5.481   2.852   1.186  0.00  0.00    +0.370 HD
ENDBRANCH  20  27
ENDBRANCH   1  20
TORSDOF 10
