REMARK  Name = ZINCqH0000005gnV.0
REMARK                            x       y       z     vdW  Elec       q    Type
REMARK                         _______ _______ _______ _____ _____    ______ ____
ROOT
ATOM      1  C   LIG    1        1.541   1.544   0.184  0.00  0.00    -0.080 A 
ATOM      2  C   LIG    1        1.816   2.875  -0.133  0.00  0.00    +0.060 A 
ATOM      3  C   LIG    1        3.092   3.371   0.036  0.00  0.00    +0.120 A 
ATOM      4  C   LIG    1        4.100   2.550   0.507  0.00  0.00    -0.660 A 
ATOM      5  C   LIG    1        3.836   1.228   0.818  0.00  0.00    +0.130 A 
ATOM      6  C   LIG    1        2.562   0.720   0.659  0.00  0.00    +0.030 A 
ENDROOT
BRANCH   1   9
ATOM      7  C   LIG    1        0.558  -0.437   1.937  0.00  0.00    +0.300 C 
ATOM      8  N   LIG    1       -0.271   0.025   0.821  0.00  0.00    -0.600 N 
ATOM      9  C   LIG    1        0.174   1.007   0.012  0.00  0.00    +0.560 C 
ATOM     10  O   LIG    1       -0.550   1.455  -0.855  0.00  0.00    -0.520 OA
BRANCH   8  11
ATOM     11  C   LIG    1       -1.583  -0.582   0.583  0.00  0.00    +0.350 C 
BRANCH  11  12
ATOM     12  C   LIG    1       -1.454  -1.669  -0.453  0.00  0.00    -0.100 A 
ATOM     13  C   LIG    1       -1.760  -1.405  -1.774  0.00  0.00    +0.080 A 
ATOM     14  C   LIG    1       -1.636  -2.400  -2.725  0.00  0.00    +0.030 A 
ATOM     15  C   LIG    1       -1.217  -3.665  -2.353  0.00  0.00    -0.020 A 
ATOM     16  C   LIG    1       -0.916  -3.932  -1.029  0.00  0.00    +0.040 A 
ATOM     17 CL   LIG    1       -1.068  -4.916  -3.547  0.00  0.00    -0.050 Cl
ATOM     18  C   LIG    1       -1.035  -2.934  -0.079  0.00  0.00    -0.010 A 
ATOM     19 CL   LIG    1       -0.659  -3.268   1.583  0.00  0.00    -0.050 Cl
ENDBRANCH  11  12
ENDBRANCH   8  11
ENDBRANCH   1   9
BRANCH   4  20
ATOM     20  S   LIG    1        5.729   3.190   0.713  0.00  0.00    +2.700 S 
ATOM     21  O   LIG    1        6.366   2.364   1.678  0.00  0.00    -0.950 OA
ATOM     22  O   LIG    1        5.591   4.596   0.864  0.00  0.00    -0.950 OA
BRANCH  20  23
ATOM     23  N   LIG    1        6.534   2.949  -0.714  0.00  0.00    -1.090 NA
ATOM     24  H   LIG    1        7.296   2.349  -0.745  0.00  0.00    +0.420 HD
BRANCH  23  25
ATOM     25  C   LIG    1        6.096   3.641  -1.928  0.00  0.00    +0.220 C 
ATOM     26  C   LIG    1        6.256   2.903  -3.259  0.00  0.00    +0.010 C 
ATOM     27  C   LIG    1        7.176   4.079  -2.920  0.00  0.00    +0.030 C 
ENDBRANCH  23  25
ENDBRANCH  20  23
ENDBRANCH   4  20
TORSDOF 6
