REMARK  Name = ZINCvU00000003My.0
REMARK                            x       y       z     vdW  Elec       q    Type
REMARK                         _______ _______ _______ _____ _____    ______ ____
ROOT
ATOM      1  C   LIG    1        2.180   1.870   4.518  0.00  0.00    +0.210 C 
ATOM      2  C   LIG    1        1.004   2.404   5.295  0.00  0.00    +0.150 A 
ATOM      3  N   LIG    1        1.019   2.811   6.528  0.00  0.00    -0.260 NA
ATOM      4  O   LIG    1       -0.275   3.239   6.904  0.00  0.00    -0.070 OA
ATOM      5  C   LIG    1       -1.117   3.090   5.862  0.00  0.00    +0.310 A 
ATOM      6  N   LIG    1       -2.406   3.340   5.701  0.00  0.00    -0.460 NA
ATOM      7  C   LIG    1       -3.028   3.105   4.556  0.00  0.00    +0.250 A 
ATOM      8  C   LIG    1       -2.349   2.580   3.453  0.00  0.00    -0.010 A 
ATOM      9  C   LIG    1       -0.991   2.298   3.566  0.00  0.00    +0.010 A 
ATOM     10  C   LIG    1       -0.363   2.554   4.802  0.00  0.00    -0.210 A 
ENDROOT
BRANCH   9  11
ATOM     11  C   LIG    1       -0.230   1.741   2.425  0.00  0.00    +0.580 C 
ATOM     12  N   LIG    1       -0.335   2.305   1.205  0.00  0.00    -0.610 N 
ATOM     13  C   LIG    1       -1.239   3.410   0.842  0.00  0.00    +0.250 C 
ATOM     14  C   LIG    1       -0.990   3.736  -0.646  0.00  0.00    +0.070 C 
ATOM     15  C   LIG    1        0.438   3.181  -0.889  0.00  0.00    -0.030 C 
ATOM     16  C   LIG    1        0.439   1.920   0.011  0.00  0.00    +0.310 C 
ATOM     17  O   LIG    1        0.489   0.775   2.587  0.00  0.00    -0.500 OA
BRANCH  15  18
ATOM     18  C   LIG    1        0.639   2.805  -2.359  0.00  0.00    +0.470 C 
ATOM     19  F   LIG    1        1.879   2.177  -2.515  0.00  0.00    -0.180 F 
ATOM     20  F   LIG    1        0.600   3.962  -3.145  0.00  0.00    -0.180 F 
ATOM     21  F   LIG    1       -0.380   1.934  -2.761  0.00  0.00    -0.180 F 
ENDBRANCH  15  18
ENDBRANCH   9  11
BRANCH   7  22
ATOM     22  C   LIG    1       -4.475   3.407   4.441  0.00  0.00    -0.060 A 
ATOM     23  C   LIG    1       -5.169   3.071   3.280  0.00  0.00    +0.080 A 
ATOM     24  C   LIG    1       -6.516   3.355   3.178  0.00  0.00    +0.030 A 
ATOM     25  C   LIG    1       -7.177   3.970   4.226  0.00  0.00    +0.100 A 
ATOM     26  C   LIG    1       -6.493   4.306   5.381  0.00  0.00    -0.190 A 
ATOM     27  C   LIG    1       -5.147   4.022   5.496  0.00  0.00    +0.130 A 
BRANCH  26  28
ATOM     28  C   LIG    1       -7.220   4.976   6.518  0.00  0.00    +0.510 C 
ATOM     29  F   LIG    1       -6.637   6.222   6.774  0.00  0.00    -0.170 F 
ATOM     30  F   LIG    1       -7.134   4.177   7.662  0.00  0.00    -0.170 F 
ATOM     31  F   LIG    1       -8.564   5.153   6.172  0.00  0.00    -0.180 F 
ENDBRANCH  26  28
ENDBRANCH   7  22
TORSDOF 4
