REMARK  Name = ZINCtV000002NTs9.0
REMARK                            x       y       z     vdW  Elec       q    Type
REMARK                         _______ _______ _______ _____ _____    ______ ____
ROOT
ATOM      1  C   LIG    1       -0.570  -0.723   1.059  0.00  0.00    +0.170 A 
ATOM      2  C   LIG    1       -0.554  -2.109   1.049  0.00  0.00    +0.090 A 
ATOM      3  C   LIG    1        0.052  -2.786   0.007  0.00  0.00    -0.170 A 
ATOM      4  C   LIG    1        0.638  -2.085  -1.030  0.00  0.00    +0.060 A 
ATOM      5  C   LIG    1        0.622  -0.702  -1.032  0.00  0.00    +0.010 A 
ATOM      6  C   LIG    1        0.016  -0.015   0.010  0.00  0.00    +0.090 A 
ENDROOT
BRANCH   6   7
ATOM      7  N   LIG    1       -0.002   1.384   0.011  0.00  0.00    -0.500 N 
ATOM      8  C   LIG    1       -0.783   1.901  -1.121  0.00  0.00    +0.180 C 
ATOM      9  C   LIG    1       -0.903   3.422  -1.006  0.00  0.00    +0.020 C 
ATOM     10  C   LIG    1        0.498   4.041  -1.004  0.00  0.00    +0.010 C 
ATOM     11  C   LIG    1        1.306   3.450   0.155  0.00  0.00    +0.020 C 
ATOM     12  C   LIG    1        1.362   1.928   0.007  0.00  0.00    +0.180 C 
ENDBRANCH   6   7
BRANCH   1  15
ATOM     13  O   LIG    1       -2.691  -1.640   2.382  0.00  0.00    -0.520 OA
ATOM     14  C   LIG    1       -2.276  -0.545   2.710  0.00  0.00    +0.560 C 
ATOM     15  N   LIG    1       -1.178  -0.035   2.117  0.00  0.00    -0.650 N 
ATOM     16  H   LIG    1       -0.810   0.808   2.423  0.00  0.00    +0.420 HD
BRANCH  14  17
ATOM     17  C   LIG    1       -2.975   0.226   3.759  0.00  0.00    -0.140 A 
ATOM     18  C   LIG    1       -4.106  -0.301   4.361  0.00  0.00    +0.120 A 
ATOM     19  C   LIG    1       -4.761   0.434   5.360  0.00  0.00    -0.070 A 
ATOM     20  C   LIG    1       -5.909  -0.069   5.998  0.00  0.00    +0.040 A 
ATOM     21  C   LIG    1       -6.525   0.672   6.959  0.00  0.00    +0.010 A 
ATOM     22  C   LIG    1       -6.035   1.925   7.322  0.00  0.00    +0.030 A 
ATOM     23  C   LIG    1       -4.926   2.445   6.725  0.00  0.00    +0.020 A 
ATOM     24  C   LIG    1       -4.263   1.710   5.729  0.00  0.00    -0.030 A 
ATOM     25  C   LIG    1       -3.115   2.220   5.094  0.00  0.00    +0.020 A 
ATOM     26  C   LIG    1       -2.490   1.492   4.134  0.00  0.00    +0.040 A 
ENDBRANCH  14  17
ENDBRANCH   1  15
BRANCH   3  27
ATOM     27  C   LIG    1        0.074  -4.293   0.001  0.00  0.00    +0.510 C 
ATOM     28  F   LIG    1       -1.239  -4.778   0.004  0.00  0.00    -0.170 F 
ATOM     29  F   LIG    1        0.743  -4.754   1.140  0.00  0.00    -0.180 F 
ATOM     30  F   LIG    1        0.736  -4.746  -1.145  0.00  0.00    -0.180 F 
ENDBRANCH   3  27
TORSDOF 4
