REMARK  Name = ZINCvU00000007Rv.0
REMARK                            x       y       z     vdW  Elec       q    Type
REMARK                         _______ _______ _______ _____ _____    ______ ____
ROOT
ATOM      1  O   LIG    1        0.124   0.157   0.908  0.00  0.00    -0.560 OA
ATOM      2  C   LIG    1        0.041   1.334   0.613  0.00  0.00    +0.710 C 
ATOM      3  N   LIG    1       -1.156   1.953   0.641  0.00  0.00    -0.620 N 
ATOM      4  C   LIG    1       -1.291   3.343   0.185  0.00  0.00    +0.270 C 
ATOM      5  C   LIG    1       -1.955   4.166   1.286  0.00  0.00    +0.030 C 
ATOM      6  C   LIG    1       -3.276   3.505   1.688  0.00  0.00    +0.050 C 
ATOM      7  C   LIG    1       -3.001   2.101   2.231  0.00  0.00    -0.020 C 
ATOM      8  C   LIG    1       -2.349   1.252   1.135  0.00  0.00    +0.320 C 
ATOM      9  N   LIG    1        1.145   2.017   0.252  0.00  0.00    -0.680 N 
ATOM     10  H   LIG    1        1.063   2.911  -0.116  0.00  0.00    +0.410 HD
ENDROOT
BRANCH   7  11
ATOM     11  C   LIG    1       -4.298   1.463   2.657  0.00  0.00    +0.530 C 
ATOM     12  N   LIG    1       -4.291   0.451   3.547  0.00  0.00    -0.610 N 
ATOM     13  C   LIG    1       -3.035  -0.004   4.163  0.00  0.00    +0.290 C 
ATOM     14  C   LIG    1       -3.105   0.286   5.671  0.00  0.00    +0.110 C 
ATOM     15  C   LIG    1       -4.454  -0.157   6.197  0.00  0.00    -0.170 A 
ATOM     16  C   LIG    1       -5.543  -0.386   5.440  0.00  0.00    -0.110 A 
ATOM     17  C   LIG    1       -6.662  -0.777   6.169  0.00  0.00    +0.020 A 
ATOM     18  C   LIG    1       -6.488  -0.869   7.484  0.00  0.00    -0.040 A 
ATOM     19  S   LIG    1       -4.831  -0.448   7.891  0.00  0.00    +0.110 S 
ATOM     20  C   LIG    1       -5.537  -0.231   3.924  0.00  0.00    +0.410 C 
ATOM     21  O   LIG    1       -5.348   1.860   2.198  0.00  0.00    -0.520 OA
BRANCH  20  22
ATOM     22  C   LIG    1       -5.594  -1.588   3.271  0.00  0.00    -0.190 A 
ATOM     23  C   LIG    1       -6.687  -2.143   2.744  0.00  0.00    +0.020 A 
ATOM     24  C   LIG    1       -6.496  -3.400   2.196  0.00  0.00    +0.000 A 
ATOM     25  C   LIG    1       -5.250  -3.869   2.285  0.00  0.00    -0.060 A 
ATOM     26  S   LIG    1       -4.231  -2.685   3.094  0.00  0.00    +0.120 S 
ENDBRANCH  20  22
ENDBRANCH   7  11
BRANCH   9  27
ATOM     27  C   LIG    1        2.409   1.438   0.407  0.00  0.00    +0.160 A 
ATOM     28  C   LIG    1        2.538   0.057   0.474  0.00  0.00    +0.030 A 
ATOM     29  C   LIG    1        3.787  -0.513   0.622  0.00  0.00    +0.020 A 
ATOM     30  C   LIG    1        4.908   0.291   0.715  0.00  0.00    -0.020 A 
ATOM     31  C   LIG    1        4.783   1.667   0.653  0.00  0.00    +0.030 A 
ATOM     32  C   LIG    1        3.537   2.242   0.500  0.00  0.00    -0.040 A 
ENDBRANCH   9  27
TORSDOF 3
