REMARK  Name = ZINCb70000001NRN.0
REMARK                            x       y       z     vdW  Elec       q    Type
REMARK                         _______ _______ _______ _____ _____    ______ ____
ROOT
ATOM      1  C   LIG    1       -0.013   1.086   0.008  0.00  0.00    +0.000 C 
ATOM      2  C   LIG    1       -0.733   1.581   1.266  0.00  0.00    +0.080 C 
ATOM      3  C   LIG    1       -2.190   1.111   1.229  0.00  0.00    +0.270 C 
ATOM      4  N   LIG    1       -2.854   1.652   0.036  0.00  0.00    -0.510 N 
ATOM      5  C   LIG    1       -2.212   1.124  -1.173  0.00  0.00    +0.260 C 
ATOM      6  H   LIG    1       -3.826   1.384   0.044  0.00  0.00    +0.430 HD
ATOM      7  H   LIG    1       -2.784   2.659   0.041  0.00  0.00    +0.430 HD
ATOM      8  C   LIG    1       -0.756   1.595  -1.230  0.00  0.00    +0.090 C 
ENDROOT
BRANCH   1  11
ATOM      9  N   LIG    1        2.245   1.290   0.998  0.00  0.00    -0.730 N 
ATOM     10  H   LIG    1        1.943   0.724   1.726  0.00  0.00    +0.400 HD
ATOM     11  C   LIG    1        1.401   1.609  -0.003  0.00  0.00    +0.510 C 
ATOM     12  O   LIG    1        1.778   2.317  -0.912  0.00  0.00    -0.530 OA
BRANCH   9  14
ATOM     13  C   LIG    1        4.359   1.293   2.228  0.00  0.00    +0.030 C 
ATOM     14  C   LIG    1        3.619   1.799   0.988  0.00  0.00    +0.250 C 
ENDBRANCH   9  14
ENDBRANCH   1  11
TORSDOF 2
