REMARK  Name = ZINCrg000000sEf9.0
REMARK                            x       y       z     vdW  Elec       q    Type
REMARK                         _______ _______ _______ _____ _____    ______ ____
ROOT
ATOM      1  N   LIG    1       -0.019  -2.288  -1.503  0.00  0.00    -0.510 N 
ATOM      2  C   LIG    1       -1.309  -1.767  -1.071  0.00  0.00    +0.270 C 
ATOM      3  C   LIG    1       -1.156  -0.921   0.195  0.00  0.00    +0.320 C 
ATOM      4  N   LIG    1       -0.022  -0.003  -0.000  0.00  0.00    -0.640 N 
ATOM      5  C   LIG    1        1.301  -0.603  -0.226  0.00  0.00    +0.330 C 
ATOM      6  C   LIG    1       -0.191   1.334   0.022  0.00  0.00    +0.710 C 
ATOM      7  N   LIG    1        0.867   2.150  -0.160  0.00  0.00    -0.750 N 
ATOM      8  H   LIG    1        1.749   1.775  -0.306  0.00  0.00    +0.390 HD
ATOM      9  O   LIG    1       -1.298   1.805   0.200  0.00  0.00    -0.580 OA
ATOM     10  C   LIG    1        1.160  -1.760  -1.171  0.00  0.00    +0.510 C 
ATOM     11  O   LIG    1        2.165  -2.236  -1.657  0.00  0.00    -0.530 OA
ENDROOT
BRANCH   1  15
ATOM     12  C   LIG    1       -1.522  -6.022  -4.344  0.00  0.00    +0.370 C 
ATOM     13  N   LIG    1       -0.677  -5.091  -3.593  0.00  0.00    -0.370 N 
ATOM     14  C   LIG    1       -1.110  -4.030  -2.863  0.00  0.00    +0.210 A 
ATOM     15  C   LIG    1       -0.017  -3.428  -2.329  0.00  0.00    -0.010 A 
ATOM     16  C   LIG    1        1.116  -4.139  -2.751  0.00  0.00    +0.270 A 
ATOM     17  N   LIG    1        0.720  -5.136  -3.501  0.00  0.00    -0.290 NA
ENDBRANCH   1  15
BRANCH   7  18
ATOM     18  C   LIG    1        0.683   3.603  -0.136  0.00  0.00    +0.290 C 
BRANCH  18  19
ATOM     19  C   LIG    1        2.031   4.291  -0.366  0.00  0.00    +0.000 C 
BRANCH  19  20
ATOM     20  C   LIG    1        1.839   5.809  -0.341  0.00  0.00    +0.180 C 
ATOM     21  C   LIG    1        1.276   6.230   1.018  0.00  0.00    +0.070 C 
BRANCH  20  22
ATOM     22  C   LIG    1        3.166   6.487  -0.567  0.00  0.00    -0.120 A 
ATOM     23  C   LIG    1        4.334   5.877  -0.148  0.00  0.00    +0.010 A 
ATOM     24  C   LIG    1        5.551   6.496  -0.359  0.00  0.00    +0.000 A 
ATOM     25  C   LIG    1        5.601   7.730  -0.982  0.00  0.00    +0.000 A 
ATOM     26  C   LIG    1        4.433   8.342  -1.396  0.00  0.00    +0.000 A 
ATOM     27  C   LIG    1        3.215   7.720  -1.189  0.00  0.00    +0.030 A 
ENDBRANCH  20  22
BRANCH  20  28
ATOM     28  O   LIG    1        0.927   6.191  -1.373  0.00  0.00    -0.550 OA
ATOM     29  H   LIG    1        1.220   5.955  -2.264  0.00  0.00    +0.380 HD
ENDBRANCH  20  28
ENDBRANCH  19  20
ENDBRANCH  18  19
ENDBRANCH   7  18
TORSDOF 6
