REMARK  Name = ZINCpk00000y6xlm.0
REMARK                            x       y       z     vdW  Elec       q    Type
REMARK                         _______ _______ _______ _____ _____    ______ ____
ROOT
ATOM      1  C   LIG    1       -2.832   0.933   3.662  0.00  0.00    +0.580 C 
ATOM      2  N   LIG    1       -3.319   0.879   2.407  0.00  0.00    -0.620 N 
ATOM      3  C   LIG    1       -4.301   1.810   1.828  0.00  0.00    +0.260 C 
ATOM      4  C   LIG    1       -4.566   1.343   0.371  0.00  0.00    +0.010 C 
ATOM      5  C   LIG    1       -5.763   0.395   0.425  0.00  0.00    +0.210 C 
ATOM      6  O   LIG    1       -5.819  -0.426  -0.739  0.00  0.00    -0.370 OA
ATOM      7  C   LIG    1       -4.685  -1.292  -0.866  0.00  0.00    +0.230 C 
ATOM      8  C   LIG    1       -3.447  -0.420  -1.084  0.00  0.00    +0.030 C 
ATOM      9  C   LIG    1       -3.272   0.570   0.046  0.00  0.00    -0.090 C 
ATOM     10  C   LIG    1       -2.958  -0.121   1.386  0.00  0.00    +0.300 C 
ATOM     11  O   LIG    1       -2.089   0.058   4.064  0.00  0.00    -0.510 OA
ENDROOT
BRANCH   1  18
ATOM     12  C   LIG    1       -2.210   2.739   5.265  0.00  0.00    +0.110 A 
ATOM     13  C   LIG    1       -2.568   3.792   6.097  0.00  0.00    +0.080 A 
ATOM     14  C   LIG    1       -3.895   4.158   6.217  0.00  0.00    +0.030 A 
ATOM     15  C   LIG    1       -4.875   3.481   5.510  0.00  0.00    +0.050 A 
ATOM     16  C   LIG    1       -4.537   2.438   4.676  0.00  0.00    +0.050 A 
ATOM     17  F   LIG    1       -1.618   4.457   6.790  0.00  0.00    -0.130 F 
ATOM     18  C   LIG    1       -3.200   2.053   4.549  0.00  0.00    -0.120 A 
BRANCH  12  19
ATOM     19  O   LIG    1       -0.907   2.377   5.145  0.00  0.00    -0.320 OA
BRANCH  19  21
ATOM     20  C   LIG    1        1.286   2.485   4.137  0.00  0.00    +0.070 C 
ATOM     21  C   LIG    1       -0.148   3.017   4.118  0.00  0.00    +0.180 C 
ENDBRANCH  19  21
ENDBRANCH  12  19
ENDBRANCH   1  18
BRANCH   9  22
ATOM     22  C   LIG    1       -2.171   1.541  -0.296  0.00  0.00    +0.530 C 
ATOM     23  N   LIG    1       -0.925   1.089  -0.540  0.00  0.00    -0.730 N 
ATOM     24  H   LIG    1       -0.737   0.139  -0.495  0.00  0.00    +0.400 HD
ATOM     25  C   LIG    1        0.143   2.033  -0.878  0.00  0.00    +0.290 C 
ATOM     26  O   LIG    1       -2.407   2.729  -0.351  0.00  0.00    -0.530 OA
ENDBRANCH   9  22
TORSDOF 4
