REMARK  Name = ZINCtV00000vogC9.0
REMARK                            x       y       z     vdW  Elec       q    Type
REMARK                         _______ _______ _______ _____ _____    ______ ____
ROOT
ATOM      1  C   LIG    1        0.260  -3.013  -0.627  0.00  0.00    +0.130 C 
ATOM      2  C   LIG    1        1.449  -2.088  -0.568  0.00  0.00    +0.000 A 
ATOM      3  C   LIG    1        1.316  -0.756  -0.544  0.00  0.00    -0.230 A 
ATOM      4  S   LIG    1        2.888   0.022  -0.483  0.00  0.00    +0.200 S 
ATOM      5  C   LIG    1        3.715  -1.532  -0.480  0.00  0.00    +0.080 A 
ATOM      6  N   LIG    1        5.016  -1.815  -0.442  0.00  0.00    -0.430 NA
ATOM      7  C   LIG    1        5.462  -3.061  -0.454  0.00  0.00    +0.260 A 
ATOM      8  C   LIG    1        4.570  -4.141  -0.506  0.00  0.00    +0.040 A 
ATOM      9  C   LIG    1        3.230  -3.906  -0.546  0.00  0.00    -0.080 A 
ATOM     10  C   LIG    1        2.766  -2.565  -0.534  0.00  0.00    -0.100 A 
ENDROOT
BRANCH   7  11
ATOM     11  C   LIG    1        6.914  -3.317  -0.411  0.00  0.00    -0.180 A 
ATOM     12  C   LIG    1        7.872  -2.366  -0.364  0.00  0.00    +0.080 A 
ATOM     13  C   LIG    1        9.161  -2.850  -0.325  0.00  0.00    +0.010 A 
ATOM     14  C   LIG    1        9.268  -4.183  -0.350  0.00  0.00    -0.020 A 
ATOM     15  S   LIG    1        7.666  -4.907  -0.419  0.00  0.00    +0.150 S 
ENDBRANCH   7  11
BRANCH   9  16
ATOM     16  C   LIG    1        2.254  -5.052  -0.602  0.00  0.00    +0.510 C 
ATOM     17  F   LIG    1        1.375  -4.864  -1.675  0.00  0.00    -0.160 F 
ATOM     18  F   LIG    1        1.526  -5.104   0.592  0.00  0.00    -0.160 F 
ATOM     19  F   LIG    1        2.952  -6.252  -0.775  0.00  0.00    -0.170 F 
ENDBRANCH   9  16
BRANCH   3  20
ATOM     20  C   LIG    1        0.032  -0.044  -0.572  0.00  0.00    +0.590 C 
ATOM     21  N   LIG    1        0.008   1.303  -0.545  0.00  0.00    -0.720 N 
ATOM     22  H   LIG    1        0.839   1.802  -0.507  0.00  0.00    +0.400 HD
ATOM     23  O   LIG    1       -1.010  -0.671  -0.620  0.00  0.00    -0.510 OA
BRANCH  21  24
ATOM     24  C   LIG    1       -1.273   2.013  -0.579  0.00  0.00    +0.260 C 
BRANCH  24  25
ATOM     25  C   LIG    1       -1.021   3.522  -0.538  0.00  0.00    -0.020 C 
ATOM     26  C   LIG    1       -0.386   3.896   0.803  0.00  0.00    +0.010 C 
ATOM     27  C   LIG    1       -0.134   5.404   0.844  0.00  0.00    +0.000 C 
ATOM     28  C   LIG    1       -1.461   6.148   0.683  0.00  0.00    +0.000 C 
ATOM     29  C   LIG    1       -2.096   5.774  -0.657  0.00  0.00    +0.000 C 
ATOM     30  C   LIG    1       -2.348   4.265  -0.699  0.00  0.00    +0.030 C 
ENDBRANCH  24  25
ENDBRANCH  21  24
ENDBRANCH   3  20
TORSDOF 5
