REMARK  Name = ZINCqH0000050M10.1
REMARK                            x       y       z     vdW  Elec       q    Type
REMARK                         _______ _______ _______ _____ _____    ______ ____
ROOT
ATOM      1  C   LIG    1        4.240   2.962  -1.754  0.00  0.00    +0.160 C 
ATOM      2  C   LIG    1        3.669   1.637  -2.187  0.00  0.00    -0.000 A 
ATOM      3  C   LIG    1        2.915   0.810  -1.442  0.00  0.00    +0.020 A 
ATOM      4  N   LIG    1        2.610  -0.267  -2.185  0.00  0.00    -0.480 NA
ATOM      5  C   LIG    1        3.143  -0.138  -3.377  0.00  0.00    +0.180 A 
ATOM      6  N   LIG    1        3.819   1.043  -3.420  0.00  0.00    -0.550 N 
ATOM      7  H   LIG    1        4.313   1.398  -4.175  0.00  0.00    +0.420 HD
ENDROOT
BRANCH   5   8
ATOM      8  S   LIG    1        3.011  -1.298  -4.697  0.00  0.00    +0.060 S 
BRANCH   8   9
ATOM      9  C   LIG    1        1.991  -2.564  -3.901  0.00  0.00    +0.120 C 
BRANCH   9  10
ATOM     10  C   LIG    1        1.742  -3.691  -4.871  0.00  0.00    +0.530 C 
ATOM     11  N   LIG    1        1.001  -4.752  -4.495  0.00  0.00    -0.720 N 
ATOM     12  H   LIG    1        0.628  -4.791  -3.600  0.00  0.00    +0.400 HD
ATOM     13  O   LIG    1        2.208  -3.642  -5.990  0.00  0.00    -0.520 OA
BRANCH  11  14
ATOM     14  C   LIG    1        0.759  -5.847  -5.438  0.00  0.00    +0.260 C 
BRANCH  14  15
ATOM     15  C   LIG    1       -0.103  -6.917  -4.766  0.00  0.00    +0.070 C 
BRANCH  15  16
ATOM     16  C   LIG    1       -0.353  -8.043  -5.735  0.00  0.00    -0.090 A 
ATOM     17  C   LIG    1       -1.459  -8.010  -6.564  0.00  0.00    +0.010 A 
ATOM     18  C   LIG    1       -1.685  -9.041  -7.457  0.00  0.00    +0.000 A 
ATOM     19  C   LIG    1       -0.811 -10.110  -7.513  0.00  0.00    +0.000 A 
ATOM     20  C   LIG    1        0.292 -10.146  -6.681  0.00  0.00    +0.000 A 
ATOM     21  C   LIG    1        0.521  -9.113  -5.792  0.00  0.00    +0.010 A 
ENDBRANCH  15  16
ENDBRANCH  14  15
ENDBRANCH  11  14
ENDBRANCH   9  10
ENDBRANCH   8   9
ENDBRANCH   5   8
BRANCH   3  22
ATOM     22  C   LIG    1        2.490   1.048  -0.016  0.00  0.00    +0.180 C 
BRANCH  22  23
ATOM     23  C   LIG    1        1.175   1.783   0.000  0.00  0.00    -0.070 A 
ATOM     24  C   LIG    1       -0.013   1.076   0.008  0.00  0.00    +0.010 A 
ATOM     25  C   LIG    1       -1.219   1.751   0.017  0.00  0.00    +0.000 A 
ATOM     26  C   LIG    1       -1.238   3.133   0.030  0.00  0.00    +0.000 A 
ATOM     27  C   LIG    1       -0.050   3.840   0.022  0.00  0.00    +0.000 A 
ATOM     28  C   LIG    1        1.156   3.165   0.008  0.00  0.00    +0.000 A 
ENDBRANCH  22  23
ENDBRANCH   3  22
TORSDOF 8
