REMARK  Name = ZINCqH0000050M10.0
REMARK                            x       y       z     vdW  Elec       q    Type
REMARK                         _______ _______ _______ _____ _____    ______ ____
ROOT
ATOM      1  C   LIG    1       -2.598   5.720  -1.766  0.00  0.00    +0.140 C 
ATOM      2  C   LIG    1       -1.176   6.018  -2.165  0.00  0.00    +0.020 A 
ATOM      3  C   LIG    1       -0.091   5.856  -1.389  0.00  0.00    -0.000 A 
ATOM      4  N   LIG    1        0.999   6.238  -2.138  0.00  0.00    -0.550 N 
ATOM      5  H   LIG    1        1.926   6.231  -1.853  0.00  0.00    +0.420 HD
ATOM      6  C   LIG    1        0.529   6.627  -3.354  0.00  0.00    +0.180 A 
ATOM      7  N   LIG    1       -0.777   6.493  -3.356  0.00  0.00    -0.480 NA
ENDROOT
BRANCH   6   8
ATOM      8  S   LIG    1        1.507   7.212  -4.699  0.00  0.00    +0.060 S 
BRANCH   8   9
ATOM      9  C   LIG    1        0.209   7.518  -5.922  0.00  0.00    +0.120 C 
BRANCH   9  10
ATOM     10  C   LIG    1        0.829   8.039  -7.193  0.00  0.00    +0.530 C 
ATOM     11  N   LIG    1        0.049   8.339  -8.250  0.00  0.00    -0.720 N 
ATOM     12  H   LIG    1       -0.912   8.220  -8.193  0.00  0.00    +0.410 HD
ATOM     13  O   LIG    1        2.031   8.189  -7.264  0.00  0.00    -0.520 OA
BRANCH  11  14
ATOM     14  C   LIG    1        0.652   8.846  -9.485  0.00  0.00    +0.260 C 
BRANCH  14  15
ATOM     15  C   LIG    1       -0.446   9.105 -10.519  0.00  0.00    +0.070 C 
BRANCH  15  16
ATOM     16  C   LIG    1        0.175   9.626 -11.790  0.00  0.00    -0.090 A 
ATOM     17  C   LIG    1        0.338  10.986 -11.972  0.00  0.00    +0.010 A 
ATOM     18  C   LIG    1        0.911  11.464 -13.136  0.00  0.00    +0.000 A 
ATOM     19  C   LIG    1        1.312  10.582 -14.122  0.00  0.00    +0.000 A 
ATOM     20  C   LIG    1        1.143   9.222 -13.942  0.00  0.00    +0.000 A 
ATOM     21  C   LIG    1        0.575   8.744 -12.776  0.00  0.00    +0.010 A 
ENDBRANCH  15  16
ENDBRANCH  14  15
ENDBRANCH  11  14
ENDBRANCH   9  10
ENDBRANCH   8   9
ENDBRANCH   6   8
BRANCH   3  22
ATOM     22  C   LIG    1       -0.070   5.347   0.030  0.00  0.00    +0.180 C 
BRANCH  22  23
ATOM     23  C   LIG    1       -0.050   3.840   0.022  0.00  0.00    -0.080 A 
ATOM     24  C   LIG    1        1.156   3.165   0.008  0.00  0.00    +0.000 A 
ATOM     25  C   LIG    1        1.175   1.783   0.000  0.00  0.00    +0.000 A 
ATOM     26  C   LIG    1       -0.013   1.076   0.008  0.00  0.00    +0.000 A 
ATOM     27  C   LIG    1       -1.219   1.751   0.017  0.00  0.00    +0.000 A 
ATOM     28  C   LIG    1       -1.238   3.133   0.030  0.00  0.00    +0.020 A 
ENDBRANCH  22  23
ENDBRANCH   3  22
TORSDOF 8
