REMARK  Name = ZINCtV000002O9Ry.0
REMARK                            x       y       z     vdW  Elec       q    Type
REMARK                         _______ _______ _______ _____ _____    ______ ____
ROOT
ATOM      1  C   LIG    1        3.713  -0.948   0.175  0.00  0.00    -0.280 A 
ATOM      2  C   LIG    1        4.971  -0.381   0.175  0.00  0.00    +0.300 A 
ATOM      3  N   LIG    1        5.870  -1.375   0.282  0.00  0.00    -0.300 N 
ATOM      4  N   LIG    1        5.208  -2.604   0.344  0.00  0.00    -0.270 NA
ATOM      5  C   LIG    1        3.912  -2.397   0.284  0.00  0.00    +0.190 A 
ENDROOT
BRANCH   5   6
ATOM      6  C   LIG    1        2.851  -3.432   0.319  0.00  0.00    -0.050 A 
ATOM      7  C   LIG    1        1.639  -3.170   0.957  0.00  0.00    +0.130 A 
ATOM      8  C   LIG    1        0.654  -4.135   0.984  0.00  0.00    -0.020 A 
ATOM      9  C   LIG    1        0.870  -5.367   0.386  0.00  0.00    +0.120 A 
ATOM     10  C   LIG    1        2.075  -5.633  -0.245  0.00  0.00    -0.030 A 
ATOM     11  F   LIG    1       -0.096  -6.310   0.419  0.00  0.00    -0.140 F 
ATOM     12  C   LIG    1        3.064  -4.673  -0.281  0.00  0.00    +0.090 A 
ENDBRANCH   5   6
BRANCH   3  13
ATOM     13  C   LIG    1        7.260  -1.204   0.320  0.00  0.00    +0.140 A 
ATOM     14  C   LIG    1        7.807   0.070   0.244  0.00  0.00    -0.010 A 
ATOM     15  C   LIG    1        9.178   0.235   0.287  0.00  0.00    +0.050 A 
ATOM     16  C   LIG    1       10.006  -0.867   0.394  0.00  0.00    +0.010 A 
ATOM     17  C   LIG    1        9.464  -2.138   0.464  0.00  0.00    +0.050 A 
ATOM     18  C   LIG    1        8.094  -2.309   0.427  0.00  0.00    +0.030 A 
ENDBRANCH   3  13
BRANCH   1  20
ATOM     19  O   LIG    1        1.384  -0.866   0.087  0.00  0.00    -0.510 OA
ATOM     20  C   LIG    1        2.426  -0.239   0.080  0.00  0.00    +0.600 C 
ATOM     21  N   LIG    1        2.402   1.105  -0.015  0.00  0.00    -0.670 N 
ATOM     22  H   LIG    1        3.233   1.601  -0.086  0.00  0.00    +0.410 HD
BRANCH  21  23
ATOM     23  C   LIG    1        1.179   1.786  -0.010  0.00  0.00    +0.170 A 
ATOM     24  C   LIG    1        0.064   1.215  -0.608  0.00  0.00    +0.060 A 
ATOM     25  C   LIG    1       -1.141   1.891  -0.607  0.00  0.00    +0.070 A 
ATOM     26  C   LIG    1       -1.240   3.131  -0.001  0.00  0.00    -0.040 A 
ATOM     27  C   LIG    1       -0.130   3.704   0.595  0.00  0.00    +0.070 A 
ATOM     28 CL   LIG    1       -2.757   3.975   0.004  0.00  0.00    -0.050 Cl
ATOM     29  C   LIG    1        1.079   3.034   0.593  0.00  0.00    -0.050 A 
ATOM     30 CL   LIG    1        2.471   3.752   1.341  0.00  0.00    -0.050 Cl
ENDBRANCH  21  23
ENDBRANCH   1  20
TORSDOF 4
