REMARK  Name = ZINCnE000004Rgv8.0
REMARK                            x       y       z     vdW  Elec       q    Type
REMARK                         _______ _______ _______ _____ _____    ______ ____
ROOT
ATOM      1  C   LIG    1       -2.285   1.659  -0.667  0.00  0.00    -0.090 C 
ATOM      2  C   LIG    1       -0.833   1.591  -1.209  0.00  0.00    +0.050 C 
ATOM      3  C   LIG    1       -0.028   1.115   0.018  0.00  0.00    +0.220 C 
ATOM      4  N   LIG    1       -0.812   1.451   1.216  0.00  0.00    -0.620 N 
ATOM      5  C   LIG    1       -0.458   1.180   2.487  0.00  0.00    +0.720 C 
ATOM      6  N   LIG    1        0.706   0.550   2.744  0.00  0.00    -0.680 N 
ATOM      7  H   LIG    1        1.251   0.222   2.011  0.00  0.00    +0.410 HD
ATOM      8  O   LIG    1       -1.188   1.505   3.404  0.00  0.00    -0.580 OA
ATOM      9  C   LIG    1       -2.052   2.131   0.789  0.00  0.00    +0.280 C 
ENDROOT
BRANCH   6  10
ATOM     10  C   LIG    1        1.127   0.368   4.066  0.00  0.00    +0.140 A 
ATOM     11  C   LIG    1        0.823   1.318   5.040  0.00  0.00    +0.080 A 
ATOM     12  C   LIG    1        1.253   1.097   6.334  0.00  0.00    +0.010 A 
ATOM     13  C   LIG    1        1.983  -0.059   6.619  0.00  0.00    +0.160 A 
ATOM     14  N   LIG    1        2.258  -0.940   5.663  0.00  0.00    -0.450 NA
ATOM     15  C   LIG    1        1.857  -0.759   4.421  0.00  0.00    +0.240 A 
BRANCH  13  16
ATOM     16  C   LIG    1        2.454  -0.305   7.997  0.00  0.00    -0.130 A 
ATOM     17  C   LIG    1        3.160  -1.382   8.398  0.00  0.00    +0.060 A 
ATOM     18  C   LIG    1        3.491  -1.388   9.737  0.00  0.00    +0.030 A 
ATOM     19  C   LIG    1        3.053  -0.333  10.434  0.00  0.00    -0.150 A 
ATOM     20 CL   LIG    1        3.314  -0.079  12.131  0.00  0.00    -0.010 Cl
ATOM     21  S   LIG    1        2.174   0.757   9.371  0.00  0.00    +0.180 S 
ENDBRANCH  13  16
ENDBRANCH   6  10
BRANCH   1  23
ATOM     22  O   LIG    1       -4.262   2.415  -1.723  0.00  0.00    -0.690 OA
ATOM     23  C   LIG    1       -3.103   2.664  -1.437  0.00  0.00    +0.500 C 
ATOM     24  O   LIG    1       -2.606   3.725  -1.772  0.00  0.00    -0.690 OA
ENDBRANCH   1  23
TORSDOF 3
