REMARK  Name = ZINCqH0000002akT.0
REMARK                            x       y       z     vdW  Elec       q    Type
REMARK                         _______ _______ _______ _____ _____    ______ ____
ROOT
ATOM      1  C   LIG    1        2.469   1.072  -0.037  0.00  0.00    +0.390 C 
ATOM      2  O   LIG    1        2.490  -0.130  -0.202  0.00  0.00    -0.430 OA
ENDROOT
BRANCH   1   6
ATOM      3  C   LIG    1       -1.230   3.136   0.025  0.00  0.00    +0.190 A 
ATOM      4  C   LIG    1       -1.207   1.758  -0.171  0.00  0.00    +0.000 A 
ATOM      5  C   LIG    1       -0.013   1.085  -0.186  0.00  0.00    +0.110 A 
ATOM      6  C   LIG    1        1.186   1.787  -0.015  0.00  0.00    -0.190 A 
ATOM      7  C   LIG    1        1.159   3.175   0.176  0.00  0.00    +0.090 A 
ATOM      8  C   LIG    1       -0.040   3.838   0.196  0.00  0.00    -0.020 A 
BRANCH   3  10
ATOM      9  C   LIG    1       -3.544   3.215   0.546  0.00  0.00    +0.510 C 
ATOM     10  N   LIG    1       -2.446   3.815   0.046  0.00  0.00    -0.680 N 
ATOM     11  H   LIG    1       -2.502   4.719  -0.301  0.00  0.00    +0.420 HD
ATOM     12  O   LIG    1       -3.455   2.123   1.066  0.00  0.00    -0.510 OA
BRANCH   9  14
ATOM     13  C   LIG    1       -5.954   3.014   1.097  0.00  0.00    +0.050 C 
ATOM     14  C   LIG    1       -4.883   3.902   0.460  0.00  0.00    +0.060 C 
ENDBRANCH   9  14
ENDBRANCH   3  10
ENDBRANCH   1   6
BRANCH   1  15
ATOM     15  C   LIG    1        3.758   1.830   0.148  0.00  0.00    +0.330 C 
BRANCH  15  16
ATOM     16  N   LIG    1        4.886   0.897   0.087  0.00  0.00    -0.480 N 
ATOM     17  C   LIG    1        5.474   0.632  -1.108  0.00  0.00    +0.390 A 
ATOM     18  C   LIG    1        6.518  -0.226  -1.190  0.00  0.00    -0.290 A 
ATOM     19  C   LIG    1        7.002  -0.851  -0.032  0.00  0.00    +0.180 A 
ATOM     20  C   LIG    1        6.411  -0.584   1.168  0.00  0.00    -0.150 A 
ATOM     21 CL   LIG    1        6.988  -1.342   2.619  0.00  0.00    -0.010 Cl
ATOM     22  C   LIG    1        5.331   0.317   1.217  0.00  0.00    +0.530 A 
ATOM     23  O   LIG    1        4.795   0.568   2.285  0.00  0.00    -0.500 OA
BRANCH  18  24
ATOM     24  C   LIG    1        7.159  -0.508  -2.524  0.00  0.00    +0.530 C 
ATOM     25  F   LIG    1        6.232  -0.273  -3.546  0.00  0.00    -0.180 F 
ATOM     26  F   LIG    1        7.573  -1.843  -2.569  0.00  0.00    -0.170 F 
ATOM     27  F   LIG    1        8.265   0.330  -2.696  0.00  0.00    -0.170 F 
ENDBRANCH  18  24
ENDBRANCH  15  16
ENDBRANCH   1  15
TORSDOF 6
