REMARK  Name = ZINCrD000000C4ED.0
REMARK                            x       y       z     vdW  Elec       q    Type
REMARK                         _______ _______ _______ _____ _____    ______ ____
ROOT
ATOM      1  O   LIG    1        3.539   1.975   0.080  0.00  0.00    -0.510 OA
ATOM      2  C   LIG    1        3.541   3.188   0.086  0.00  0.00    +0.520 C 
ATOM      3  N   LIG    1        2.378   3.864  -0.001  0.00  0.00    -0.670 N 
ATOM      4  H   LIG    1        2.384   4.831  -0.074  0.00  0.00    +0.410 HD
ENDROOT
BRANCH   3   5
ATOM      5  C   LIG    1        1.162   3.170   0.013  0.00  0.00    +0.130 A 
ATOM      6  C   LIG    1        1.038   2.005   0.768  0.00  0.00    +0.080 A 
ATOM      7  C   LIG    1       -0.137   1.310   0.798  0.00  0.00    +0.060 A 
ATOM      8  C   LIG    1       -1.233   1.764   0.060  0.00  0.00    +0.150 A 
ATOM      9  N   LIG    1       -2.417   1.108   0.067  0.00  0.00    -0.520 NA
ATOM     10  C   LIG    1       -3.452   1.521  -0.615  0.00  0.00    +0.380 A 
ATOM     11  C   LIG    1       -4.829   0.883  -0.709  0.00  0.00    +0.150 C 
ATOM     12  C   LIG    1       -5.468   1.531  -1.955  0.00  0.00    +0.070 C 
ATOM     13  C   LIG    1       -4.721   2.879  -2.030  0.00  0.00    +0.280 C 
ATOM     14  N   LIG    1       -3.421   2.648  -1.377  0.00  0.00    -0.560 N 
ATOM     15  C   LIG    1       -2.290   3.394  -1.460  0.00  0.00    +0.560 A 
ATOM     16  O   LIG    1       -2.252   4.403  -2.140  0.00  0.00    -0.510 OA
ATOM     17  C   LIG    1       -1.114   2.947  -0.702  0.00  0.00    -0.180 A 
ATOM     18  C   LIG    1        0.090   3.645  -0.723  0.00  0.00    +0.070 A 
ENDBRANCH   3   5
BRANCH   2  19
ATOM     19  C   LIG    1        4.843   3.938   0.190  0.00  0.00    +0.000 C 
ATOM     20  C   LIG    1        5.022   4.824  -1.045  0.00  0.00    -0.010 C 
ATOM     21  C   LIG    1        6.344   5.586  -0.939  0.00  0.00    +0.030 C 
ATOM     22  C   LIG    1        7.502   4.590  -0.854  0.00  0.00    -0.020 C 
ATOM     23  C   LIG    1        7.516   3.716  -2.110  0.00  0.00    +0.010 C 
ATOM     24  C   LIG    1        6.194   2.954  -2.216  0.00  0.00    -0.020 C 
ATOM     25  C   LIG    1        6.015   2.068  -0.981  0.00  0.00    +0.030 C 
ATOM     26  C   LIG    1        7.323   3.704   0.381  0.00  0.00    +0.020 C 
ATOM     27  C   LIG    1        5.036   3.950  -2.301  0.00  0.00    +0.020 C 
ATOM     28  C   LIG    1        6.001   2.942   0.275  0.00  0.00    +0.020 C 
ENDBRANCH   2  19
TORSDOF 2
