REMARK  Name = ZINCfA000000beHh.0
REMARK                            x       y       z     vdW  Elec       q    Type
REMARK                         _______ _______ _______ _____ _____    ______ ____
ROOT
ATOM      1  C   LIG    1       -0.019   1.526   0.010  0.00  0.00    +0.220 C 
ENDROOT
BRANCH   1   2
ATOM      2  C   LIG    1        0.002  -0.004   0.002  0.00  0.00    +0.290 C 
BRANCH   2   3
ATOM      3  N   LIG    1        0.606  -0.492   1.249  0.00  0.00    -0.390 N 
ATOM      4  C   LIG    1       -0.248  -0.122   2.385  0.00  0.00    +0.320 C 
ATOM      5  H   LIG    1        1.519  -0.078   1.365  0.00  0.00    +0.430 HD
BRANCH   3   6
ATOM      6  C   LIG    1        0.735  -1.955   1.190  0.00  0.00    +0.250 C 
BRANCH   6   8
ATOM      7  C   LIG    1        1.611  -3.974   2.373  0.00  0.00    +0.060 C 
ATOM      8  C   LIG    1        1.477  -2.451   2.433  0.00  0.00    +0.030 C 
ENDBRANCH   6   8
ENDBRANCH   3   6
ENDBRANCH   2   3
ENDBRANCH   1   2
BRANCH   1   9
ATOM      9  O   LIG    1        1.322   2.020   0.000  0.00  0.00    -0.320 OA
BRANCH   9  10
ATOM     10  C   LIG    1        1.482   3.370   0.006  0.00  0.00    +0.120 A 
ATOM     11  C   LIG    1        0.372   4.201   0.021  0.00  0.00    -0.050 A 
ATOM     12  C   LIG    1        0.537   5.573   0.027  0.00  0.00    +0.070 A 
ATOM     13  C   LIG    1        1.807   6.118   0.017  0.00  0.00    +0.010 A 
ATOM     14  C   LIG    1        2.916   5.293   0.002  0.00  0.00    +0.080 A 
ATOM     15  C   LIG    1        2.757   3.920   0.003  0.00  0.00    -0.060 A 
ATOM     16 CL   LIG    1        4.150   2.883  -0.009  0.00  0.00    -0.050 Cl
ENDBRANCH   9  10
ENDBRANCH   1   9
TORSDOF 6
