REMARK  Name = ZINCfA000000beHh.1
REMARK                            x       y       z     vdW  Elec       q    Type
REMARK                         _______ _______ _______ _____ _____    ______ ____
ROOT
ATOM      1  C   LIG    1        1.439   1.835  -0.474  0.00  0.00    +0.220 C 
ENDROOT
BRANCH   1   2
ATOM      2  C   LIG    1       -0.030   1.469  -0.254  0.00  0.00    +0.290 C 
BRANCH   2   3
ATOM      3  N   LIG    1       -0.154   0.014  -0.093  0.00  0.00    -0.390 N 
ATOM      4  C   LIG    1       -1.575  -0.352  -0.030  0.00  0.00    +0.330 C 
ATOM      5  H   LIG    1        0.278  -0.449  -0.878  0.00  0.00    +0.430 HD
BRANCH   3   6
ATOM      6  C   LIG    1        0.514  -0.400   1.148  0.00  0.00    +0.240 C 
BRANCH   6   8
ATOM      7  C   LIG    1        1.189  -2.357   2.546  0.00  0.00    +0.060 C 
ATOM      8  C   LIG    1        0.494  -1.926   1.253  0.00  0.00    +0.030 C 
ENDBRANCH   6   8
ENDBRANCH   3   6
ENDBRANCH   2   3
ENDBRANCH   1   2
BRANCH   1   9
ATOM      9  O   LIG    1        1.897   1.252  -1.696  0.00  0.00    -0.320 OA
BRANCH   9  10
ATOM     10  C   LIG    1        3.191   1.482  -2.042  0.00  0.00    +0.120 A 
ATOM     11  C   LIG    1        4.003   2.252  -1.223  0.00  0.00    -0.050 A 
ATOM     12  C   LIG    1        5.318   2.485  -1.578  0.00  0.00    +0.070 A 
ATOM     13  C   LIG    1        5.826   1.950  -2.747  0.00  0.00    +0.010 A 
ATOM     14  C   LIG    1        5.019   1.182  -3.566  0.00  0.00    +0.080 A 
ATOM     15  C   LIG    1        3.704   0.941  -3.213  0.00  0.00    -0.060 A 
ATOM     16 CL   LIG    1        2.694  -0.031  -4.238  0.00  0.00    -0.050 Cl
ENDBRANCH   9  10
ENDBRANCH   1   9
TORSDOF 6
