REMARK  Name = ZINCkj00000y7KfH.0
REMARK                            x       y       z     vdW  Elec       q    Type
REMARK                         _______ _______ _______ _____ _____    ______ ____
ROOT
ATOM      1  C   LIG    1       -0.013   1.086   0.008  0.00  0.00    +0.320 C 
ENDROOT
BRANCH   1   5
ATOM      2  C   LIG    1       -2.081   2.502  -3.457  0.00  0.00    -0.090 A 
ATOM      3  C   LIG    1       -1.058   3.265  -2.889  0.00  0.00    +0.100 A 
ATOM      4  C   LIG    1       -0.395   2.802  -1.772  0.00  0.00    +0.040 A 
ATOM      5  C   LIG    1       -0.742   1.585  -1.213  0.00  0.00    -0.130 A 
ATOM      6  C   LIG    1       -1.750   0.821  -1.773  0.00  0.00    +0.040 A 
ATOM      7  C   LIG    1       -2.425   1.275  -2.887  0.00  0.00    +0.090 A 
BRANCH   2   8
ATOM      8  C   LIG    1       -2.796   2.992  -4.653  0.00  0.00    +0.500 C 
ATOM      9  O   LIG    1       -2.494   4.061  -5.146  0.00  0.00    -0.490 OA
BRANCH   8  11
ATOM     10  C   LIG    1       -4.441   2.797  -6.372  0.00  0.00    +0.290 C 
ATOM     11  O   LIG    1       -3.782   2.253  -5.197  0.00  0.00    -0.350 OA
ENDBRANCH   8  11
ENDBRANCH   2   8
ENDBRANCH   1   5
BRANCH   1  12
ATOM     12  N   LIG    1       -0.700   1.560   1.217  0.00  0.00    -0.380 N 
ATOM     13  C   LIG    1       -0.067   0.971   2.411  0.00  0.00    +0.260 C 
ATOM     14  C   LIG    1        0.431   2.134   3.289  0.00  0.00    +0.180 C 
ATOM     15  C   LIG    1       -0.446   3.325   2.821  0.00  0.00    +0.180 C 
ATOM     16  C   LIG    1       -0.591   3.031   1.307  0.00  0.00    +0.240 C 
ATOM     17  H   LIG    1       -1.673   1.293   1.181  0.00  0.00    +0.430 HD
BRANCH  15  18
ATOM     18  O   LIG    1        0.222   4.569   3.039  0.00  0.00    -0.360 OA
ATOM     19  C   LIG    1       -0.658   5.690   3.150  0.00  0.00    +0.230 C 
ENDBRANCH  15  18
BRANCH  14  20
ATOM     20  O   LIG    1        0.209   1.856   4.673  0.00  0.00    -0.360 OA
ATOM     21  C   LIG    1        1.346   1.313   5.346  0.00  0.00    +0.230 C 
ENDBRANCH  14  20
ENDBRANCH   1  12
TORSDOF 6
