REMARK  Name = ZINCBI00000007XQ.2
REMARK                            x       y       z     vdW  Elec       q    Type
REMARK                         _______ _______ _______ _____ _____    ______ ____
ROOT
ATOM      1  C   LIG    1       -4.072   2.650   3.626  0.00  0.00    +0.100 C 
ATOM      2  C   LIG    1       -4.048   4.067   4.206  0.00  0.00    +0.090 C 
ATOM      3  C   LIG    1       -5.404   4.367   4.851  0.00  0.00    +0.010 C 
ATOM      4  C   LIG    1       -5.702   3.309   5.915  0.00  0.00    +0.280 C 
ATOM      5  N   LIG    1       -5.737   1.980   5.293  0.00  0.00    -0.380 N 
ATOM      6  H   LIG    1       -5.986   1.292   5.987  0.00  0.00    +0.430 HD
ATOM      7  C   LIG    1       -4.419   1.656   4.736  0.00  0.00    +0.250 C 
ENDROOT
BRANCH   3   8
ATOM      8  C   LIG    1       -6.480   4.337   3.796  0.00  0.00    +0.510 C 
ATOM      9  N   LIG    1       -7.767   4.543   4.140  0.00  0.00    -0.620 N 
ATOM     10  C   LIG    1       -8.129   4.924   5.514  0.00  0.00    +0.280 C 
ATOM     11  C   LIG    1       -9.027   6.170   5.448  0.00  0.00    +0.230 C 
ATOM     12  N   LIG    1      -10.164   5.901   4.558  0.00  0.00    -0.460 N 
ATOM     13  C   LIG    1       -9.716   5.650   3.182  0.00  0.00    +0.230 C 
ATOM     14  C   LIG    1       -8.846   4.389   3.153  0.00  0.00    +0.310 C 
ATOM     15  O   LIG    1       -6.188   4.126   2.638  0.00  0.00    -0.510 OA
BRANCH  12  16
ATOM     16  C   LIG    1      -11.083   6.936   4.600  0.00  0.00    +0.490 A 
ATOM     17  N   LIG    1      -11.425   7.543   3.473  0.00  0.00    -0.540 NA
ATOM     18  C   LIG    1      -12.303   8.532   3.477  0.00  0.00    +0.370 A 
ATOM     19  C   LIG    1      -12.859   8.938   4.681  0.00  0.00    -0.170 A 
ATOM     20  C   LIG    1      -12.475   8.284   5.842  0.00  0.00    +0.370 A 
ATOM     21 CL   LIG    1      -14.010  10.236   4.734  0.00  0.00    -0.020 Cl
ATOM     22  N   LIG    1      -11.595   7.299   5.767  0.00  0.00    -0.510 NA
ENDBRANCH  12  16
ENDBRANCH   3   8
BRANCH   1  26
ATOM     23  C   LIG    1       -0.407   1.384   0.450  0.00  0.00    +0.360 C 
ATOM     24  N   LIG    1       -1.125   1.764   1.668  0.00  0.00    -0.360 N 
ATOM     25  C   LIG    1       -2.451   1.996   1.769  0.00  0.00    +0.270 A 
ATOM     26  C   LIG    1       -2.717   2.317   3.057  0.00  0.00    -0.250 A 
ATOM     27  C   LIG    1       -1.511   2.289   3.765  0.00  0.00    +0.230 A 
ATOM     28  N   LIG    1       -0.556   1.959   2.934  0.00  0.00    -0.280 NA
ENDBRANCH   1  26
BRANCH   5  29
ATOM     29  C   LIG    1       -6.737   1.973   4.218  0.00  0.00    +0.300 C 
BRANCH  29  30
ATOM     30  C   LIG    1       -7.106   0.550   3.884  0.00  0.00    -0.140 A 
ATOM     31  C   LIG    1       -8.244  -0.014   4.427  0.00  0.00    +0.070 A 
ATOM     32  C   LIG    1       -8.583  -1.321   4.120  0.00  0.00    +0.130 A 
ATOM     33  C   LIG    1       -7.781  -2.062   3.268  0.00  0.00    -0.090 A 
ATOM     34  C   LIG    1       -6.642  -1.497   2.725  0.00  0.00    +0.080 A 
ATOM     35 BR   LIG    1       -8.244  -3.847   2.849  0.00  0.00    +0.020 Br
ATOM     36  F   LIG    1       -9.696  -1.873   4.651  0.00  0.00    -0.100 F 
ATOM     37  C   LIG    1       -6.307  -0.189   3.028  0.00  0.00    +0.120 A 
ATOM     38  F   LIG    1       -5.197   0.365   2.493  0.00  0.00    -0.110 F 
ENDBRANCH  29  30
ENDBRANCH   5  29
TORSDOF 5
