REMARK  Name = ZINCBI00000007XQ.1
REMARK                            x       y       z     vdW  Elec       q    Type
REMARK                         _______ _______ _______ _____ _____    ______ ____
ROOT
ATOM      1  C   LIG    1       -0.139   1.065   0.236  0.00  0.00    +0.080 C 
ATOM      2  C   LIG    1       -0.742   1.579  -1.074  0.00  0.00    +0.070 C 
ATOM      3  C   LIG    1       -2.200   1.121  -1.167  0.00  0.00    +0.010 C 
ATOM      4  C   LIG    1       -2.966   1.622   0.059  0.00  0.00    +0.280 C 
ATOM      5  N   LIG    1       -2.357   1.075   1.278  0.00  0.00    -0.390 N 
ATOM      6  H   LIG    1       -2.349   0.067   1.225  0.00  0.00    +0.430 HD
ATOM      7  C   LIG    1       -0.980   1.568   1.412  0.00  0.00    +0.260 C 
ENDROOT
BRANCH   3   8
ATOM      8  C   LIG    1       -2.253  -0.384  -1.214  0.00  0.00    +0.520 C 
ATOM      9  N   LIG    1       -1.833  -1.040  -2.314  0.00  0.00    -0.590 N 
ATOM     10  C   LIG    1       -1.962  -2.501  -2.417  0.00  0.00    +0.310 C 
ATOM     11  C   LIG    1       -2.655  -2.832  -3.748  0.00  0.00    +0.220 C 
ATOM     12  N   LIG    1       -1.919  -2.194  -4.849  0.00  0.00    -0.460 N 
ATOM     13  C   LIG    1       -1.946  -0.730  -4.729  0.00  0.00    +0.220 C 
ATOM     14  C   LIG    1       -1.229  -0.313  -3.441  0.00  0.00    +0.300 C 
ATOM     15  O   LIG    1       -2.674  -1.006  -0.261  0.00  0.00    -0.550 OA
BRANCH  12  16
ATOM     16  C   LIG    1       -2.413  -2.601  -6.077  0.00  0.00    +0.490 A 
ATOM     17  N   LIG    1       -2.829  -1.687  -6.941  0.00  0.00    -0.540 NA
ATOM     18  C   LIG    1       -3.301  -2.041  -8.125  0.00  0.00    +0.370 A 
ATOM     19  C   LIG    1       -3.368  -3.388  -8.451  0.00  0.00    -0.170 A 
ATOM     20  C   LIG    1       -2.929  -4.317  -7.520  0.00  0.00    +0.380 A 
ATOM     21 CL   LIG    1       -3.987  -3.898  -9.991  0.00  0.00    -0.030 Cl
ATOM     22  N   LIG    1       -2.463  -3.895  -6.357  0.00  0.00    -0.510 NA
ENDBRANCH  12  16
ENDBRANCH   3   8
BRANCH   1  26
ATOM     23  C   LIG    1        4.847   1.241   0.716  0.00  0.00    +0.360 C 
ATOM     24  N   LIG    1        3.445   1.643   0.583  0.00  0.00    -0.360 N 
ATOM     25  C   LIG    1        2.386   0.812   0.483  0.00  0.00    +0.260 A 
ATOM     26  C   LIG    1        1.273   1.573   0.374  0.00  0.00    -0.260 A 
ATOM     27  C   LIG    1        1.664   2.916   0.418  0.00  0.00    +0.240 A 
ATOM     28  N   LIG    1        2.965   2.959   0.543  0.00  0.00    -0.280 NA
ENDBRANCH   1  26
BRANCH   5  29
ATOM     29  C   LIG    1       -3.140   1.496   2.447  0.00  0.00    +0.340 C 
BRANCH  29  30
ATOM     30  C   LIG    1       -4.515   0.883   2.378  0.00  0.00    -0.150 A 
ATOM     31  C   LIG    1       -5.585   1.635   1.932  0.00  0.00    +0.070 A 
ATOM     32  C   LIG    1       -6.847   1.071   1.863  0.00  0.00    +0.130 A 
ATOM     33  C   LIG    1       -7.040  -0.245   2.251  0.00  0.00    -0.080 A 
ATOM     34  C   LIG    1       -5.970  -0.995   2.703  0.00  0.00    +0.080 A 
ATOM     35 BR   LIG    1       -8.765  -1.014   2.165  0.00  0.00    +0.020 Br
ATOM     36  F   LIG    1       -7.892   1.804   1.421  0.00  0.00    -0.110 F 
ATOM     37  C   LIG    1       -4.707  -0.432   2.766  0.00  0.00    +0.130 A 
ATOM     38  F   LIG    1       -3.661  -1.165   3.207  0.00  0.00    -0.120 F 
ENDBRANCH  29  30
ENDBRANCH   5  29
TORSDOF 5
