REMARK  Name = ZINCrg000000t6Aw.0
REMARK                            x       y       z     vdW  Elec       q    Type
REMARK                         _______ _______ _______ _____ _____    ______ ____
ROOT
ATOM      1  C   LIG    1       -3.555  -2.332  -0.293  0.00  0.00    +0.540 C 
ATOM      2  N   LIG    1       -3.571  -0.989  -0.185  0.00  0.00    -0.680 N 
ATOM      3  H   LIG    1       -4.416  -0.513  -0.179  0.00  0.00    +0.420 HD
ATOM      4  C   LIG    1       -2.412  -0.307  -0.087  0.00  0.00    +0.700 C 
ATOM      5  N   LIG    1       -2.428   1.036   0.021  0.00  0.00    -0.670 N 
ATOM      6  H   LIG    1       -3.272   1.506   0.105  0.00  0.00    +0.410 HD
ATOM      7  O   LIG    1       -1.354  -0.904  -0.095  0.00  0.00    -0.500 OA
ATOM      8  O   LIG    1       -2.499  -2.928  -0.301  0.00  0.00    -0.450 OA
ENDROOT
BRANCH   5   9
ATOM      9  C   LIG    1       -1.224   1.754   0.011  0.00  0.00    +0.160 A 
ATOM     10  C   LIG    1       -0.153   1.302  -0.747  0.00  0.00    +0.040 A 
ATOM     11  C   LIG    1        1.032   2.012  -0.761  0.00  0.00    +0.050 A 
ATOM     12  C   LIG    1        1.157   3.174  -0.015  0.00  0.00    +0.040 A 
ATOM     13  O   LIG    1        2.335   3.858  -0.038  0.00  0.00    -0.310 OA
ATOM     14  C   LIG    1        2.302   5.212   0.425  0.00  0.00    +0.220 C 
ATOM     15  C   LIG    1        1.512   5.251   1.741  0.00  0.00    +0.220 C 
ATOM     16  O   LIG    1        0.190   4.767   1.484  0.00  0.00    -0.310 OA
ATOM     17  C   LIG    1        0.087   3.627   0.749  0.00  0.00    +0.070 A 
ATOM     18  C   LIG    1       -1.101   2.913   0.763  0.00  0.00    +0.000 A 
ENDBRANCH   5   9
BRANCH   1  19
ATOM     19  C   LIG    1       -4.851  -3.095  -0.403  0.00  0.00    +0.120 C 
BRANCH  19  20
ATOM     20  S   LIG    1       -4.500  -4.865  -0.532  0.00  0.00    +0.120 S 
BRANCH  20  22
ATOM     21  N   LIG    1       -6.502  -6.807  -0.764  0.00  0.00    -0.300 N 
ATOM     22  C   LIG    1       -6.142  -5.495  -0.645  0.00  0.00    +0.160 A 
ATOM     23  N   LIG    1       -7.250  -4.793  -0.624  0.00  0.00    -0.290 NA
ATOM     24  N   LIG    1       -8.265  -5.575  -0.729  0.00  0.00    -0.270 NA
ATOM     25  C   LIG    1       -7.868  -6.813  -0.815  0.00  0.00    +0.190 A 
BRANCH  21  26
ATOM     26  N   LIG    1       -5.670  -7.889  -0.821  0.00  0.00    -0.580 N 
ATOM     27  H   LIG    1       -6.049  -8.606  -1.420  0.00  0.00    +0.380 HD
ATOM     28  H   LIG    1       -5.484  -8.251   0.103  0.00  0.00    +0.370 HD
ENDBRANCH  21  26
BRANCH  25  29
ATOM     29  C   LIG    1       -8.752  -8.027  -0.945  0.00  0.00    +0.020 C 
ATOM     30  C   LIG    1      -10.245  -7.791  -1.185  0.00  0.00    +0.080 C 
ATOM     31  C   LIG    1       -9.758  -8.292   0.176  0.00  0.00    +0.060 C 
ENDBRANCH  25  29
ENDBRANCH  20  22
ENDBRANCH  19  20
ENDBRANCH   1  19
TORSDOF 6
