REMARK  Name = ZINCvU0000000HHc.0
REMARK                            x       y       z     vdW  Elec       q    Type
REMARK                         _______ _______ _______ _____ _____    ______ ____
ROOT
ATOM      1  N   LIG    1        4.038   1.290   8.780  0.00  0.00    -0.610 N 
ATOM      2  H   LIG    1        3.956   2.256   8.749  0.00  0.00    +0.430 HD
ATOM      3  C   LIG    1        4.713   0.704   9.788  0.00  0.00    +0.610 C 
ATOM      4  O   LIG    1        4.817  -0.508   9.828  0.00  0.00    -0.480 OA
ENDROOT
BRANCH   1   8
ATOM      5  C   LIG    1        2.309   0.071   5.920  0.00  0.00    +0.130 A 
ATOM      6  C   LIG    1        2.580  -1.212   6.218  0.00  0.00    -0.110 A 
ATOM      7  S   LIG    1        3.522  -1.247   7.706  0.00  0.00    +0.210 S 
ATOM      8  C   LIG    1        3.460   0.511   7.787  0.00  0.00    +0.270 A 
ATOM      9  N   LIG    1        2.796   0.966   6.770  0.00  0.00    -0.490 NA
BRANCH   5  13
ATOM     10  C   LIG    1        0.067   1.185   2.485  0.00  0.00    -0.070 A 
ATOM     11  C   LIG    1        0.310  -0.152   2.745  0.00  0.00    +0.000 A 
ATOM     12  C   LIG    1        1.042  -0.519   3.856  0.00  0.00    +0.020 A 
ATOM     13  C   LIG    1        1.527   0.460   4.722  0.00  0.00    -0.030 A 
ATOM     14  C   LIG    1        1.274   1.804   4.457  0.00  0.00    +0.050 A 
ATOM     15  C   LIG    1        0.545   2.160   3.341  0.00  0.00    +0.000 A 
BRANCH  10  16
ATOM     16  C   LIG    1       -0.729   1.579   1.267  0.00  0.00    +0.020 C 
ATOM     17  C   LIG    1       -2.121   0.950   1.341  0.00  0.00    +0.030 C 
BRANCH  16  19
ATOM     18  C   LIG    1       -0.753   1.593  -1.232  0.00  0.00    +0.000 C 
ATOM     19  C   LIG    1       -0.013   1.086   0.008  0.00  0.00    +0.000 C 
ENDBRANCH  16  19
ENDBRANCH  10  16
ENDBRANCH   5  13
ENDBRANCH   1   8
BRANCH   3  20
ATOM     20  C   LIG    1        5.323   1.526  10.838  0.00  0.00    -0.070 A 
ATOM     21  C   LIG    1        6.031   1.063  11.910  0.00  0.00    +0.070 A 
ATOM     22  C   LIG    1        6.426   2.189  12.649  0.00  0.00    -0.030 A 
ATOM     23  C   LIG    1        5.949   3.276  12.003  0.00  0.00    +0.010 A 
ATOM     24  O   LIG    1        5.289   2.873  10.910  0.00  0.00    -0.150 OA
BRANCH  23  25
ATOM     25  C   LIG    1        6.132   4.707  12.440  0.00  0.00    +0.420 C 
BRANCH  25  26
ATOM     26  N   LIG    1        7.358   5.246  11.844  0.00  0.00    -0.500 N 
ATOM     27  C   LIG    1        8.534   5.132  12.512  0.00  0.00    +0.290 A 
ATOM     28  C   LIG    1        9.681   5.617  11.980  0.00  0.00    -0.070 A 
ATOM     29  C   LIG    1        9.658   6.254  10.731  0.00  0.00    +0.120 A 
ATOM     30  C   LIG    1        8.474   6.372  10.064  0.00  0.00    -0.090 A 
ATOM     31  C   LIG    1        7.303   5.853  10.643  0.00  0.00    +0.510 A 
ATOM     32  O   LIG    1        6.237   5.951  10.057  0.00  0.00    -0.540 OA
ENDBRANCH  25  26
ENDBRANCH  23  25
ENDBRANCH   3  20
TORSDOF 7
