REMARK  Name = ZINCpk000000ozvi.0
REMARK                            x       y       z     vdW  Elec       q    Type
REMARK                         _______ _______ _______ _____ _____    ______ ____
ROOT
ATOM      1  N   LIG    1        0.002  -0.004   0.002  0.00  0.00    -0.560 N 
ATOM      2  C   LIG    1       -0.016   1.334   0.009  0.00  0.00    +0.710 C 
ATOM      3  N   LIG    1        1.220   1.865   0.000  0.00  0.00    -0.720 N 
ATOM      4  H   LIG    1        1.446   2.808   0.003  0.00  0.00    +0.440 HD
ATOM      5  C   LIG    1        2.164   0.734  -0.015  0.00  0.00    +0.230 C 
ATOM      6  O   LIG    1       -1.035   1.996   0.018  0.00  0.00    -0.540 OA
ATOM      7  C   LIG    1        1.261  -0.484  -0.013  0.00  0.00    +0.530 C 
ATOM      8  O   LIG    1        1.601  -1.648  -0.021  0.00  0.00    -0.460 OA
ENDROOT
BRANCH   1   9
ATOM      9  C   LIG    1       -1.199  -0.844   0.008  0.00  0.00    +0.360 C 
BRANCH   9  11
ATOM     10  N   LIG    1       -2.712  -1.881  -1.651  0.00  0.00    -0.610 N 
ATOM     11  C   LIG    1       -1.623  -1.123  -1.410  0.00  0.00    +0.500 C 
ATOM     12  O   LIG    1       -0.986  -0.666  -2.336  0.00  0.00    -0.520 OA
BRANCH  10  14
ATOM     13  C   LIG    1       -4.576  -1.443  -0.130  0.00  0.00    +0.010 C 
ATOM     14  C   LIG    1       -3.482  -2.433  -0.534  0.00  0.00    +0.270 C 
ENDBRANCH  10  14
BRANCH  10  15
ATOM     15  C   LIG    1       -3.124  -2.153  -3.030  0.00  0.00    +0.270 C 
ATOM     16  C   LIG    1       -2.442  -3.430  -3.525  0.00  0.00    +0.020 C 
ENDBRANCH  10  15
ENDBRANCH   9  11
ENDBRANCH   1   9
BRANCH   5  17
ATOM     17  C   LIG    1        3.025   0.763  -1.279  0.00  0.00    +0.150 C 
BRANCH  17  18
ATOM     18  C   LIG    1        3.996   1.913  -1.199  0.00  0.00    -0.180 A 
ATOM     19  C   LIG    1        3.829   3.138  -1.720  0.00  0.00    +0.230 A 
ATOM     20  N   LIG    1        4.919   3.917  -1.442  0.00  0.00    -0.590 N 
ATOM     21  H   LIG    1        5.027   4.841  -1.714  0.00  0.00    +0.420 HD
ATOM     22  C   LIG    1        5.843   3.189  -0.726  0.00  0.00    +0.100 A 
ATOM     23  C   LIG    1        7.098   3.485  -0.204  0.00  0.00    -0.010 A 
ATOM     24  C   LIG    1        7.798   2.518   0.484  0.00  0.00    +0.030 A 
ATOM     25  C   LIG    1        7.264   1.249   0.663  0.00  0.00    -0.020 A 
ATOM     26  C   LIG    1        6.032   0.938   0.159  0.00  0.00    +0.050 A 
ATOM     27  C   LIG    1        5.306   1.902  -0.542  0.00  0.00    -0.100 A 
ENDBRANCH  17  18
ENDBRANCH   5  17
TORSDOF 6
