REMARK  Name = ZINCqH00000022qy.0
REMARK                            x       y       z     vdW  Elec       q    Type
REMARK                         _______ _______ _______ _____ _____    ______ ____
ROOT
ATOM      1  C   LIG    1        4.145  -8.027   8.068  0.00  0.00    +0.110 C 
ATOM      2  C   LIG    1        3.681  -7.255   6.831  0.00  0.00    +0.100 C 
ATOM      3  O   LIG    1        3.510  -5.876   7.167  0.00  0.00    -0.300 OA
ATOM      4  C   LIG    1        3.377  -5.007   6.130  0.00  0.00    +0.090 A 
ATOM      5  C   LIG    1        2.587  -3.880   6.254  0.00  0.00    +0.040 A 
ATOM      6  C   LIG    1        2.456  -3.003   5.178  0.00  0.00    -0.030 A 
ATOM      7  C   LIG    1        3.130  -3.259   3.985  0.00  0.00    +0.040 A 
ATOM      8  C   LIG    1        3.923  -4.383   3.866  0.00  0.00    +0.020 A 
ATOM      9  C   LIG    1        4.050  -5.258   4.933  0.00  0.00    +0.090 A 
ATOM     10  N   LIG    1        4.852  -6.402   4.827  0.00  0.00    -0.660 N 
ATOM     11  H   LIG    1        5.497  -6.486   4.107  0.00  0.00    +0.420 HD
ATOM     12  C   LIG    1        2.349  -7.830   6.343  0.00  0.00    +0.070 C 
ATOM     13  C   LIG    1        4.714  -7.386   5.741  0.00  0.00    +0.500 C 
ATOM     14  O   LIG    1        5.418  -8.372   5.685  0.00  0.00    -0.500 OA
ENDROOT
BRANCH   6  15
ATOM     15  C   LIG    1        1.605  -1.795   5.305  0.00  0.00    -0.050 A 
ATOM     16  C   LIG    1        0.929  -1.537   6.496  0.00  0.00    +0.030 A 
ATOM     17  C   LIG    1        0.138  -0.411   6.608  0.00  0.00    +0.010 A 
ATOM     18  C   LIG    1        0.020   0.462   5.543  0.00  0.00    +0.030 A 
ATOM     19  C   LIG    1        0.683   0.208   4.356  0.00  0.00    -0.090 A 
ATOM     20  C   LIG    1        1.477  -0.914   4.232  0.00  0.00    +0.040 A 
BRANCH  19  21
ATOM     21  C   LIG    1        0.544   1.162   3.197  0.00  0.00    +0.220 C 
BRANCH  21  22
ATOM     22  O   LIG    1       -0.560   0.763   2.382  0.00  0.00    -0.360 OA
BRANCH  22  23
ATOM     23  C   LIG    1       -0.780   1.606   1.249  0.00  0.00    +0.130 C 
ATOM     24  C   LIG    1       -2.249   1.504   0.749  0.00  0.00    +0.030 C 
ATOM     25  C   LIG    1       -2.107   1.829  -0.754  0.00  0.00    +0.190 C 
ATOM     26  O   LIG    1       -0.746   1.581  -1.124  0.00  0.00    -0.380 OA
ATOM     27  C   LIG    1       -0.013   1.086   0.008  0.00  0.00    +0.190 C 
ENDBRANCH  22  23
ENDBRANCH  21  22
ENDBRANCH  19  21
ENDBRANCH   6  15
TORSDOF 4
