REMARK  Name = ZINCpk00000xWcMM.2
REMARK                            x       y       z     vdW  Elec       q    Type
REMARK                         _______ _______ _______ _____ _____    ______ ____
ROOT
ATOM      1  O   LIG    1       -2.295  -0.451   0.021  0.00  0.00    -0.520 OA
ATOM      2  C   LIG    1       -1.171  -0.911   0.008  0.00  0.00    +0.600 C 
ATOM      3  N   LIG    1       -0.990  -2.247  -0.001  0.00  0.00    -0.710 N 
ATOM      4  H   LIG    1       -0.093  -2.615  -0.011  0.00  0.00    +0.410 HD
ENDROOT
BRANCH   2   5
ATOM      5  C   LIG    1        0.002  -0.004   0.002  0.00  0.00    -0.030 A 
ATOM      6  N   LIG    1        1.265  -0.351  -0.012  0.00  0.00    -0.320 NA
ATOM      7  O   LIG    1        1.989   0.618  -0.014  0.00  0.00    +0.140 OA
ATOM      8  C   LIG    1        1.292   1.762  -0.001  0.00  0.00    -0.040 A 
ATOM      9  C   LIG    1       -0.017   1.419   0.010  0.00  0.00    +0.040 A 
BRANCH   8  10
ATOM     10  C   LIG    1        1.855   3.159   0.001  0.00  0.00    +0.330 C 
BRANCH  10  11
ATOM     11  O   LIG    1        2.046   3.594   1.349  0.00  0.00    -0.310 OA
BRANCH  11  12
ATOM     12  C   LIG    1        2.552   4.843   1.529  0.00  0.00    +0.130 A 
ATOM     13  C   LIG    1        2.863   5.631   0.431  0.00  0.00    -0.080 A 
ATOM     14  C   LIG    1        3.372   6.902   0.617  0.00  0.00    +0.050 A 
ATOM     15  C   LIG    1        3.581   7.384   1.895  0.00  0.00    -0.020 A 
ATOM     16  C   LIG    1        3.277   6.598   2.991  0.00  0.00    +0.050 A 
ATOM     17  C   LIG    1        2.763   5.329   2.811  0.00  0.00    -0.020 A 
ENDBRANCH  11  12
ENDBRANCH  10  11
ENDBRANCH   8  10
ENDBRANCH   2   5
BRANCH   3  18
ATOM     18  C   LIG    1       -2.149  -3.143   0.005  0.00  0.00    +0.230 C 
BRANCH  18  19
ATOM     19  C   LIG    1       -1.670  -4.596  -0.007  0.00  0.00    +0.230 C 
BRANCH  19  20
ATOM     20  N   LIG    1       -2.832  -5.495  -0.002  0.00  0.00    -0.520 NA
ATOM     21  C   LIG    1       -3.600  -5.370  -1.247  0.00  0.00    +0.160 C 
ATOM     22  C   LIG    1       -4.714  -6.419  -1.268  0.00  0.00    +0.030 C 
ATOM     23  C   LIG    1       -5.629  -6.210  -0.059  0.00  0.00    -0.020 C 
ATOM     24  C   LIG    1       -4.796  -6.297   1.223  0.00  0.00    +0.180 C 
ATOM     25  C   LIG    1       -3.680  -5.251   1.172  0.00  0.00    +0.180 C 
BRANCH  24  26
ATOM     26  O   LIG    1       -5.633  -6.048   2.354  0.00  0.00    -0.570 OA
ATOM     27  H   LIG    1       -6.365  -6.673   2.447  0.00  0.00    +0.380 HD
ENDBRANCH  24  26
ENDBRANCH  19  20
ENDBRANCH  18  19
ENDBRANCH   3  18
TORSDOF 8
