REMARK  Name = ZINCrH000004tsZW.0
REMARK                            x       y       z     vdW  Elec       q    Type
REMARK                         _______ _______ _______ _____ _____    ______ ____
ROOT
ATOM      1  N   LIG    1        9.856  -4.317  -0.114  0.00  0.00    -0.670 N 
ATOM      2  H   LIG    1       10.451  -3.553  -0.066  0.00  0.00    +0.420 HD
ATOM      3  C   LIG    1        8.530  -4.130  -0.271  0.00  0.00    +0.520 C 
ATOM      4  O   LIG    1        7.798  -5.084  -0.427  0.00  0.00    -0.490 OA
ENDROOT
BRANCH   1   8
ATOM      5  C   LIG    1       11.397  -8.177   0.168  0.00  0.00    -0.160 A 
ATOM      6  C   LIG    1       12.145  -7.167  -0.445  0.00  0.00    +0.100 A 
ATOM      7  C   LIG    1       11.632  -5.893  -0.536  0.00  0.00    -0.010 A 
ATOM      8  C   LIG    1       10.371  -5.609  -0.020  0.00  0.00    +0.180 A 
ATOM      9  C   LIG    1        9.627  -6.611   0.595  0.00  0.00    +0.010 A 
ATOM     10  C   LIG    1       10.131  -7.889   0.685  0.00  0.00    +0.070 A 
BRANCH   5  14
ATOM     11  N   LIG    1       11.222 -10.517   0.859  0.00  0.00    -0.850 N 
ATOM     12  H   LIG    1       11.581 -11.415   0.925  0.00  0.00    +0.410 HD
ATOM     13  H   LIG    1       10.343 -10.318   1.218  0.00  0.00    +0.400 HD
ATOM     14  C   LIG    1       11.944  -9.544   0.268  0.00  0.00    +0.560 C 
ATOM     15  O   LIG    1       13.046  -9.793  -0.182  0.00  0.00    -0.540 OA
ENDBRANCH   5  14
ENDBRANCH   1   8
BRANCH   3  16
ATOM     16  C   LIG    1        7.958  -2.736  -0.253  0.00  0.00    +0.240 C 
BRANCH  16  17
ATOM     17  O   LIG    1        6.543  -2.800  -0.438  0.00  0.00    -0.290 OA
BRANCH  17  18
ATOM     18  C   LIG    1        5.868  -1.619  -0.447  0.00  0.00    +0.110 A 
ATOM     19  C   LIG    1        4.495  -1.608  -0.622  0.00  0.00    +0.050 A 
ATOM     20  C   LIG    1        3.812  -0.397  -0.631  0.00  0.00    -0.080 A 
ATOM     21  C   LIG    1        4.506   0.809  -0.463  0.00  0.00    +0.050 A 
ATOM     22  O   LIG    1        3.616   1.826  -0.510  0.00  0.00    -0.200 OA
ATOM     23  C   LIG    1        2.357   1.375  -0.701  0.00  0.00    +0.090 A 
ATOM     24  C   LIG    1        1.135   2.029  -0.814  0.00  0.00    +0.020 A 
ATOM     25  C   LIG    1       -0.021   1.304  -1.010  0.00  0.00    +0.060 A 
ATOM     26  C   LIG    1        0.018  -0.078  -1.095  0.00  0.00    +0.000 A 
ATOM     27  C   LIG    1        1.220  -0.745  -0.985  0.00  0.00    +0.070 A 
ATOM     28  C   LIG    1        5.884   0.780  -0.288  0.00  0.00    +0.070 A 
ATOM     29  C   LIG    1        2.393  -0.024  -0.788  0.00  0.00    -0.130 A 
ATOM     30  C   LIG    1        6.557  -0.423  -0.281  0.00  0.00    -0.030 A 
ENDBRANCH  17  18
ENDBRANCH  16  17
ENDBRANCH   3  16
TORSDOF 5
