REMARK  Name = ZINCnE000001PvSk.1
REMARK                            x       y       z     vdW  Elec       q    Type
REMARK                         _______ _______ _______ _____ _____    ______ ____
ROOT
ATOM      1  C   LIG    1       -4.502  -0.120   3.001  0.00  0.00    +0.380 A 
ATOM      2  N   LIG    1       -5.585  -0.737   3.357  0.00  0.00    -0.550 NA
ATOM      3  C   LIG    1       -5.802  -0.871   4.657  0.00  0.00    +0.130 A 
ATOM      4  C   LIG    1       -4.858  -0.342   5.457  0.00  0.00    -0.190 A 
ATOM      5  S   LIG    1       -3.607   0.367   4.438  0.00  0.00    -0.020 S 
ENDROOT
BRANCH   3   6
ATOM      6  C   LIG    1       -7.002  -1.557   5.195  0.00  0.00    +0.020 A 
ATOM      7  C   LIG    1       -7.237  -1.581   6.569  0.00  0.00    +0.010 A 
ATOM      8  C   LIG    1       -8.355  -2.220   7.066  0.00  0.00    +0.010 A 
ATOM      9  C   LIG    1       -9.244  -2.837   6.205  0.00  0.00    -0.040 A 
ATOM     10  C   LIG    1       -9.017  -2.817   4.836  0.00  0.00    +0.100 A 
ATOM     11  C   LIG    1       -7.901  -2.174   4.327  0.00  0.00    +0.020 A 
BRANCH  10  12
ATOM     12  O   LIG    1       -9.894  -3.424   3.993  0.00  0.00    -0.500 OA
ATOM     13  H   LIG    1      -10.606  -2.847   3.684  0.00  0.00    +0.390 HD
ENDBRANCH  10  12
ENDBRANCH   3   6
BRANCH   1  15
ATOM     14  C   LIG    1       -2.954   0.770   1.442  0.00  0.00    +0.460 C 
ATOM     15  N   LIG    1       -4.105   0.115   1.690  0.00  0.00    -0.660 NA
ATOM     16  O   LIG    1       -2.264   1.155   2.362  0.00  0.00    -0.600 OA
BRANCH  14  17
ATOM     17  C   LIG    1       -2.524   1.026   0.020  0.00  0.00    +0.110 C 
BRANCH  17  22
ATOM     18  C   LIG    1        2.389   3.982   0.000  0.00  0.00    +0.110 C 
ATOM     19  C   LIG    1        1.111   3.182   0.008  0.00  0.00    +0.110 A 
ATOM     20  C   LIG    1        1.169   1.802   0.001  0.00  0.00    -0.040 A 
ATOM     21  C   LIG    1       -0.013   1.076   0.008  0.00  0.00    +0.070 A 
ATOM     22  C   LIG    1       -1.213   1.769   0.017  0.00  0.00    -0.100 A 
ATOM     23  C   LIG    1       -1.192   3.151   0.030  0.00  0.00    +0.260 A 
ATOM     24  N   LIG    1       -0.050   3.809   0.022  0.00  0.00    -0.490 NA
ENDBRANCH  17  22
ENDBRANCH  14  17
ENDBRANCH   1  15
TORSDOF 5
