REMARK  Name = ZINCvU00000007YJ.0
REMARK                            x       y       z     vdW  Elec       q    Type
REMARK                         _______ _______ _______ _____ _____    ______ ____
ROOT
ATOM      1  C   LIG    1       -4.375   3.148  -5.707  0.00  0.00    +0.040 A 
ATOM      2  C   LIG    1       -3.087   3.391  -5.319  0.00  0.00    -0.210 A 
ATOM      3  C   LIG    1       -2.111   3.110  -6.356  0.00  0.00    -0.050 A 
ATOM      4  C   LIG    1       -2.679   2.674  -7.486  0.00  0.00    -0.250 A 
ATOM      5  C   LIG    1       -1.911   2.301  -8.740  0.00  0.00    +0.120 C 
ATOM      6  C   LIG    1       -0.500   2.887  -8.645  0.00  0.00    +0.020 C 
ATOM      7  C   LIG    1        0.107   2.512  -7.290  0.00  0.00    +0.020 C 
ATOM      8  C   LIG    1       -0.611   3.289  -6.185  0.00  0.00    +0.090 C 
ATOM      9  S   LIG    1       -4.425   2.593  -7.316  0.00  0.00    +0.290 S 
ENDROOT
BRANCH   1  11
ATOM     10  C   LIG    1       -6.718   3.061  -5.383  0.00  0.00    +0.560 C 
ATOM     11  N   LIG    1       -5.488   3.331  -4.903  0.00  0.00    -0.630 N 
ATOM     12  H   LIG    1       -5.382   3.654  -3.994  0.00  0.00    +0.420 HD
ATOM     13  O   LIG    1       -6.851   2.657  -6.521  0.00  0.00    -0.500 OA
BRANCH  10  17
ATOM     14  C   LIG    1      -10.130   3.622  -2.916  0.00  0.00    -0.030 A 
ATOM     15  C   LIG    1      -10.285   3.162  -4.212  0.00  0.00    +0.010 A 
ATOM     16  C   LIG    1       -9.181   2.978  -5.018  0.00  0.00    +0.090 A 
ATOM     17  C   LIG    1       -7.905   3.257  -4.524  0.00  0.00    -0.140 A 
ATOM     18  C   LIG    1       -7.756   3.715  -3.214  0.00  0.00    +0.040 A 
ATOM     19  C   LIG    1       -8.869   3.899  -2.420  0.00  0.00    +0.010 A 
BRANCH  14  21
ATOM     20  C   LIG    1      -12.076   2.488  -1.877  0.00  0.00    +0.040 C 
ATOM     21  C   LIG    1      -11.341   3.820  -2.041  0.00  0.00    -0.040 C 
ATOM     22  C   LIG    1      -12.276   4.843  -2.688  0.00  0.00    +0.040 C 
ATOM     23  C   LIG    1      -10.899   4.331  -0.668  0.00  0.00    +0.030 C 
ENDBRANCH  14  21
ENDBRANCH  10  17
ENDBRANCH   1  11
BRANCH   2  24
ATOM     24  C   LIG    1       -2.727   3.882  -3.985  0.00  0.00    +0.580 C 
ATOM     25  N   LIG    1       -2.474   3.008  -2.991  0.00  0.00    -0.720 N 
ATOM     26  H   LIG    1       -2.530   2.054  -3.158  0.00  0.00    +0.410 HD
ATOM     27  O   LIG    1       -2.656   5.079  -3.776  0.00  0.00    -0.530 OA
BRANCH  25  28
ATOM     28  C   LIG    1       -2.114   3.498  -1.658  0.00  0.00    +0.280 C 
BRANCH  28  29
ATOM     29  C   LIG    1       -1.880   2.309  -0.724  0.00  0.00    +0.150 C 
ATOM     30  C   LIG    1       -1.552   2.804   0.708  0.00  0.00    +0.020 C 
ATOM     31  C   LIG    1       -0.753   1.593   1.264  0.00  0.00    +0.010 C 
ATOM     32  C   LIG    1       -0.013   1.086   0.008  0.00  0.00    +0.190 C 
ATOM     33  O   LIG    1       -0.722   1.569  -1.139  0.00  0.00    -0.380 OA
ENDBRANCH  28  29
ENDBRANCH  25  28
ENDBRANCH   2  24
TORSDOF 6
