REMARK  Name = ZINCqH0000007r0Q.0
REMARK                            x       y       z     vdW  Elec       q    Type
REMARK                         _______ _______ _______ _____ _____    ______ ____
ROOT
ATOM      1  C   LIG    1       -2.575   1.074  -0.449  0.00  0.00    +0.540 C 
ATOM      2  N   LIG    1       -2.546  -0.096  -1.335  0.00  0.00    -0.750 N 
ATOM      3  H   LIG    1       -2.332  -0.976  -0.988  0.00  0.00    +0.410 HD
ATOM      4  C   LIG    1       -2.834   0.086  -2.683  0.00  0.00    +0.240 A 
ATOM      5  C   LIG    1       -2.285  -0.721  -3.665  0.00  0.00    -0.050 A 
ATOM      6  C   LIG    1       -2.600  -0.494  -4.991  0.00  0.00    +0.080 A 
ATOM      7  C   LIG    1       -3.458   0.534  -5.346  0.00  0.00    -0.040 A 
ATOM      8  C   LIG    1       -4.016   1.346  -4.379  0.00  0.00    +0.110 A 
ATOM      9  C   LIG    1       -3.709   1.127  -3.039  0.00  0.00    -0.200 A 
ATOM     10  C   LIG    1       -4.284   1.958  -1.966  0.00  0.00    +0.570 C 
ATOM     11  O   LIG    1       -5.224   2.695  -2.195  0.00  0.00    -0.530 OA
ATOM     12  N   LIG    1       -3.755   1.892  -0.726  0.00  0.00    -0.610 N 
ENDROOT
BRANCH   1  16
ATOM     13  C   LIG    1        0.945   3.416  -1.075  0.00  0.00    +0.130 A 
ATOM     14  C   LIG    1        0.754   2.757   0.131  0.00  0.00    -0.080 A 
ATOM     15  C   LIG    1       -0.383   1.998   0.330  0.00  0.00    +0.080 A 
ATOM     16  C   LIG    1       -1.333   1.898  -0.670  0.00  0.00    -0.130 A 
ATOM     17  C   LIG    1       -1.143   2.550  -1.875  0.00  0.00    +0.070 A 
ATOM     18  C   LIG    1       -0.007   3.310  -2.079  0.00  0.00    -0.120 A 
ATOM     19  C   LIG    1        0.197   4.024  -3.390  0.00  0.00    +0.100 C 
BRANCH  13  21
ATOM     20  C   LIG    1        2.999   4.226  -0.196  0.00  0.00    +0.230 C 
ATOM     21  O   LIG    1        2.062   4.163  -1.273  0.00  0.00    -0.320 OA
ENDBRANCH  13  21
ENDBRANCH   1  16
BRANCH  12  22
ATOM     22  C   LIG    1       -4.374   2.654   0.361  0.00  0.00    +0.310 C 
BRANCH  22  23
ATOM     23  C   LIG    1       -3.782   4.064   0.399  0.00  0.00    +0.130 C 
ATOM     24  C   LIG    1       -4.530   4.919   1.439  0.00  0.00    +0.010 C 
ATOM     25  C   LIG    1       -3.426   5.368   2.427  0.00  0.00    +0.010 C 
ATOM     26  C   LIG    1       -2.141   5.196   1.577  0.00  0.00    +0.200 C 
ATOM     27  O   LIG    1       -2.403   4.004   0.802  0.00  0.00    -0.350 OA
ENDBRANCH  22  23
ENDBRANCH  12  22
TORSDOF 4
