REMARK  Name = ZINCvU0000000GWI.0
REMARK                            x       y       z     vdW  Elec       q    Type
REMARK                         _______ _______ _______ _____ _____    ______ ____
ROOT
ATOM      1  C   LIG    1       -0.139  12.237   2.676  0.00  0.00    +0.510 C 
ATOM      2  N   LIG    1       -0.141  11.570   1.505  0.00  0.00    -0.730 N 
ATOM      3  H   LIG    1       -0.156  12.059   0.668  0.00  0.00    +0.400 HD
ATOM      4  O   LIG    1       -0.121  11.625   3.723  0.00  0.00    -0.500 OA
ENDROOT
BRANCH   1   5
ATOM      5  C   LIG    1       -0.160  13.744   2.685  0.00  0.00    +0.240 C 
BRANCH   5   6
ATOM      6  O   LIG    1       -0.153  14.213   4.034  0.00  0.00    -0.270 OA
BRANCH   6  11
ATOM      7  C   LIG    1       -0.221  19.800   4.783  0.00  0.00    +0.100 C 
ATOM      8  C   LIG    1       -0.203  18.305   4.593  0.00  0.00    -0.120 A 
ATOM      9  C   LIG    1       -0.208  17.775   3.314  0.00  0.00    +0.100 A 
ATOM     10  C   LIG    1       -0.186  16.407   3.127  0.00  0.00    -0.090 A 
ATOM     11  C   LIG    1       -0.170  15.556   4.219  0.00  0.00    +0.190 A 
ATOM     12  C   LIG    1       -0.165  16.089   5.524  0.00  0.00    -0.220 A 
ATOM     13  C   LIG    1       -0.144  15.406   6.824  0.00  0.00    +0.400 C 
ATOM     14  O   LIG    1       -0.126  14.205   6.996  0.00  0.00    -0.430 OA
ATOM     15  C   LIG    1       -0.148  16.456   7.908  0.00  0.00    +0.050 C 
ATOM     16  C   LIG    1       -0.173  17.802   7.170  0.00  0.00    +0.050 C 
ATOM     17  C   LIG    1        1.073  18.617   7.521  0.00  0.00    +0.050 C 
ATOM     18  C   LIG    1       -0.181  17.475   5.696  0.00  0.00    -0.000 A 
ENDBRANCH   6  11
ENDBRANCH   5   6
ENDBRANCH   1   5
BRANCH   2  19
ATOM     19  C   LIG    1       -0.121  10.105   1.497  0.00  0.00    +0.270 C 
BRANCH  19  20
ATOM     20  C   LIG    1       -0.128   9.603   0.052  0.00  0.00    +0.070 C 
BRANCH  20  21
ATOM     21  C   LIG    1       -0.108   8.096   0.044  0.00  0.00    -0.080 A 
ATOM     22  C   LIG    1       -1.298   7.391   0.051  0.00  0.00    +0.020 A 
ATOM     23  C   LIG    1       -1.285   6.011   0.044  0.00  0.00    +0.020 A 
ATOM     24  C   LIG    1       -0.070   5.328   0.029  0.00  0.00    -0.040 A 
ATOM     25  C   LIG    1        1.125   6.043   0.027  0.00  0.00    +0.020 A 
ATOM     26  C   LIG    1        1.101   7.423   0.029  0.00  0.00    +0.020 A 
BRANCH  24  27
ATOM     27  C   LIG    1       -0.050   3.844   0.022  0.00  0.00    -0.050 A 
ATOM     28  C   LIG    1        1.164   3.161   0.007  0.00  0.00    +0.020 A 
ATOM     29  C   LIG    1        1.177   1.781   0.000  0.00  0.00    +0.010 A 
ATOM     30  C   LIG    1       -0.013   1.076   0.008  0.00  0.00    +0.000 A 
ATOM     31  C   LIG    1       -1.221   1.748   0.017  0.00  0.00    +0.000 A 
ATOM     32  C   LIG    1       -1.246   3.128   0.030  0.00  0.00    +0.020 A 
ENDBRANCH  24  27
ENDBRANCH  20  21
ENDBRANCH  19  20
ENDBRANCH   2  19
TORSDOF 7
