REMARK  Name = ZINCrH000004joLQ.0
REMARK                            x       y       z     vdW  Elec       q    Type
REMARK                         _______ _______ _______ _____ _____    ______ ____
ROOT
ATOM      1  N   LIG    1       -2.446   1.566   0.023  0.00  0.00    -0.700 N 
ATOM      2  H   LIG    1       -2.531   0.600   0.019  0.00  0.00    +0.420 HD
ATOM      3  C   LIG    1       -1.223   2.134   0.020  0.00  0.00    +0.600 C 
ATOM      4  O   LIG    1       -1.115   3.345   0.025  0.00  0.00    -0.510 OA
ENDROOT
BRANCH   3   5
ATOM      5  C   LIG    1       -0.015   1.286   0.009  0.00  0.00    +0.050 C 
ATOM      6  N   LIG    1        0.002  -0.004   0.002  0.00  0.00    -0.230 NA
ATOM      7  O   LIG    1        1.312  -0.536  -0.006  0.00  0.00    -0.170 OA
ATOM      8  C   LIG    1        2.208   0.517  -0.417  0.00  0.00    +0.190 C 
ATOM      9  C   LIG    1        1.418   1.781  -0.002  0.00  0.00    +0.110 C 
BRANCH   8  10
ATOM     10  C   LIG    1        3.517   0.431   0.324  0.00  0.00    -0.100 A 
ATOM     11  C   LIG    1        3.543  -0.013   1.633  0.00  0.00    +0.030 A 
ATOM     12  C   LIG    1        4.745  -0.097   2.311  0.00  0.00    +0.010 A 
ATOM     13  C   LIG    1        5.920   0.273   1.683  0.00  0.00    +0.020 A 
ATOM     14  C   LIG    1        5.893   0.723   0.376  0.00  0.00    +0.010 A 
ATOM     15  C   LIG    1        4.692   0.801  -0.304  0.00  0.00    +0.030 A 
ENDBRANCH   8  10
ENDBRANCH   3   5
BRANCH   1  16
ATOM     16  C   LIG    1       -3.644   2.408   0.034  0.00  0.00    +0.340 C 
ATOM     17  C   LIG    1       -3.997   2.812  -1.400  0.00  0.00    +0.060 C 
BRANCH  16  26
ATOM     18  N   LIG    1       -5.663   2.135   1.557  0.00  0.00    -0.480 N 
ATOM     19  C   LIG    1       -6.561   1.130   1.854  0.00  0.00    +0.050 A 
ATOM     20  C   LIG    1       -7.656   1.031   2.702  0.00  0.00    +0.010 A 
ATOM     21  C   LIG    1       -8.364  -0.150   2.768  0.00  0.00    +0.030 A 
ATOM     22  C   LIG    1       -7.989  -1.239   1.995  0.00  0.00    +0.000 A 
ATOM     23  C   LIG    1       -6.914  -1.160   1.155  0.00  0.00    +0.070 A 
ATOM     24  C   LIG    1       -6.182   0.027   1.071  0.00  0.00    +0.050 A 
ATOM     25  N   LIG    1       -5.099   0.409   0.347  0.00  0.00    -0.480 NA
ATOM     26  C   LIG    1       -4.792   1.640   0.636  0.00  0.00    +0.260 A 
BRANCH  18  28
ATOM     27  C   LIG    1       -6.507   4.412   1.265  0.00  0.00    +0.040 C 
ATOM     28  C   LIG    1       -5.649   3.484   2.128  0.00  0.00    +0.290 C 
ENDBRANCH  18  28
ENDBRANCH  16  26
ENDBRANCH   1  16
TORSDOF 5
