REMARK  Name = ZINCpk00000y6u6W.0
REMARK                            x       y       z     vdW  Elec       q    Type
REMARK                         _______ _______ _______ _____ _____    ______ ____
ROOT
ATOM      1  S   LIG    1        0.539  -1.710   4.956  0.00  0.00    +2.690 S 
ATOM      2  O   LIG    1        1.272  -0.498   4.833  0.00  0.00    -0.950 OA
ATOM      3  O   LIG    1       -0.699  -1.939   4.299  0.00  0.00    -0.910 OA
ENDROOT
BRANCH   1  10
ATOM      4  C   LIG    1       -0.982  -4.051   6.121  0.00  0.00    +0.120 C 
ATOM      5  C   LIG    1       -0.468  -3.041   7.116  0.00  0.00    +0.080 A 
ATOM      6  C   LIG    1       -0.704  -3.220   8.466  0.00  0.00    -0.020 A 
ATOM      7  C   LIG    1       -0.232  -2.294   9.378  0.00  0.00    +0.180 A 
ATOM      8  C   LIG    1        0.475  -1.191   8.940  0.00  0.00    -0.690 A 
ATOM      9  C   LIG    1        0.706  -1.010   7.589  0.00  0.00    +0.230 A 
ATOM     10  C   LIG    1        0.239  -1.937   6.677  0.00  0.00    -0.700 A 
BRANCH   8  11
ATOM     11  S   LIG    1        1.076  -0.011  10.103  0.00  0.00    +2.500 S 
ATOM     12  O   LIG    1        1.280   1.166   9.334  0.00  0.00    -0.930 OA
ATOM     13  O   LIG    1        0.125  -0.043  11.158  0.00  0.00    -0.930 OA
ATOM     14  C   LIG    1        2.664  -0.691  10.658  0.00  0.00    -0.250 C 
ENDBRANCH   8  11
ENDBRANCH   1  10
BRANCH   1  15
ATOM     15  N   LIG    1        1.558  -2.922   4.472  0.00  0.00    -1.010 NA
ATOM     16  C   LIG    1        2.912  -3.169   5.001  0.00  0.00    +0.260 C 
ATOM     17  C   LIG    1        3.175  -4.672   4.730  0.00  0.00    +0.040 C 
ATOM     18  C   LIG    1        2.486  -4.866   3.353  0.00  0.00    +0.050 C 
ATOM     19  C   LIG    1        1.259  -3.935   3.449  0.00  0.00    +0.240 C 
BRANCH  19  20
ATOM     20  C   LIG    1        1.018  -3.256   2.100  0.00  0.00    +0.310 C 
BRANCH  20  21
ATOM     21  N   LIG    1       -0.254  -2.530   2.139  0.00  0.00    -0.380 N 
ATOM     22  C   LIG    1       -0.422  -1.210   1.911  0.00  0.00    +0.190 A 
ATOM     23  C   LIG    1       -1.740  -0.934   2.041  0.00  0.00    -0.110 A 
ATOM     24  C   LIG    1       -2.400  -2.126   2.360  0.00  0.00    +0.240 A 
ATOM     25  N   LIG    1       -1.511  -3.084   2.413  0.00  0.00    -0.260 NA
ENDBRANCH  20  21
ENDBRANCH  19  20
ENDBRANCH   1  15
TORSDOF 5
