REMARK  Name = ZINCnE000004ReU6.0
REMARK                            x       y       z     vdW  Elec       q    Type
REMARK                         _______ _______ _______ _____ _____    ______ ____
ROOT
ATOM      1  C   LIG    1       -1.256  -0.754   0.010  0.00  0.00    +0.300 C 
ENDROOT
BRANCH   1   5
ATOM      2  C   LIG    1       -0.419  -4.942  -0.021  0.00  0.00    -0.050 A 
ATOM      3  C   LIG    1       -0.543  -4.271   1.181  0.00  0.00    +0.010 A 
ATOM      4  C   LIG    1       -0.814  -2.916   1.191  0.00  0.00    +0.040 A 
ATOM      5  C   LIG    1       -0.961  -2.232  -0.001  0.00  0.00    -0.090 A 
ATOM      6  C   LIG    1       -0.843  -2.904  -1.203  0.00  0.00    +0.040 A 
ATOM      7  C   LIG    1       -0.567  -4.258  -1.213  0.00  0.00    +0.020 A 
BRANCH   2   8
ATOM      8  C   LIG    1       -0.123  -6.420  -0.031  0.00  0.00    -0.010 C 
ATOM      9  C   LIG    1        1.251  -6.861  -0.540  0.00  0.00    +0.090 C 
ATOM     10  C   LIG    1        0.004  -7.105  -1.393  0.00  0.00    +0.090 C 
BRANCH   8  12
ATOM     11  N   LIG    1       -1.186  -7.795   1.914  0.00  0.00    -0.420 NA
ATOM     12  C   LIG    1       -0.723  -7.196   1.067  0.00  0.00    +0.240 C 
ENDBRANCH   8  12
ENDBRANCH   2   8
ENDBRANCH   1   5
BRANCH   1  13
ATOM     13  N   LIG    1        0.002  -0.004   0.002  0.00  0.00    -0.750 N 
ATOM     14  H   LIG    1        0.849  -0.478  -0.009  0.00  0.00    +0.390 HD
BRANCH  13  15
ATOM     15  C   LIG    1       -0.017   1.393   0.010  0.00  0.00    +0.190 A 
ATOM     16  C   LIG    1       -1.228   2.072   0.019  0.00  0.00    -0.080 A 
ATOM     17  C   LIG    1       -1.243   3.453   0.031  0.00  0.00    +0.040 A 
ATOM     18  C   LIG    1       -0.054   4.159   0.024  0.00  0.00    -0.070 A 
ATOM     19  C   LIG    1        1.153   3.486   0.009  0.00  0.00    +0.040 A 
ATOM     20  C   LIG    1        1.176   2.105   0.002  0.00  0.00    -0.080 A 
BRANCH  18  21
ATOM     21  C   LIG    1       -0.075   5.666   0.032  0.00  0.00    -0.030 C 
BRANCH  21  22
ATOM     22  C   LIG    1       -0.095   6.176  -1.386  0.00  0.00    +0.490 C 
ATOM     23  O   LIG    1       -0.113   7.375  -1.603  0.00  0.00    -0.710 OA
ATOM     24  O   LIG    1       -0.093   5.388  -2.317  0.00  0.00    -0.690 OA
ENDBRANCH  21  22
ENDBRANCH  18  21
ENDBRANCH  13  15
ENDBRANCH   1  13
TORSDOF 7
