REMARK  Name = ZINCqH0000034L0e.1
REMARK                            x       y       z     vdW  Elec       q    Type
REMARK                         _______ _______ _______ _____ _____    ______ ____
ROOT
ATOM      1  N   LIG    1       -2.577   7.272  -2.442  0.00  0.00    -0.670 N 
ATOM      2  H   LIG    1       -2.401   8.216  -2.309  0.00  0.00    +0.410 HD
ATOM      3  C   LIG    1       -1.976   6.356  -1.657  0.00  0.00    +0.590 C 
ATOM      4  O   LIG    1       -2.267   5.180  -1.762  0.00  0.00    -0.520 OA
ENDROOT
BRANCH   1   8
ATOM      5  C   LIG    1       -5.195   6.045  -5.446  0.00  0.00    +0.150 A 
ATOM      6  C   LIG    1       -5.417   7.242  -4.778  0.00  0.00    +0.000 A 
ATOM      7  C   LIG    1       -4.551   7.648  -3.784  0.00  0.00    +0.000 A 
ATOM      8  C   LIG    1       -3.457   6.860  -3.451  0.00  0.00    +0.140 A 
ATOM      9  C   LIG    1       -3.232   5.665  -4.123  0.00  0.00    +0.040 A 
ATOM     10  C   LIG    1       -4.101   5.257  -5.114  0.00  0.00    +0.040 A 
BRANCH   5  15
ATOM     11  C   LIG    1       -7.571   2.511  -7.696  0.00  0.00    +0.300 C 
ATOM     12  N   LIG    1       -7.269   3.934  -7.524  0.00  0.00    -0.750 N 
ATOM     13  H   LIG    1       -7.728   4.596  -8.064  0.00  0.00    +0.400 HD
ATOM     14  C   LIG    1       -6.353   4.323  -6.614  0.00  0.00    +0.700 C 
ATOM     15  N   LIG    1       -6.075   5.633  -6.456  0.00  0.00    -0.690 N 
ATOM     16  H   LIG    1       -6.484   6.290  -7.041  0.00  0.00    +0.410 HD
ATOM     17  O   LIG    1       -5.778   3.493  -5.937  0.00  0.00    -0.570 OA
ENDBRANCH   5  15
ENDBRANCH   1   8
BRANCH   3  18
ATOM     18  C   LIG    1       -0.968   6.780  -0.672  0.00  0.00    -0.290 A 
ATOM     19  C   LIG    1       -0.266   5.953   0.204  0.00  0.00    +0.210 A 
ATOM     20  N   LIG    1        0.549   6.748   0.932  0.00  0.00    -0.450 N 
ATOM     21  H   LIG    1        1.158   6.452   1.628  0.00  0.00    +0.450 HD
ATOM     22  N   LIG    1        0.369   8.069   0.510  0.00  0.00    -0.280 NA
ATOM     23  C   LIG    1       -0.528   8.100  -0.436  0.00  0.00    +0.280 A 
BRANCH  19  24
ATOM     24  C   LIG    1       -0.395   4.486   0.320  0.00  0.00    -0.060 A 
ATOM     25  C   LIG    1        0.747   3.687   0.407  0.00  0.00    +0.050 A 
ATOM     26  C   LIG    1        0.621   2.318   0.515  0.00  0.00    +0.020 A 
ATOM     27  C   LIG    1       -0.635   1.735   0.538  0.00  0.00    -0.010 A 
ATOM     28  C   LIG    1       -1.772   2.522   0.447  0.00  0.00    +0.030 A 
ATOM     29 CL   LIG    1       -0.786   0.011   0.674  0.00  0.00    -0.060 Cl
ATOM     30  C   LIG    1       -1.659   3.892   0.343  0.00  0.00    +0.120 A 
ENDBRANCH  19  24
ENDBRANCH   3  18
TORSDOF 4
