REMARK  Name = ZINCqH0000034L0e.0
REMARK                            x       y       z     vdW  Elec       q    Type
REMARK                         _______ _______ _______ _____ _____    ______ ____
ROOT
ATOM      1  N   LIG    1        2.088   7.141  -2.055  0.00  0.00    -0.670 N 
ATOM      2  H   LIG    1        3.006   7.442  -1.964  0.00  0.00    +0.410 HD
ATOM      3  C   LIG    1        1.665   6.056  -1.376  0.00  0.00    +0.590 C 
ATOM      4  O   LIG    1        0.493   5.733  -1.417  0.00  0.00    -0.510 OA
ENDROOT
BRANCH   1   8
ATOM      5  C   LIG    1       -0.545   9.203  -4.544  0.00  0.00    +0.150 A 
ATOM      6  C   LIG    1        0.447   9.893  -3.860  0.00  0.00    +0.000 A 
ATOM      7  C   LIG    1        1.319   9.210  -3.035  0.00  0.00    +0.000 A 
ATOM      8  C   LIG    1        1.204   7.834  -2.890  0.00  0.00    +0.130 A 
ATOM      9  C   LIG    1        0.214   7.144  -3.579  0.00  0.00    +0.040 A 
ATOM     10  C   LIG    1       -0.661   7.827  -4.399  0.00  0.00    +0.040 A 
BRANCH   5  15
ATOM     11  C   LIG    1       -4.987   9.799  -6.308  0.00  0.00    +0.300 C 
ATOM     12  N   LIG    1       -3.589  10.225  -6.206  0.00  0.00    -0.750 N 
ATOM     13  H   LIG    1       -3.291  11.026  -6.665  0.00  0.00    +0.400 HD
ATOM     14  C   LIG    1       -2.716   9.504  -5.474  0.00  0.00    +0.700 C 
ATOM     15  N   LIG    1       -1.430   9.896  -5.381  0.00  0.00    -0.690 N 
ATOM     16  H   LIG    1       -1.117  10.659  -5.893  0.00  0.00    +0.410 HD
ATOM     17  O   LIG    1       -3.089   8.500  -4.899  0.00  0.00    -0.570 OA
ENDBRANCH   5  15
ENDBRANCH   1   8
BRANCH   3  18
ATOM     18  C   LIG    1        2.621   5.262  -0.586  0.00  0.00    -0.290 A 
ATOM     19  C   LIG    1        3.972   5.500  -0.442  0.00  0.00    +0.310 A 
ATOM     20  N   LIG    1        4.475   4.546   0.357  0.00  0.00    -0.460 N 
ATOM     21  H   LIG    1        5.405   4.475   0.625  0.00  0.00    +0.450 HD
ATOM     22  N   LIG    1        3.455   3.676   0.750  0.00  0.00    -0.280 NA
ATOM     23  C   LIG    1        2.325   4.063   0.204  0.00  0.00    +0.180 A 
BRANCH  23  24
ATOM     24  C   LIG    1        1.001   3.415   0.361  0.00  0.00    -0.030 A 
ATOM     25  C   LIG    1        0.910   2.028   0.468  0.00  0.00    +0.060 A 
ATOM     26  C   LIG    1       -0.325   1.429   0.613  0.00  0.00    +0.020 A 
ATOM     27  C   LIG    1       -1.472   2.203   0.649  0.00  0.00    -0.020 A 
ATOM     28  C   LIG    1       -1.387   3.581   0.549  0.00  0.00    +0.020 A 
ATOM     29 CL   LIG    1       -3.023   1.444   0.826  0.00  0.00    -0.070 Cl
ATOM     30  C   LIG    1       -0.157   4.190   0.403  0.00  0.00    +0.110 A 
ENDBRANCH  23  24
ENDBRANCH   3  18
TORSDOF 4
