REMARK  Name = ZINCqH0000001G9l.0
REMARK                            x       y       z     vdW  Elec       q    Type
REMARK                         _______ _______ _______ _____ _____    ______ ____
ROOT
ATOM      1  C   LIG    1       -4.789   8.102  -1.506  0.00  0.00    +0.260 C 
ENDROOT
BRANCH   1   2
ATOM      2  C   LIG    1       -4.166   7.001  -0.688  0.00  0.00    +0.520 C 
ATOM      3  N   LIG    1       -3.751   5.868  -1.288  0.00  0.00    -0.670 N 
ATOM      4  H   LIG    1       -3.799   5.785  -2.253  0.00  0.00    +0.420 HD
ATOM      5  O   LIG    1       -4.037   7.134   0.511  0.00  0.00    -0.510 OA
BRANCH   3   6
ATOM      6  C   LIG    1       -3.252   4.811  -0.519  0.00  0.00    +0.140 A 
ATOM      7  C   LIG    1       -3.495   3.498  -0.899  0.00  0.00    -0.010 A 
ATOM      8  C   LIG    1       -3.000   2.459  -0.137  0.00  0.00    +0.040 A 
ATOM      9  C   LIG    1       -2.261   2.721   1.006  0.00  0.00    -0.110 A 
ATOM     10  C   LIG    1       -1.621   1.768   1.998  0.00  0.00    +0.080 C 
ATOM     11  C   LIG    1       -1.334   2.626   3.248  0.00  0.00    +0.030 C 
ATOM     12  C   LIG    1       -1.196   4.045   2.658  0.00  0.00    +0.080 C 
ATOM     13  C   LIG    1       -2.018   4.028   1.387  0.00  0.00    -0.080 A 
ATOM     14  C   LIG    1       -2.513   5.072   0.626  0.00  0.00    +0.030 A 
ENDBRANCH   3   6
ENDBRANCH   1   2
BRANCH   1  15
ATOM     15  N   LIG    1       -5.382   9.100  -0.611  0.00  0.00    -0.710 N 
ATOM     16  H   LIG    1       -5.045   9.201   0.293  0.00  0.00    +0.410 HD
ATOM     17  C   LIG    1       -6.394   9.877  -1.044  0.00  0.00    +0.570 C 
ATOM     18  O   LIG    1       -6.815   9.751  -2.178  0.00  0.00    -0.530 OA
BRANCH  17  19
ATOM     19  C   LIG    1       -6.991  10.883  -0.142  0.00  0.00    -0.150 A 
ATOM     20  C   LIG    1       -6.513  11.026   1.162  0.00  0.00    +0.090 A 
ATOM     21  C   LIG    1       -7.070  11.970   1.998  0.00  0.00    -0.020 A 
ATOM     22  C   LIG    1       -8.111  12.769   1.549  0.00  0.00    +0.130 A 
ATOM     23  C   LIG    1       -8.594  12.626   0.257  0.00  0.00    -0.010 A 
ATOM     24  F   LIG    1       -8.658  13.688   2.374  0.00  0.00    -0.130 F 
ATOM     25  C   LIG    1       -8.040  11.689  -0.589  0.00  0.00    +0.120 A 
ENDBRANCH  17  19
ENDBRANCH   1  15
BRANCH   1  27
ATOM     26  C   LIG    1       -3.078   7.720  -3.286  0.00  0.00    +0.030 C 
ATOM     27  C   LIG    1       -3.715   8.767  -2.370  0.00  0.00    -0.020 C 
ATOM     28  C   LIG    1       -4.353   9.867  -3.220  0.00  0.00    +0.050 C 
ENDBRANCH   1  27
TORSDOF 5
