REMARK  Name = ZINCpk000004LDZC.0
REMARK                            x       y       z     vdW  Elec       q    Type
REMARK                         _______ _______ _______ _____ _____    ______ ____
ROOT
ATOM      1  N   LIG    1       -1.568   0.530   0.416  0.00  0.00    -0.700 N 
ATOM      2  H   LIG    1       -2.312   1.147   0.497  0.00  0.00    +0.430 HD
ENDROOT
BRANCH   1   6
ATOM      3  N   LIG    1        2.297   1.910   0.489  0.00  0.00    -0.550 N 
ATOM      4  C   LIG    1        1.288   2.795   0.609  0.00  0.00    +0.560 A 
ATOM      5  C   LIG    1       -0.039   2.340   0.590  0.00  0.00    -0.240 A 
ATOM      6  C   LIG    1       -0.281   1.002   0.444  0.00  0.00    +0.470 A 
ATOM      7  N   LIG    1        0.778   0.134   0.330  0.00  0.00    -0.650 N 
ATOM      8  H   LIG    1        0.614  -0.817   0.230  0.00  0.00    +0.430 HD
ATOM      9  O   LIG    1        1.527   3.984   0.734  0.00  0.00    -0.520 OA
ATOM     10  C   LIG    1        2.042   0.596   0.351  0.00  0.00    +0.710 A 
ATOM     11  O   LIG    1        2.967  -0.186   0.244  0.00  0.00    -0.540 OA
BRANCH   3  13
ATOM     12  C   LIG    1        3.906   3.361  -0.646  0.00  0.00    +0.030 C 
ATOM     13  C   LIG    1        3.684   2.382   0.509  0.00  0.00    +0.240 C 
ATOM     14  C   LIG    1        3.963   3.088   1.837  0.00  0.00    +0.040 C 
ENDBRANCH   3  13
ENDBRANCH   1   6
BRANCH   1  15
ATOM     15  C   LIG    1       -1.819  -0.905   0.265  0.00  0.00    +0.220 C 
ATOM     16  C   LIG    1       -3.196  -1.295   0.864  0.00  0.00    +0.060 C 
ATOM     17  C   LIG    1       -3.581  -2.553   0.056  0.00  0.00    +0.230 C 
ATOM     18  N   LIG    1       -2.822  -2.511  -1.203  0.00  0.00    -0.610 N 
ATOM     19  C   LIG    1       -2.864  -3.443  -2.176  0.00  0.00    +0.610 C 
ATOM     20  O   LIG    1       -3.494  -4.470  -2.009  0.00  0.00    -0.530 OA
ATOM     21  C   LIG    1       -5.082  -2.542  -0.240  0.00  0.00    +0.040 C 
ATOM     22  C   LIG    1       -2.010  -1.281  -1.226  0.00  0.00    +0.250 C 
BRANCH  19  23
ATOM     23  C   LIG    1       -2.146  -3.218  -3.443  0.00  0.00    -0.250 A 
ATOM     24  C   LIG    1       -1.977  -4.106  -4.465  0.00  0.00    +0.280 A 
ATOM     25  O   LIG    1       -1.271  -3.510  -5.430  0.00  0.00    -0.170 OA
ATOM     26  C   LIG    1       -0.953  -2.253  -5.084  0.00  0.00    +0.180 A 
ATOM     27  C   LIG    1       -1.456  -1.991  -3.868  0.00  0.00    -0.050 A 
ENDBRANCH  19  23
ENDBRANCH   1  15
TORSDOF 4
