REMARK  Name = ZINCqH0000001x9h.0
REMARK                            x       y       z     vdW  Elec       q    Type
REMARK                         _______ _______ _______ _____ _____    ______ ____
ROOT
ATOM      1  C   LIG    1        3.728  -0.648  -0.051  0.00  0.00    +0.340 C 
ENDROOT
BRANCH   1   3
ATOM      2  C   LIG    1        2.395   1.440   0.205  0.00  0.00    +0.160 A 
ATOM      3  C   LIG    1        2.430   0.075   0.201  0.00  0.00    -0.150 A 
ATOM      4  C   LIG    1        1.250  -0.651   0.434  0.00  0.00    +0.000 A 
ATOM      5  C   LIG    1        1.248  -2.056   0.436  0.00  0.00    +0.010 A 
ATOM      6  C   LIG    1        0.086  -2.727   0.665  0.00  0.00    +0.020 A 
ATOM      7  C   LIG    1       -1.105  -2.041   0.896  0.00  0.00    -0.010 A 
ATOM      8  C   LIG    1       -1.141  -0.680   0.901  0.00  0.00    +0.040 A 
ATOM      9  C   LIG    1        0.039   0.047   0.669  0.00  0.00    -0.090 A 
ATOM     10  C   LIG    1        0.039   1.453   0.665  0.00  0.00    +0.080 A 
ATOM     11  C   LIG    1        1.198   2.126   0.437  0.00  0.00    -0.070 A 
BRANCH   2  12
ATOM     12  O   LIG    1        3.537   2.142  -0.020  0.00  0.00    -0.300 OA
BRANCH  12  14
ATOM     13  C   LIG    1        3.446   4.178   1.278  0.00  0.00    +0.020 C 
ATOM     14  C   LIG    1        3.417   3.562  -0.122  0.00  0.00    +0.150 C 
ATOM     15  C   LIG    1        4.581   4.114  -0.948  0.00  0.00    +0.060 C 
ENDBRANCH  12  14
ENDBRANCH   2  12
ENDBRANCH   1   3
BRANCH   1  16
ATOM     16  N   LIG    1        3.884  -0.886  -1.488  0.00  0.00    -0.740 N 
ATOM     17  H   LIG    1        3.199  -0.586  -2.106  0.00  0.00    +0.390 HD
ATOM     18  C   LIG    1        4.977  -1.523  -1.951  0.00  0.00    +0.700 C 
ATOM     19  N   LIG    1        5.121  -1.742  -3.273  0.00  0.00    -0.740 N 
ATOM     20  H   LIG    1        4.436  -1.442  -3.891  0.00  0.00    +0.400 HD
ATOM     21  O   LIG    1        5.835  -1.900  -1.175  0.00  0.00    -0.590 OA
BRANCH  19  22
ATOM     22  C   LIG    1        6.310  -2.435  -3.776  0.00  0.00    +0.270 C 
ATOM     23  C   LIG    1        7.450  -1.423  -4.010  0.00  0.00    +0.020 C 
ATOM     24  C   LIG    1        8.157  -1.937  -5.290  0.00  0.00    +0.020 C 
ATOM     25  C   LIG    1        6.974  -2.437  -6.155  0.00  0.00    +0.010 C 
ATOM     26  C   LIG    1        6.006  -3.079  -5.140  0.00  0.00    +0.120 C 
ATOM     27  C   LIG    1        4.558  -2.795  -5.544  0.00  0.00    +0.030 C 
BRANCH  26  28
ATOM     28  O   LIG    1        6.230  -4.489  -5.076  0.00  0.00    -0.550 OA
ATOM     29  H   LIG    1        6.056  -4.953  -5.906  0.00  0.00    +0.380 HD
ENDBRANCH  26  28
ENDBRANCH  19  22
ENDBRANCH   1  16
TORSDOF 6
