REMARK  Name = ZINCqH0000003i1x.0
REMARK                            x       y       z     vdW  Elec       q    Type
REMARK                         _______ _______ _______ _____ _____    ______ ____
ROOT
ATOM      1  C   LIG    1       -0.187   5.214   2.368  0.00  0.00    -0.030 C 
ATOM      2  C   LIG    1        1.155   5.556   1.718  0.00  0.00    +0.100 C 
ENDROOT
BRANCH   1   3
ATOM      3  C   LIG    1       -0.363   3.718   2.401  0.00  0.00    +0.540 C 
ATOM      4  N   LIG    1       -0.747   3.060   1.289  0.00  0.00    -0.540 N 
ATOM      5  C   LIG    1       -1.125   3.801   0.078  0.00  0.00    +0.270 C 
ATOM      6  C   LIG    1       -2.404   3.165  -0.481  0.00  0.00    +0.030 C 
ATOM      7  C   LIG    1       -2.106   1.722  -0.885  0.00  0.00    +0.080 C 
ATOM      8  C   LIG    1       -1.440   0.984   0.247  0.00  0.00    -0.110 A 
ATOM      9  C   LIG    1       -1.478  -0.400   0.258  0.00  0.00    +0.030 A 
ATOM     10  C   LIG    1       -0.874  -1.105   1.281  0.00  0.00    -0.010 A 
ATOM     11  C   LIG    1       -0.227  -0.432   2.301  0.00  0.00    +0.030 A 
ATOM     12  C   LIG    1       -0.186   0.948   2.298  0.00  0.00    +0.020 A 
ATOM     13  C   LIG    1       -0.794   1.659   1.270  0.00  0.00    +0.150 A 
ATOM     14  O   LIG    1       -0.160   3.106   3.428  0.00  0.00    -0.490 OA
ENDBRANCH   1   3
BRANCH   1  15
ATOM     15  S   LIG    1       -0.222   5.863   4.057  0.00  0.00    +0.100 S 
BRANCH  15  19
ATOM     16  C   LIG    1       -0.095   9.771   4.195  0.00  0.00    +0.090 A 
ATOM     17  C   LIG    1       -0.046   9.898   2.868  0.00  0.00    -0.070 A 
ATOM     18  S   LIG    1       -0.076   8.285   2.162  0.00  0.00    +0.140 S 
ATOM     19  C   LIG    1       -0.152   7.591   3.723  0.00  0.00    +0.010 A 
ATOM     20  N   LIG    1       -0.156   8.524   4.625  0.00  0.00    -0.430 NA
BRANCH  16  21
ATOM     21  C   LIG    1       -0.087  10.955   5.127  0.00  0.00    +0.220 C 
BRANCH  21  22
ATOM     22  C   LIG    1       -1.286  10.885   6.038  0.00  0.00    +0.460 C 
ATOM     23  O   LIG    1       -2.066   9.967   5.941  0.00  0.00    -0.490 OA
BRANCH  22  24
ATOM     24  O   LIG    1       -1.486  11.841   6.958  0.00  0.00    -0.360 OA
BRANCH  24  26
ATOM     25  C   LIG    1       -2.720  12.883   8.781  0.00  0.00    +0.070 C 
ATOM     26  C   LIG    1       -2.661  11.709   7.801  0.00  0.00    +0.200 C 
ENDBRANCH  24  26
ENDBRANCH  22  24
ENDBRANCH  21  22
ENDBRANCH  16  21
ENDBRANCH  15  19
ENDBRANCH   1  15
TORSDOF 7
