REMARK  Name = ZINCrg00001Jdv3Z.0
REMARK                            x       y       z     vdW  Elec       q    Type
REMARK                         _______ _______ _______ _____ _____    ______ ____
ROOT
ATOM      1  N   LIG    1       -0.544   1.438  -3.518  0.00  0.00    -0.590 N 
ATOM      2  C   LIG    1       -0.208   1.190  -2.237  0.00  0.00    +0.520 C 
ATOM      3  O   LIG    1        0.774   0.524  -1.986  0.00  0.00    -0.530 OA
ENDROOT
BRANCH   1   4
ATOM      4  C   LIG    1        0.276   0.903  -4.608  0.00  0.00    +0.310 C 
BRANCH   4   8
ATOM      5  C   LIG    1       -0.307  -2.330  -6.573  0.00  0.00    +0.290 C 
ATOM      6  N   LIG    1        0.271  -1.070  -6.100  0.00  0.00    -0.740 N 
ATOM      7  H   LIG    1        1.079  -0.723  -6.510  0.00  0.00    +0.400 HD
ATOM      8  C   LIG    1       -0.319  -0.393  -5.095  0.00  0.00    +0.500 C 
ATOM      9  O   LIG    1       -1.329  -0.827  -4.582  0.00  0.00    -0.530 OA
ENDBRANCH   4   8
ENDBRANCH   1   4
BRANCH   2  10
ATOM     10  C   LIG    1       -1.052   1.740  -1.116  0.00  0.00    +0.050 C 
BRANCH  10  11
ATOM     11  C   LIG    1       -0.456   1.316   0.227  0.00  0.00    +0.060 C 
BRANCH  11  12
ATOM     12  C   LIG    1       -1.312   1.874   1.365  0.00  0.00    +0.000 C 
BRANCH  12  13
ATOM     13  C   LIG    1       -0.716   1.450   2.708  0.00  0.00    +0.310 C 
BRANCH  13  14
ATOM     14  N   LIG    1       -1.536   1.985   3.798  0.00  0.00    -0.590 N 
ATOM     15  C   LIG    1       -1.353   3.177   4.394  0.00  0.00    +0.540 C 
ATOM     16  C   LIG    1       -2.389   3.342   5.437  0.00  0.00    +0.040 C 
ATOM     17  C   LIG    1       -3.139   2.229   5.419  0.00  0.00    +0.040 C 
ATOM     18  O   LIG    1       -0.486   3.981   4.120  0.00  0.00    -0.450 OA
ATOM     19  C   LIG    1       -2.585   1.357   4.359  0.00  0.00    +0.540 C 
ATOM     20  O   LIG    1       -3.005   0.261   4.050  0.00  0.00    -0.450 OA
ENDBRANCH  13  14
ENDBRANCH  12  13
ENDBRANCH  11  12
ENDBRANCH  10  11
ENDBRANCH   2  10
BRANCH   1  21
ATOM     21  C   LIG    1       -1.730   2.243  -3.822  0.00  0.00    +0.310 C 
BRANCH  21  22
ATOM     22  C   LIG    1       -1.373   3.728  -3.741  0.00  0.00    -0.050 C 
ATOM     23  C   LIG    1       -2.658   4.575  -3.629  0.00  0.00    +0.050 C 
ATOM     24  C   LIG    1       -2.352   5.841  -4.469  0.00  0.00    +0.050 C 
ATOM     25  C   LIG    1       -1.544   5.272  -5.662  0.00  0.00    +0.030 C 
ATOM     26  C   LIG    1       -0.664   4.171  -5.032  0.00  0.00    +0.280 C 
ATOM     27  F   LIG    1       -0.548   3.088  -5.911  0.00  0.00    -0.190 F 
ATOM     28  F   LIG    1        0.604   4.682  -4.732  0.00  0.00    -0.190 F 
ENDBRANCH  21  22
ENDBRANCH   1  21
TORSDOF 9
