REMARK  Name = ZINCrH00000tj1kN.0
REMARK                            x       y       z     vdW  Elec       q    Type
REMARK                         _______ _______ _______ _____ _____    ______ ____
ROOT
ATOM      1  N   LIG    1        0.002  -0.004   0.002  0.00  0.00    -0.450 N 
ATOM      2  C   LIG    1       -0.016   1.344   0.009  0.00  0.00    +0.470 A 
ATOM      3  N   LIG    1        1.266   1.765  -0.001  0.00  0.00    -0.370 N 
ATOM      4  N   LIG    1        2.080   0.624  -0.014  0.00  0.00    -0.260 NA
ATOM      5  S   LIG    1       -1.410   2.338   0.022  0.00  0.00    -0.570 S 
ATOM      6  C   LIG    1        1.313  -0.418  -0.013  0.00  0.00    +0.270 A 
ATOM      7  C   LIG    1        1.780  -1.851  -0.024  0.00  0.00    +0.220 C 
ENDROOT
BRANCH   1  14
ATOM      8  C   LIG    1       -1.047  -0.831   2.516  0.00  0.00    +0.100 C 
ATOM      9  C   LIG    1       -1.666  -1.266   1.212  0.00  0.00    -0.050 A 
ATOM     10  C   LIG    1       -2.778  -2.085   1.215  0.00  0.00    +0.030 A 
ATOM     11  C   LIG    1       -3.343  -2.490   0.019  0.00  0.00    +0.040 A 
ATOM     12  C   LIG    1       -2.801  -2.072  -1.182  0.00  0.00    +0.030 A 
ATOM     13  C   LIG    1       -1.692  -1.248  -1.191  0.00  0.00    +0.050 A 
ATOM     14  C   LIG    1       -1.123  -0.840   0.008  0.00  0.00    +0.110 A 
ENDBRANCH   1  14
BRANCH   3  15
ATOM     15  C   LIG    1        1.722   3.157   0.003  0.00  0.00    +0.530 C 
BRANCH  15  16
ATOM     16  N   LIG    1        2.228   3.504   1.337  0.00  0.00    -0.550 NA
ATOM     17  C   LIG    1        1.124   3.840   2.248  0.00  0.00    +0.200 C 
ATOM     18  C   LIG    1        1.685   4.117   3.645  0.00  0.00    +0.200 C 
ATOM     19  N   LIG    1        2.657   5.217   3.571  0.00  0.00    -0.490 N 
ATOM     20  C   LIG    1        3.760   4.881   2.660  0.00  0.00    +0.200 C 
ATOM     21  C   LIG    1        3.199   4.604   1.263  0.00  0.00    +0.210 C 
BRANCH  19  22
ATOM     22  C   LIG    1        3.138   5.546   4.840  0.00  0.00    +0.110 A 
ATOM     23  C   LIG    1        4.503   5.519   5.096  0.00  0.00    -0.040 A 
ATOM     24  C   LIG    1        4.976   5.850   6.350  0.00  0.00    +0.030 A 
ATOM     25  C   LIG    1        4.091   6.198   7.355  0.00  0.00    -0.030 A 
ATOM     26  C   LIG    1        2.731   6.221   7.105  0.00  0.00    +0.030 A 
ATOM     27  C   LIG    1        2.252   5.896   5.851  0.00  0.00    -0.020 A 
ENDBRANCH  19  22
ENDBRANCH  15  16
ENDBRANCH   3  15
TORSDOF 4
