REMARK  Name = ZINCqH00000335RP.0
REMARK                            x       y       z     vdW  Elec       q    Type
REMARK                         _______ _______ _______ _____ _____    ______ ____
ROOT
ATOM      1  C   LIG    1       -0.753   1.593  -1.232  0.00  0.00    +0.270 C 
ENDROOT
BRANCH   1   2
ATOM      2  N   LIG    1       -0.670   3.054  -1.286  0.00  0.00    -0.730 N 
ATOM      3  H   LIG    1        0.025   3.481  -1.811  0.00  0.00    +0.410 HD
ATOM      4  C   LIG    1       -1.559   3.806  -0.607  0.00  0.00    +0.710 C 
ATOM      5  N   LIG    1       -1.483   5.150  -0.657  0.00  0.00    -0.740 N 
ATOM      6  H   LIG    1       -0.788   5.577  -1.182  0.00  0.00    +0.400 HD
ATOM      7  O   LIG    1       -2.430   3.270   0.051  0.00  0.00    -0.580 OA
BRANCH   5   8
ATOM      8  C   LIG    1       -2.449   5.967   0.081  0.00  0.00    +0.340 C 
BRANCH   8   9
ATOM      9  C   LIG    1       -2.147   7.426  -0.140  0.00  0.00    -0.120 A 
ATOM     10  C   LIG    1       -1.288   8.091   0.715  0.00  0.00    +0.070 A 
ATOM     11  C   LIG    1       -1.005   9.428   0.510  0.00  0.00    -0.020 A 
ATOM     12  C   LIG    1       -1.591  10.105  -0.546  0.00  0.00    +0.110 A 
ATOM     13  C   LIG    1       -2.455   9.440  -1.400  0.00  0.00    -0.020 A 
ATOM     14  F   LIG    1       -1.321  11.414  -0.745  0.00  0.00    -0.140 F 
ATOM     15  C   LIG    1       -2.732   8.101  -1.196  0.00  0.00    +0.070 A 
ENDBRANCH   8   9
ENDBRANCH   5   8
ENDBRANCH   1   2
BRANCH   1  16
ATOM     16  C   LIG    1       -0.121   1.007  -2.468  0.00  0.00    +0.510 C 
ATOM     17  N   LIG    1       -0.082  -0.330  -2.636  0.00  0.00    -0.720 N 
ATOM     18  H   LIG    1       -0.460  -0.915  -1.961  0.00  0.00    +0.400 HD
ATOM     19  O   LIG    1        0.352   1.739  -3.312  0.00  0.00    -0.530 OA
BRANCH  17  20
ATOM     20  C   LIG    1        0.532  -0.899  -3.838  0.00  0.00    +0.230 C 
ATOM     21  C   LIG    1       -0.498  -0.934  -4.969  0.00  0.00    +0.020 C 
BRANCH  20  22
ATOM     22  C   LIG    1        1.013  -2.321  -3.541  0.00  0.00    +0.020 C 
BRANCH  22  23
ATOM     23  C   LIG    1        2.131  -2.274  -2.499  0.00  0.00    +0.010 C 
BRANCH  23  24
ATOM     24  C   LIG    1        2.612  -3.696  -2.201  0.00  0.00    -0.030 C 
ATOM     25  C   LIG    1        3.642  -3.660  -1.071  0.00  0.00    +0.000 C 
ATOM     26  C   LIG    1        3.253  -4.290  -3.457  0.00  0.00    +0.010 C 
ENDBRANCH  23  24
ENDBRANCH  22  23
ENDBRANCH  20  22
ENDBRANCH  17  20
ENDBRANCH   1  16
BRANCH   1  27
ATOM     27  C   LIG    1       -0.013   1.086   0.008  0.00  0.00    +0.010 C 
BRANCH  27  29
ATOM     28  C   LIG    1        0.011   1.072   2.506  0.00  0.00    +0.000 C 
ATOM     29  C   LIG    1       -0.729   1.579   1.267  0.00  0.00    +0.030 C 
ENDBRANCH  27  29
ENDBRANCH   1  27
TORSDOF 10
