REMARK  Name = ZINCrg00000SjSAm.0
REMARK                            x       y       z     vdW  Elec       q    Type
REMARK                         _______ _______ _______ _____ _____    ______ ____
ROOT
ATOM      1  N   LIG    1       -0.717   2.520  -4.494  0.00  0.00    -0.390 N 
ATOM      2  C   LIG    1       -0.943   1.322  -3.919  0.00  0.00    +0.310 A 
ATOM      3  N   LIG    1       -1.976   0.750  -4.482  0.00  0.00    -0.490 NA
ATOM      4  C   LIG    1       -2.472   1.547  -5.433  0.00  0.00    +0.320 A 
ATOM      5  N   LIG    1       -3.535   1.442  -6.315  0.00  0.00    -0.510 N 
ATOM      6  C   LIG    1       -4.384   0.248  -6.300  0.00  0.00    +0.350 C 
ATOM      7  C   LIG    1       -3.790   2.437  -7.186  0.00  0.00    +0.710 A 
ATOM      8  O   LIG    1       -4.728   2.328  -7.953  0.00  0.00    -0.530 OA
ATOM      9  N   LIG    1       -3.034   3.547  -7.230  0.00  0.00    -0.550 N 
ATOM     10  C   LIG    1       -3.353   4.600  -8.197  0.00  0.00    +0.360 C 
ATOM     11  C   LIG    1       -1.985   3.707  -6.396  0.00  0.00    +0.600 A 
ATOM     12  O   LIG    1       -1.308   4.718  -6.445  0.00  0.00    -0.510 OA
ATOM     13  C   LIG    1       -1.682   2.689  -5.466  0.00  0.00    -0.150 A 
ENDROOT
BRANCH   1  14
ATOM     14  C   LIG    1        0.349   3.464  -4.151  0.00  0.00    +0.220 C 
ATOM     15  C   LIG    1        1.702   2.752  -4.220  0.00  0.00    +0.090 C 
BRANCH  14  17
ATOM     16  C   LIG    1       -0.867   5.095  -2.516  0.00  0.00    +0.090 C 
ATOM     17  C   LIG    1        0.127   3.988  -2.756  0.00  0.00    +0.350 C 
ATOM     18  O   LIG    1        0.747   3.522  -1.830  0.00  0.00    -0.430 OA
ENDBRANCH  14  17
ENDBRANCH   1  14
BRANCH   2  19
ATOM     19  C   LIG    1       -0.124   0.728  -2.802  0.00  0.00    +0.300 C 
BRANCH  19  20
ATOM     20  N   LIG    1        0.884  -0.181  -3.364  0.00  0.00    -0.530 NA
ATOM     21  C   LIG    1        1.919  -0.498  -2.371  0.00  0.00    +0.180 C 
ATOM     22  C   LIG    1        3.024  -1.326  -3.031  0.00  0.00    -0.010 C 
ATOM     23  C   LIG    1        2.421  -2.615  -3.596  0.00  0.00    +0.020 C 
ATOM     24  C   LIG    1        1.313  -2.257  -4.591  0.00  0.00    -0.010 C 
ATOM     25  C   LIG    1        0.665  -3.540  -5.116  0.00  0.00    +0.020 C 
ATOM     26  C   LIG    1        4.091  -1.674  -1.992  0.00  0.00    +0.020 C 
ATOM     27  C   LIG    1        0.258  -1.403  -3.886  0.00  0.00    +0.190 C 
ENDBRANCH  19  20
ENDBRANCH   2  19
TORSDOF 4
