REMARK  Name = ZINCpe000000T8GF.0
REMARK                            x       y       z     vdW  Elec       q    Type
REMARK                         _______ _______ _______ _____ _____    ______ ____
ROOT
ATOM      1  N   LIG    1       -0.801   2.123   3.601  0.00  0.00    -0.740 N 
ATOM      2  H   LIG    1       -1.631   2.605   3.460  0.00  0.00    +0.390 HD
ATOM      3  C   LIG    1       -0.344   1.921   4.853  0.00  0.00    +0.710 C 
ATOM      4  N   LIG    1       -0.985   2.475   5.902  0.00  0.00    -0.630 N 
ATOM      5  C   LIG    1       -2.240   3.213   5.707  0.00  0.00    +0.260 C 
ATOM      6  C   LIG    1       -2.103   4.600   6.333  0.00  0.00    +0.020 C 
ATOM      7  C   LIG    1       -1.678   4.457   7.796  0.00  0.00    +0.030 C 
ATOM      8  C   LIG    1       -0.319   3.757   7.868  0.00  0.00    -0.040 C 
ATOM      9  C   LIG    1       -0.439   2.356   7.260  0.00  0.00    +0.310 C 
ATOM     10  O   LIG    1        0.646   1.240   5.036  0.00  0.00    -0.580 OA
ENDROOT
BRANCH   1  11
ATOM     11  C   LIG    1       -0.044   1.616   2.454  0.00  0.00    +0.240 C 
BRANCH  11  12
ATOM     12  C   LIG    1       -0.775   1.978   1.160  0.00  0.00    +0.200 C 
BRANCH  12  16
ATOM     13  C   LIG    1        3.534   1.998  -1.218  0.00  0.00    +0.060 C 
ATOM     14  C   LIG    1        2.086   1.504  -1.243  0.00  0.00    +0.110 C 
ATOM     15  C   LIG    1        1.351   2.010   0.001  0.00  0.00    +0.160 C 
ATOM     16  N   LIG    1       -0.016   1.469   0.010  0.00  0.00    -0.520 NA
ATOM     17  C   LIG    1        0.006  -0.001   0.001  0.00  0.00    +0.150 C 
ATOM     18  C   LIG    1        0.754  -0.487  -1.243  0.00  0.00    +0.220 C 
ATOM     19  C   LIG    1        1.388   2.030  -2.499  0.00  0.00    +0.020 C 
ATOM     20  O   LIG    1        2.070   0.073  -1.251  0.00  0.00    -0.370 OA
ENDBRANCH  12  16
ENDBRANCH  11  12
ENDBRANCH   1  11
BRANCH   8  21
ATOM     21  C   LIG    1        0.120   3.644   9.329  0.00  0.00    +0.330 C 
BRANCH  21  22
ATOM     22  N   LIG    1        1.470   3.079   9.391  0.00  0.00    -0.290 N 
ATOM     23  C   LIG    1        2.537   3.639  10.007  0.00  0.00    +0.140 A 
ATOM     24  C   LIG    1        3.571   2.786   9.820  0.00  0.00    +0.140 A 
ATOM     25  N   LIG    1        3.095   1.763   9.101  0.00  0.00    -0.270 NA
ATOM     26  N   LIG    1        1.847   1.966   8.864  0.00  0.00    -0.080 NA
ENDBRANCH  21  22
ENDBRANCH   8  21
TORSDOF 5
