REMARK  Name = ZINCpk000000pGXO.0
REMARK                            x       y       z     vdW  Elec       q    Type
REMARK                         _______ _______ _______ _____ _____    ______ ____
ROOT
ATOM      1  N   LIG    1       -6.546   5.570   0.066  0.00  0.00    -0.370 N 
ATOM      2  C   LIG    1       -7.153   4.369   0.062  0.00  0.00    +0.500 A 
ATOM      3  N   LIG    1       -6.231   3.443   0.047  0.00  0.00    -0.520 NA
ATOM      4  C   LIG    1       -5.018   4.012   0.050  0.00  0.00    +0.250 A 
ATOM      5  N   LIG    1       -5.165   5.319   0.058  0.00  0.00    -0.260 NA
ENDROOT
BRANCH   4   6
ATOM      6  C   LIG    1       -3.722   3.288   0.038  0.00  0.00    +0.050 A 
ATOM      7  C   LIG    1       -3.700   1.895   0.030  0.00  0.00    +0.080 A 
ATOM      8  C   LIG    1       -2.493   1.226   0.021  0.00  0.00    +0.100 A 
ATOM      9  C   LIG    1       -1.306   1.936   0.019  0.00  0.00    -0.040 A 
ATOM     10  C   LIG    1       -1.322   3.320   0.032  0.00  0.00    +0.100 A 
ATOM     11  C   LIG    1       -2.524   3.998   0.037  0.00  0.00    +0.060 A 
BRANCH   9  12
ATOM     12  N   LIG    1       -0.014   1.214   0.009  0.00  0.00    +0.030 N 
ATOM     13  O   LIG    1        1.032   1.837   0.002  0.00  0.00    -0.160 OA
ATOM     14  O   LIG    1        0.002  -0.004   0.002  0.00  0.00    -0.160 OA
ENDBRANCH   9  12
ENDBRANCH   4   6
BRANCH   1  15
ATOM     15  C   LIG    1       -7.199   6.881   0.077  0.00  0.00    +0.370 C 
BRANCH  15  21
ATOM     16  C   LIG    1       -7.880  10.287   3.347  0.00  0.00    +0.140 C 
ATOM     17  C   LIG    1       -6.665   9.741   2.587  0.00  0.00    +0.260 C 
ATOM     18  N   LIG    1       -7.150   8.935   1.455  0.00  0.00    -0.620 N 
ATOM     19  C   LIG    1       -8.151   9.534   0.558  0.00  0.00    +0.250 C 
ATOM     20  C   LIG    1       -9.296  10.088   1.419  0.00  0.00    +0.220 C 
ATOM     21  C   LIG    1       -6.687   7.687   1.243  0.00  0.00    +0.500 C 
ATOM     22  O   LIG    1       -5.859   7.213   1.991  0.00  0.00    -0.500 OA
ATOM     23  O   LIG    1       -8.754  10.945   2.427  0.00  0.00    -0.370 OA
BRANCH  16  25
ATOM     24  C   LIG    1       -8.609  11.732   5.250  0.00  0.00    +0.020 C 
ATOM     25  C   LIG    1       -7.412  11.283   4.410  0.00  0.00    +0.040 C 
ENDBRANCH  16  25
ENDBRANCH  15  21
ENDBRANCH   1  15
TORSDOF 5
