REMARK  Name = ZINCrD000000fQJc.1
REMARK                            x       y       z     vdW  Elec       q    Type
REMARK                         _______ _______ _______ _____ _____    ______ ____
ROOT
ATOM      1  C   LIG    1        2.454   1.335   0.161  0.00  0.00    +0.190 A 
ATOM      2  C   LIG    1        1.193   1.907   0.255  0.00  0.00    -0.010 A 
ATOM      3  C   LIG    1        0.082   1.105   0.435  0.00  0.00    +0.070 A 
ATOM      4  C   LIG    1        0.219  -0.269   0.522  0.00  0.00    -0.010 A 
ATOM      5  C   LIG    1        1.467  -0.852   0.431  0.00  0.00    +0.090 A 
ATOM      6  C   LIG    1        2.594  -0.055   0.250  0.00  0.00    -0.040 A 
ENDROOT
BRANCH   6   7
ATOM      7  C   LIG    1        3.938  -0.676   0.152  0.00  0.00    +0.280 A 
ATOM      8  N   LIG    1        5.071  -0.030  -0.018  0.00  0.00    -0.320 NA
ATOM      9  N   LIG    1        6.086  -0.999  -0.055  0.00  0.00    -0.480 N 
ATOM     10  H   LIG    1        7.037  -0.839  -0.169  0.00  0.00    +0.440 HD
ATOM     11  C   LIG    1        5.484  -2.191   0.099  0.00  0.00    +0.330 A 
ATOM     12  N   LIG    1        4.199  -1.988   0.228  0.00  0.00    -0.520 NA
BRANCH  11  13
ATOM     13  C   LIG    1        6.172  -3.531   0.126  0.00  0.00    +0.050 C 
ATOM     14  C   LIG    1        7.605  -3.600  -0.406  0.00  0.00    +0.040 C 
ATOM     15  C   LIG    1        6.457  -4.206  -1.218  0.00  0.00    +0.060 C 
ENDBRANCH  11  13
ENDBRANCH   6   7
BRANCH   1  16
ATOM     16  N   LIG    1        3.577   2.142  -0.020  0.00  0.00    -1.040 N 
ATOM     17  H   LIG    1        4.313   1.833  -0.571  0.00  0.00    +0.440 HD
BRANCH  16  18
ATOM     18  S   LIG    1        3.654   3.629   0.705  0.00  0.00    +2.690 S 
ATOM     19  O   LIG    1        2.471   4.321   0.327  0.00  0.00    -0.940 OA
ATOM     20  O   LIG    1        4.960   4.130   0.456  0.00  0.00    -0.940 OA
BRANCH  18  24
ATOM     21  C   LIG    1        3.370   2.959   5.178  0.00  0.00    -0.110 A 
ATOM     22  C   LIG    1        4.618   2.970   4.547  0.00  0.00    +0.050 A 
ATOM     23  C   LIG    1        4.696   3.174   3.185  0.00  0.00    +0.130 A 
ATOM     24  C   LIG    1        3.543   3.368   2.444  0.00  0.00    -0.650 A 
ATOM     25  C   LIG    1        2.305   3.363   3.062  0.00  0.00    +0.120 A 
ATOM     26  C   LIG    1        2.210   3.155   4.422  0.00  0.00    +0.060 A 
BRANCH  21  28
ATOM     27  C   LIG    1        1.932   2.729   7.307  0.00  0.00    +0.090 C 
ATOM     28  C   LIG    1        3.279   2.741   6.631  0.00  0.00    +0.390 C 
ATOM     29  O   LIG    1        4.286   2.571   7.283  0.00  0.00    -0.440 OA
ENDBRANCH  21  28
ENDBRANCH  18  24
ENDBRANCH  16  18
ENDBRANCH   1  16
TORSDOF 6
