REMARK  Name = ZINCqH0000003i1d.0
REMARK                            x       y       z     vdW  Elec       q    Type
REMARK                         _______ _______ _______ _____ _____    ______ ____
ROOT
ATOM      1  C   LIG    1       -0.642  -2.664  -0.006  0.00  0.00    +0.060 C 
ENDROOT
BRANCH   1   2
ATOM      2  C   LIG    1       -1.704  -3.733  -0.001  0.00  0.00    +0.530 C 
ATOM      3  N   LIG    1       -1.351  -5.034  -0.012  0.00  0.00    -0.600 N 
ATOM      4  C   LIG    1        0.065  -5.408  -0.028  0.00  0.00    +0.280 C 
ATOM      5  O   LIG    1       -2.877  -3.423   0.012  0.00  0.00    -0.500 OA
BRANCH   3   6
ATOM      6  C   LIG    1       -2.383  -6.073  -0.007  0.00  0.00    +0.360 C 
BRANCH   6   7
ATOM      7  C   LIG    1       -2.751  -6.422  -1.426  0.00  0.00    -0.150 A 
ATOM      8  C   LIG    1       -3.774  -5.742  -2.063  0.00  0.00    +0.140 A 
ATOM      9  C   LIG    1       -4.107  -6.059  -3.369  0.00  0.00    -0.010 A 
ATOM     10  C   LIG    1       -3.426  -7.062  -4.032  0.00  0.00    +0.080 A 
ATOM     11  C   LIG    1       -2.408  -7.746  -3.393  0.00  0.00    +0.010 A 
ATOM     12  F   LIG    1       -4.444  -4.765  -1.413  0.00  0.00    -0.110 F 
ATOM     13  C   LIG    1       -2.070  -7.426  -2.091  0.00  0.00    +0.000 A 
ATOM     14 CL   LIG    1       -0.792  -8.285  -1.290  0.00  0.00    -0.050 Cl
ENDBRANCH   6   7
ENDBRANCH   3   6
ENDBRANCH   1   2
BRANCH   1  15
ATOM     15  S   LIG    1       -1.428  -1.033   0.011  0.00  0.00    +0.110 S 
BRANCH  15  19
ATOM     16  C   LIG    1        1.155   1.906   0.001  0.00  0.00    +0.090 A 
ATOM     17  C   LIG    1        2.208   1.089  -0.013  0.00  0.00    -0.070 A 
ATOM     18  S   LIG    1        1.615  -0.570  -0.016  0.00  0.00    +0.130 S 
ATOM     19  C   LIG    1        0.002  -0.004   0.002  0.00  0.00    +0.010 A 
ATOM     20  N   LIG    1       -0.015   1.293   0.009  0.00  0.00    -0.430 NA
BRANCH  16  21
ATOM     21  C   LIG    1        1.288   3.407   0.008  0.00  0.00    +0.220 C 
BRANCH  21  22
ATOM     22  C   LIG    1        0.509   3.986  -1.145  0.00  0.00    +0.460 C 
ATOM     23  O   LIG    1       -0.092   3.254  -1.895  0.00  0.00    -0.490 OA
BRANCH  22  24
ATOM     24  O   LIG    1        0.484   5.314  -1.339  0.00  0.00    -0.360 OA
BRANCH  24  26
ATOM     25  C   LIG    1       -0.198   7.327  -2.527  0.00  0.00    +0.070 C 
ATOM     26  C   LIG    1       -0.287   5.801  -2.469  0.00  0.00    +0.200 C 
ENDBRANCH  24  26
ENDBRANCH  22  24
ENDBRANCH  21  22
ENDBRANCH  16  21
ENDBRANCH  15  19
ENDBRANCH   1  15
TORSDOF 9
