REMARK  Name = ZINCrH000004tQPq.0
REMARK                            x       y       z     vdW  Elec       q    Type
REMARK                         _______ _______ _______ _____ _____    ______ ____
ROOT
ATOM      1  C   LIG    1       -0.352   6.052   3.745  0.00  0.00    +0.120 A 
ATOM      2  C   LIG    1        0.959   5.600   3.816  0.00  0.00    +0.050 A 
ATOM      3  C   LIG    1        1.238   4.260   3.631  0.00  0.00    +0.020 A 
ATOM      4  C   LIG    1        0.212   3.367   3.381  0.00  0.00    +0.150 A 
ATOM      5  C   LIG    1       -1.095   3.815   3.305  0.00  0.00    -0.650 A 
ATOM      6  C   LIG    1       -1.380   5.153   3.489  0.00  0.00    +0.130 A 
ENDROOT
BRANCH   1   9
ATOM      7  O   LIG    1       -2.541   6.940   4.969  0.00  0.00    -0.490 OA
ATOM      8  C   LIG    1       -1.792   7.780   4.517  0.00  0.00    +0.530 C 
ATOM      9  N   LIG    1       -0.637   7.409   3.932  0.00  0.00    -0.670 N 
ATOM     10  H   LIG    1       -0.003   8.082   3.640  0.00  0.00    +0.410 HD
BRANCH   8  11
ATOM     11  C   LIG    1       -2.154   9.240   4.611  0.00  0.00    +0.100 C 
BRANCH  11  12
ATOM     12  S   LIG    1       -3.756   9.414   5.445  0.00  0.00    -0.150 S 
BRANCH  12  13
ATOM     13  C   LIG    1       -4.014  11.209   5.462  0.00  0.00    +0.170 C 
BRANCH  13  14
ATOM     14  C   LIG    1       -5.327  11.521   6.135  0.00  0.00    -0.170 A 
ATOM     15  C   LIG    1       -5.489  11.739   7.440  0.00  0.00    +0.040 A 
ATOM     16  C   LIG    1       -6.789  12.013   7.829  0.00  0.00    +0.030 A 
ATOM     17  C   LIG    1       -7.685  12.006   6.839  0.00  0.00    -0.140 A 
ATOM     18 CL   LIG    1       -9.384  12.307   7.025  0.00  0.00    -0.010 Cl
ATOM     19  S   LIG    1       -6.879  11.646   5.318  0.00  0.00    +0.180 S 
ENDBRANCH  13  14
ENDBRANCH  12  13
ENDBRANCH  11  12
ENDBRANCH   8  11
ENDBRANCH   1   9
BRANCH   5  20
ATOM     20  S   LIG    1       -2.398   2.674   2.980  0.00  0.00    +2.690 S 
ATOM     21  O   LIG    1       -1.923   1.397   3.381  0.00  0.00    -0.920 OA
ATOM     22  O   LIG    1       -3.583   3.261   3.499  0.00  0.00    -0.940 OA
BRANCH  20  23
ATOM     23  N   LIG    1       -2.591   2.607   1.336  0.00  0.00    -1.020 N 
ATOM     24  H   LIG    1       -3.416   2.918   0.932  0.00  0.00    +0.440 HD
BRANCH  23  25
ATOM     25  C   LIG    1       -1.587   2.110   0.548  0.00  0.00    +0.370 C 
ATOM     26  N   LIG    1       -0.458   1.674   0.994  0.00  0.00    -0.550 NA
ATOM     27  C   LIG    1        0.418   1.202  -0.084  0.00  0.00    +0.220 C 
ATOM     28  C   LIG    1       -0.181   1.792  -1.382  0.00  0.00    +0.020 C 
ATOM     29  C   LIG    1       -1.655   2.001  -0.959  0.00  0.00    +0.060 C 
ENDBRANCH  23  25
ENDBRANCH  20  23
ENDBRANCH   5  20
TORSDOF 8
