REMARK  Name = ZINCnE00000rhnpk.0
REMARK                            x       y       z     vdW  Elec       q    Type
REMARK                         _______ _______ _______ _____ _____    ______ ____
ROOT
ATOM      1  N   LIG    1        5.425   1.254  -1.470  0.00  0.00    -0.720 N 
ATOM      2  H   LIG    1        5.914   1.276  -0.633  0.00  0.00    +0.400 HD
ATOM      3  C   LIG    1        6.076   1.432  -2.637  0.00  0.00    +0.580 C 
ATOM      4  O   LIG    1        5.461   1.404  -3.688  0.00  0.00    -0.520 OA
ENDROOT
BRANCH   3   5
ATOM      5  C   LIG    1        7.520   1.661  -2.640  0.00  0.00    -0.240 A 
ATOM      6  C   LIG    1        8.285   1.849  -3.759  0.00  0.00    +0.100 A 
ATOM      7  C   LIG    1        9.615   2.049  -3.515  0.00  0.00    +0.020 A 
ATOM      8  C   LIG    1        9.966   2.017  -2.192  0.00  0.00    -0.120 A 
ATOM      9  S   LIG    1        8.538   1.727  -1.208  0.00  0.00    +0.200 S 
BRANCH   8  10
ATOM     10  C   LIG    1       11.329   2.199  -1.674  0.00  0.00    -0.100 A 
ATOM     11  C   LIG    1       11.682   2.168  -0.359  0.00  0.00    +0.020 A 
ATOM     12  C   LIG    1       13.025   2.364  -0.124  0.00  0.00    +0.070 A 
ATOM     13  C   LIG    1       13.772   2.554  -1.219  0.00  0.00    -0.220 A 
ATOM     14 BR   LIG    1       15.640   2.848  -1.220  0.00  0.00    +0.010 Br
ATOM     15  S   LIG    1       12.761   2.482  -2.655  0.00  0.00    +0.210 S 
ENDBRANCH   8  10
ENDBRANCH   3   5
BRANCH   1  16
ATOM     16  C   LIG    1        3.978   1.025  -1.467  0.00  0.00    +0.290 C 
BRANCH  16  18
ATOM     17  C   LIG    1        4.103  -0.415   0.571  0.00  0.00    +0.050 C 
ATOM     18  C   LIG    1        3.492   0.854  -0.026  0.00  0.00    +0.080 C 
BRANCH  18  19
ATOM     19  C   LIG    1        1.989   0.742  -0.013  0.00  0.00    +0.180 A 
ATOM     20  N   LIG    1        1.293  -0.376  -0.012  0.00  0.00    -0.630 NA
ATOM     21  C   LIG    1        0.002  -0.004   0.002  0.00  0.00    +0.470 A 
ATOM     22  O   LIG    1       -0.016   1.337   0.009  0.00  0.00    -0.070 OA
ATOM     23  O   LIG    1       -0.967  -0.744   0.007  0.00  0.00    -0.600 OA
ATOM     24  N   LIG    1        1.122   1.759   0.001  0.00  0.00    -0.480 NA
ENDBRANCH  18  19
ENDBRANCH  16  18
ENDBRANCH   1  16
TORSDOF 5
