REMARK  Name = ZINCrD00000l7clX.0
REMARK                            x       y       z     vdW  Elec       q    Type
REMARK                         _______ _______ _______ _____ _____    ______ ____
ROOT
ATOM      1  C   LIG    1       -1.919  -2.330  -1.417  0.00  0.00    +0.010 C 
ATOM      2  C   LIG    1       -2.288  -0.847  -1.354  0.00  0.00    +0.180 C 
ATOM      3  C   LIG    1       -2.456  -0.425   0.107  0.00  0.00    +0.050 C 
ATOM      4  C   LIG    1       -1.135  -0.644   0.851  0.00  0.00    +0.050 C 
ATOM      5  C   LIG    1       -0.029   0.142   0.150  0.00  0.00    +0.160 C 
ATOM      6  O   LIG    1       -0.300   1.550   0.235  0.00  0.00    -0.330 OA
ATOM      7  C   LIG    1        0.997   2.173   0.296  0.00  0.00    +0.270 C 
ATOM      8  C   LIG    1        1.917   1.157   0.934  0.00  0.00    -0.130 A 
ATOM      9  C   LIG    1        3.155   1.263   1.530  0.00  0.00    +0.030 A 
ATOM     10  C   LIG    1        3.775   0.136   2.040  0.00  0.00    +0.020 A 
ATOM     11  C   LIG    1        3.152  -1.095   1.952  0.00  0.00    +0.010 A 
ATOM     12  C   LIG    1        1.909  -1.201   1.354  0.00  0.00    +0.030 A 
ATOM     13  C   LIG    1        0.068  -0.280  -1.315  0.00  0.00    +0.210 C 
ATOM     14  C   LIG    1        1.291  -0.078   0.845  0.00  0.00    -0.120 A 
ATOM     15  N   LIG    1       -1.223  -0.051  -1.977  0.00  0.00    -0.470 N 
ENDROOT
BRANCH  15  16
ATOM     16  C   LIG    1       -1.138  -0.312  -3.335  0.00  0.00    +0.350 A 
ATOM     17  C   LIG    1       -1.868   0.448  -4.250  0.00  0.00    +0.000 A 
ATOM     18  C   LIG    1       -1.743   0.147  -5.603  0.00  0.00    +0.230 A 
ATOM     19  N   LIG    1       -0.944  -0.854  -5.971  0.00  0.00    -0.490 NA
ATOM     20  C   LIG    1       -0.276  -1.550  -5.076  0.00  0.00    +0.510 A 
ATOM     21  N   LIG    1       -0.363  -1.294  -3.786  0.00  0.00    -0.540 NA
BRANCH  18  22
ATOM     22  C   LIG    1       -2.493   0.926  -6.621  0.00  0.00    +0.350 A 
ATOM     23  N   LIG    1       -3.284   1.913  -6.226  0.00  0.00    -0.500 NA
ATOM     24  C   LIG    1       -3.961   2.631  -7.106  0.00  0.00    +0.330 A 
ATOM     25  C   LIG    1       -3.844   2.331  -8.456  0.00  0.00    -0.070 A 
ATOM     26  C   LIG    1       -3.012   1.288  -8.833  0.00  0.00    +0.330 A 
ATOM     27  N   LIG    1       -2.359   0.615  -7.902  0.00  0.00    -0.480 NA
ENDBRANCH  18  22
ENDBRANCH  15  16
TORSDOF 2
