REMARK  Name = ZINCb80000002zVS.0
REMARK                            x       y       z     vdW  Elec       q    Type
REMARK                         _______ _______ _______ _____ _____    ______ ____
ROOT
ATOM      1  C   LIG    1       -0.078   2.261  -2.138  0.00  0.00    +0.650 C 
ATOM      2  N   LIG    1       -0.729   1.575  -1.178  0.00  0.00    -0.600 N 
ATOM      3  C   LIG    1       -0.013   1.086   0.008  0.00  0.00    +0.310 C 
ATOM      4  C   LIG    1       -0.736   1.583   1.264  0.00  0.00    -0.010 C 
ATOM      5  C   LIG    1       -2.208   1.161   1.197  0.00  0.00    +0.160 C 
ATOM      6  C   LIG    1       -2.869   1.797  -0.028  0.00  0.00    +0.040 C 
ATOM      7  C   LIG    1       -2.168   1.303  -1.297  0.00  0.00    +0.290 C 
ATOM      8  O   LIG    1        1.112   2.480  -2.028  0.00  0.00    -0.570 OA
ENDROOT
BRANCH   1  10
ATOM      9  C   LIG    1        0.018   3.435  -4.214  0.00  0.00    +0.280 C 
ATOM     10  O   LIG    1       -0.747   2.704  -3.220  0.00  0.00    -0.370 OA
ENDBRANCH   1  10
BRANCH   5  11
ATOM     11  O   LIG    1       -2.881   1.595   2.380  0.00  0.00    -0.570 OA
ATOM     12  H   LIG    1       -2.515   1.230   3.197  0.00  0.00    +0.380 HD
ENDBRANCH   5  11
TORSDOF 2
