REMARK  Name = ZINCrH000004mwlW.0
REMARK                            x       y       z     vdW  Elec       q    Type
REMARK                         _______ _______ _______ _____ _____    ______ ____
ROOT
ATOM      1  N   LIG    1        0.067  -2.039   1.630  0.00  0.00    -0.610 N 
ATOM      2  C   LIG    1        1.409  -1.978   1.740  0.00  0.00    +0.550 C 
ATOM      3  O   LIG    1        2.093  -1.806   0.750  0.00  0.00    -0.500 OA
ATOM      4  C   LIG    1       -0.761  -2.159   2.832  0.00  0.00    +0.280 C 
ENDROOT
BRANCH   2   5
ATOM      5  C   LIG    1        2.048  -2.120   3.063  0.00  0.00    -0.130 A 
ATOM      6  C   LIG    1        1.374  -2.771   4.100  0.00  0.00    +0.050 A 
ATOM      7  C   LIG    1        1.975  -2.905   5.332  0.00  0.00    +0.010 A 
ATOM      8  C   LIG    1        3.248  -2.386   5.547  0.00  0.00    +0.160 A 
ATOM      9  C   LIG    1        3.920  -1.733   4.518  0.00  0.00    +0.010 A 
ATOM     10  C   LIG    1        3.326  -1.599   3.283  0.00  0.00    +0.090 A 
BRANCH   8  11
ATOM     11  N   LIG    1        3.851  -2.519   6.797  0.00  0.00    -0.570 N 
ATOM     12  C   LIG    1        3.644  -1.455   7.772  0.00  0.00    +0.260 C 
ATOM     13  C   LIG    1        3.953  -1.956   9.184  0.00  0.00    +0.020 C 
ATOM     14  C   LIG    1        5.332  -2.625   9.176  0.00  0.00    +0.020 C 
ATOM     15  C   LIG    1        5.246  -3.904   8.340  0.00  0.00    +0.070 C 
ATOM     16  C   LIG    1        4.577  -3.613   7.027  0.00  0.00    +0.520 C 
ATOM     17  O   LIG    1        4.709  -4.414   6.126  0.00  0.00    -0.540 OA
ENDBRANCH   8  11
ENDBRANCH   2   5
BRANCH   1  18
ATOM     18  C   LIG    1       -0.563  -1.985   0.309  0.00  0.00    +0.360 C 
BRANCH  18  25
ATOM     19  C   LIG    1        0.165   0.260  -0.541  0.00  0.00    +0.140 A 
ATOM     20  C   LIG    1       -0.102   1.582  -0.866  0.00  0.00    -0.080 A 
ATOM     21  C   LIG    1       -1.380   2.085  -0.714  0.00  0.00    +0.050 A 
ATOM     22  C   LIG    1       -2.389   1.276  -0.227  0.00  0.00    -0.130 A 
ATOM     23  C   LIG    1       -2.125  -0.040   0.104  0.00  0.00    +0.060 A 
ATOM     24  C   LIG    1       -3.780   1.830  -0.056  0.00  0.00    +0.080 C 
ATOM     25  C   LIG    1       -0.850  -0.550  -0.052  0.00  0.00    -0.140 A 
BRANCH  19  27
ATOM     26  C   LIG    1        2.414   0.652  -1.204  0.00  0.00    +0.230 C 
ATOM     27  O   LIG    1        1.419  -0.239  -0.696  0.00  0.00    -0.270 OA
ENDBRANCH  19  27
ENDBRANCH  18  25
ENDBRANCH   1  18
TORSDOF 5
