REMARK  Name = ZINCqH0000008pbI.0
REMARK                            x       y       z     vdW  Elec       q    Type
REMARK                         _______ _______ _______ _____ _____    ______ ____
ROOT
ATOM      1  C   LIG    1        2.086   1.565   1.261  0.00  0.00    +0.020 C 
ATOM      2  C   LIG    1        2.133   0.035   1.302  0.00  0.00    +0.040 C 
ATOM      3  C   LIG    1        0.704  -0.513   1.263  0.00  0.00    +0.050 C 
ATOM      4  C   LIG    1        0.002  -0.004   0.002  0.00  0.00    +0.210 C 
ATOM      5  N   LIG    1       -0.018   1.464   0.010  0.00  0.00    -0.440 N 
ATOM      6  C   LIG    1        1.344   2.014   0.000  0.00  0.00    +0.210 C 
ENDROOT
BRANCH   5   7
ATOM      7  C   LIG    1       -0.757   1.955  -1.047  0.00  0.00    +0.300 A 
ATOM      8  N   LIG    1       -1.986   1.651  -1.289  0.00  0.00    -0.490 NA
ATOM      9  C   LIG    1       -2.575   2.214  -2.364  0.00  0.00    +0.100 A 
ATOM     10  C   LIG    1       -3.893   2.047  -2.837  0.00  0.00    +0.070 A 
ATOM     11  C   LIG    1       -4.318   2.711  -3.960  0.00  0.00    +0.040 A 
ATOM     12  C   LIG    1       -3.459   3.556  -4.647  0.00  0.00    +0.030 A 
ATOM     13  C   LIG    1       -2.167   3.735  -4.204  0.00  0.00    +0.060 A 
ATOM     14  C   LIG    1       -1.720   3.069  -3.066  0.00  0.00    -0.180 A 
ATOM     15  S   LIG    1       -0.158   3.088  -2.250  0.00  0.00    +0.020 S 
ENDBRANCH   5   7
BRANCH   1  18
ATOM     16  N   LIG    1        3.695   3.443   1.203  0.00  0.00    -0.730 N 
ATOM     17  H   LIG    1        2.938   4.050   1.190  0.00  0.00    +0.400 HD
ATOM     18  C   LIG    1        3.490   2.111   1.240  0.00  0.00    +0.520 C 
ATOM     19  O   LIG    1        4.436   1.353   1.256  0.00  0.00    -0.520 OA
BRANCH  16  21
ATOM     20  C   LIG    1        5.587   4.081   2.614  0.00  0.00    +0.040 C 
ATOM     21  C   LIG    1        5.060   3.974   1.182  0.00  0.00    +0.280 C 
BRANCH  21  22
ATOM     22  C   LIG    1        5.058   5.340   0.544  0.00  0.00    -0.050 A 
ATOM     23  C   LIG    1        4.038   6.242   0.802  0.00  0.00    -0.040 A 
ATOM     24  C   LIG    1        4.072   7.487   0.203  0.00  0.00    +0.270 A 
ATOM     25  N   LIG    1        5.054   7.816  -0.613  0.00  0.00    -0.480 NA
ATOM     26  C   LIG    1        6.038   6.981  -0.885  0.00  0.00    +0.270 A 
ATOM     27  C   LIG    1        6.074   5.721  -0.319  0.00  0.00    -0.020 A 
ENDBRANCH  21  22
ENDBRANCH  16  21
ENDBRANCH   1  18
TORSDOF 4
