REMARK  Name = ZINCqH0000004FBi.0
REMARK                            x       y       z     vdW  Elec       q    Type
REMARK                         _______ _______ _______ _____ _____    ______ ____
ROOT
ATOM      1  C   LIG    1        2.524   1.463   0.006  0.00  0.00    +0.350 C 
ATOM      2  C   LIG    1        3.083   1.709   1.429  0.00  0.00    +0.020 C 
ATOM      3  C   LIG    1        4.411   1.093   1.571  0.00  0.00    +0.000 C 
ATOM      4  C   LIG    1        5.474   1.672   0.642  0.00  0.00    +0.010 C 
ATOM      5  C   LIG    1        5.399   0.981  -0.697  0.00  0.00    +0.020 C 
ATOM      6  C   LIG    1        4.466   1.759  -1.642  0.00  0.00    +0.270 C 
ATOM      7  N   LIG    1        3.263   2.258  -0.949  0.00  0.00    -0.590 N 
ATOM      8  C   LIG    1        2.834   3.508  -1.217  0.00  0.00    +0.590 C 
ATOM      9  O   LIG    1        1.909   3.983  -0.585  0.00  0.00    -0.480 OA
ENDROOT
BRANCH   1  13
ATOM     10  C   LIG    1       -0.803   2.925   0.353  0.00  0.00    +0.000 A 
ATOM     11  C   LIG    1       -1.098   1.922  -0.494  0.00  0.00    -0.080 A 
ATOM     12  C   LIG    1        0.108   1.226  -0.740  0.00  0.00    -0.060 A 
ATOM     13  C   LIG    1        1.069   1.851  -0.035  0.00  0.00    -0.010 A 
ATOM     14  O   LIG    1        0.511   2.879   0.624  0.00  0.00    -0.130 OA
BRANCH  10  16
ATOM     15  C   LIG    1       -2.375   3.411   2.209  0.00  0.00    +0.030 C 
ATOM     16  C   LIG    1       -1.782   3.933   0.899  0.00  0.00    +0.130 C 
ENDBRANCH  10  16
ENDBRANCH   1  13
BRANCH   8  17
ATOM     17  C   LIG    1        3.483   4.295  -2.271  0.00  0.00    -0.060 A 
ATOM     18  C   LIG    1        3.244   5.610  -2.552  0.00  0.00    +0.050 A 
ATOM     19  C   LIG    1        4.082   5.951  -3.626  0.00  0.00    -0.010 A 
ATOM     20  C   LIG    1        4.779   4.841  -3.955  0.00  0.00    -0.000 A 
ATOM     21  O   LIG    1        4.415   3.845  -3.136  0.00  0.00    -0.150 OA
BRANCH  20  22
ATOM     22  C   LIG    1        5.799   4.740  -5.060  0.00  0.00    -0.230 C 
BRANCH  22  23
ATOM     23  S   LIG    1        7.441   5.150  -4.407  0.00  0.00    +2.420 S 
ATOM     24  O   LIG    1        7.813   4.157  -3.462  0.00  0.00    -0.920 OA
ATOM     25  O   LIG    1        7.444   6.516  -4.016  0.00  0.00    -0.920 OA
ATOM     26  C   LIG    1        8.485   4.967  -5.879  0.00  0.00    -0.250 C 
ENDBRANCH  22  23
ENDBRANCH  20  22
ENDBRANCH   8  17
TORSDOF 5
