REMARK  Name = ZINCpk00000e9LpF.0
REMARK                            x       y       z     vdW  Elec       q    Type
REMARK                         _______ _______ _______ _____ _____    ______ ____
ROOT
ATOM      1  N   LIG    1        4.606   4.083   0.182  0.00  0.00    -0.730 N 
ATOM      2  H   LIG    1        4.548   5.051   0.188  0.00  0.00    +0.410 HD
ATOM      3  C   LIG    1        3.483   3.342   0.088  0.00  0.00    +0.720 C 
ATOM      4  N   LIG    1        2.282   3.947   0.001  0.00  0.00    -0.660 N 
ATOM      5  H   LIG    1        2.229   4.914  -0.058  0.00  0.00    +0.410 HD
ATOM      6  O   LIG    1        3.555   2.129   0.081  0.00  0.00    -0.580 OA
ENDROOT
BRANCH   4   7
ATOM      7  C   LIG    1        1.111   3.180  -0.003  0.00  0.00    +0.130 A 
ATOM      8  C   LIG    1        1.088   1.930  -0.611  0.00  0.00    +0.100 A 
ATOM      9  C   LIG    1       -0.096   1.207  -0.590  0.00  0.00    -0.010 A 
ATOM     10  C   LIG    1       -1.209   1.748   0.024  0.00  0.00    +0.280 A 
ATOM     11  N   LIG    1       -1.158   2.934   0.599  0.00  0.00    -0.480 NA
ATOM     12  C   LIG    1       -0.052   3.658   0.603  0.00  0.00    +0.340 A 
BRANCH  12  13
ATOM     13  N   LIG    1       -0.047   4.914   1.219  0.00  0.00    -0.330 N 
ATOM     14  C   LIG    1       -1.127   5.715   1.414  0.00  0.00    +0.260 A 
ATOM     15  C   LIG    1       -0.699   6.833   2.043  0.00  0.00    -0.100 A 
ATOM     16  C   LIG    1        0.683   6.721   2.233  0.00  0.00    +0.260 A 
ATOM     17  N   LIG    1        1.074   5.573   1.740  0.00  0.00    -0.300 NA
ENDBRANCH  12  13
ENDBRANCH   4   7
BRANCH   1  18
ATOM     18  C   LIG    1        5.911   3.426   0.276  0.00  0.00    +0.340 C 
BRANCH  18  21
ATOM     19  C   LIG    1        8.636   2.674   0.479  0.00  0.00    +0.310 C 
ATOM     20  N   LIG    1        8.285   4.096   0.466  0.00  0.00    -0.610 N 
ATOM     21  C   LIG    1        6.994   4.470   0.370  0.00  0.00    +0.510 C 
ATOM     22  O   LIG    1        6.703   5.648   0.360  0.00  0.00    -0.510 OA
BRANCH  20  23
ATOM     23  C   LIG    1        9.337   5.111   0.558  0.00  0.00    +0.340 C 
BRANCH  23  24
ATOM     24  C   LIG    1        9.592   5.449   2.028  0.00  0.00    +0.430 C 
ATOM     25  F   LIG    1        8.417   5.943   2.604  0.00  0.00    -0.170 F 
ATOM     26  F   LIG    1       10.597   6.419   2.116  0.00  0.00    -0.180 F 
ATOM     27  F   LIG    1        9.996   4.296   2.709  0.00  0.00    -0.180 F 
ENDBRANCH  23  24
ENDBRANCH  20  23
ENDBRANCH  18  21
ENDBRANCH   1  18
TORSDOF 6
