REMARK  Name = ZINCqH0000001KTW.0
REMARK                            x       y       z     vdW  Elec       q    Type
REMARK                         _______ _______ _______ _____ _____    ______ ____
ROOT
ATOM      1  S   LIG    1       -3.280   0.078   4.266  0.00  0.00    +2.440 S 
ATOM      2  O   LIG    1       -2.046  -0.597   4.465  0.00  0.00    -0.920 OA
ATOM      3  O   LIG    1       -4.323  -0.577   3.558  0.00  0.00    -0.900 OA
ENDROOT
BRANCH   1   4
ATOM      4  C   LIG    1       -2.946   1.670   3.463  0.00  0.00    -0.460 C 
ATOM      5  C   LIG    1       -4.215   2.524   3.475  0.00  0.00    +0.120 C 
BRANCH   4   6
ATOM      6  C   LIG    1       -2.514   1.432   2.038  0.00  0.00    +0.540 C 
ATOM      7  N   LIG    1       -1.752   2.345   1.404  0.00  0.00    -0.600 N 
ATOM      8  C   LIG    1       -1.342   3.567   2.100  0.00  0.00    +0.290 C 
ATOM      9  O   LIG    1       -2.853   0.420   1.463  0.00  0.00    -0.510 OA
BRANCH   7  10
ATOM     10  C   LIG    1       -1.332   2.114   0.020  0.00  0.00    +0.340 C 
BRANCH  10  11
ATOM     11  C   LIG    1       -0.017   1.378   0.010  0.00  0.00    -0.120 A 
ATOM     12  C   LIG    1        1.171   2.086   0.002  0.00  0.00    +0.010 A 
ATOM     13  C   LIG    1        2.377   1.411  -0.014  0.00  0.00    +0.000 A 
ATOM     14  C   LIG    1        2.396   0.029  -0.021  0.00  0.00    +0.010 A 
ATOM     15  C   LIG    1        1.208  -0.679  -0.014  0.00  0.00    +0.000 A 
ATOM     16  C   LIG    1        0.002  -0.004   0.002  0.00  0.00    +0.030 A 
ENDBRANCH  10  11
ENDBRANCH   7  10
ENDBRANCH   4   6
ENDBRANCH   1   4
BRANCH   1  17
ATOM     17  C   LIG    1       -3.919   0.601   5.882  0.00  0.00    -0.280 C 
BRANCH  17  21
ATOM     18  C   LIG    1       -4.879  -2.844   8.217  0.00  0.00    -0.060 A 
ATOM     19  C   LIG    1       -3.611  -2.296   8.282  0.00  0.00    +0.010 A 
ATOM     20  C   LIG    1       -3.300  -1.182   7.526  0.00  0.00    +0.030 A 
ATOM     21  C   LIG    1       -4.257  -0.614   6.706  0.00  0.00    -0.100 A 
ATOM     22  C   LIG    1       -5.526  -1.159   6.645  0.00  0.00    +0.030 A 
ATOM     23  C   LIG    1       -5.836  -2.277   7.397  0.00  0.00    +0.020 A 
BRANCH  18  25
ATOM     24  C   LIG    1       -6.369  -3.727   9.992  0.00  0.00    +0.030 C 
ATOM     25  C   LIG    1       -5.217  -4.060   9.041  0.00  0.00    +0.020 C 
ATOM     26  C   LIG    1       -5.635  -5.204   8.114  0.00  0.00    +0.030 C 
ENDBRANCH  18  25
ENDBRANCH  17  21
ENDBRANCH   1  17
TORSDOF 7
