REMARK  Name = ZINCqH0000004yLB.0
REMARK                            x       y       z     vdW  Elec       q    Type
REMARK                         _______ _______ _______ _____ _____    ______ ____
ROOT
ATOM      1  C   LIG    1       -1.240   2.184   0.020  0.00  0.00    +0.220 C 
ENDROOT
BRANCH   1   2
ATOM      2  C   LIG    1       -0.016   1.306   0.009  0.00  0.00    +0.190 A 
ATOM      3  N   LIG    1        0.002  -0.004   0.002  0.00  0.00    -0.470 NA
ATOM      4  C   LIG    1        1.309  -0.349  -0.012  0.00  0.00    +0.210 A 
ATOM      5  N   LIG    1        2.002   0.760  -0.013  0.00  0.00    -0.380 NA
ATOM      6  O   LIG    1        1.256   1.716  -0.001  0.00  0.00    +0.080 OA
BRANCH   4   7
ATOM      7  C   LIG    1        1.856  -1.729  -0.025  0.00  0.00    -0.030 A 
ATOM      8  C   LIG    1        0.993  -2.823  -0.018  0.00  0.00    +0.070 A 
ATOM      9  C   LIG    1        1.507  -4.104  -0.035  0.00  0.00    +0.010 A 
ATOM     10  C   LIG    1        2.876  -4.303  -0.049  0.00  0.00    -0.060 A 
ATOM     11  C   LIG    1        3.737  -3.221  -0.052  0.00  0.00    +0.010 A 
ATOM     12  C   LIG    1        3.234  -1.935  -0.040  0.00  0.00    +0.050 A 
BRANCH  10  13
ATOM     13  C   LIG    1        3.430  -5.704  -0.062  0.00  0.00    +0.020 C 
ATOM     14  C   LIG    1        2.936  -6.437  -1.310  0.00  0.00    +0.030 C 
ATOM     15  C   LIG    1        2.959  -6.450   1.188  0.00  0.00    +0.030 C 
ENDBRANCH  10  13
ENDBRANCH   4   7
ENDBRANCH   1   2
BRANCH   1  16
ATOM     16  C   LIG    1       -1.647   2.474   1.466  0.00  0.00    +0.090 C 
BRANCH  16  17
ATOM     17  C   LIG    1       -2.872   3.352   1.477  0.00  0.00    +0.490 C 
ATOM     18  O   LIG    1       -3.371   3.712   0.428  0.00  0.00    -0.600 OA
BRANCH  17  24
ATOM     19  C   LIG    1       -6.208   5.742   3.373  0.00  0.00    +0.190 A 
ATOM     20  C   LIG    1       -5.166   4.987   3.784  0.00  0.00    -0.090 A 
ATOM     21  C   LIG    1       -4.489   4.510   2.642  0.00  0.00    +0.480 A 
ATOM     22  N   LIG    1       -5.156   4.990   1.542  0.00  0.00    -0.480 N 
ATOM     23  H   LIG    1       -4.926   4.827   0.614  0.00  0.00    +0.460 HD
ATOM     24  N   LIG    1       -3.406   3.733   2.633  0.00  0.00    -0.650 NA
ATOM     25  N   LIG    1       -6.230   5.760   2.010  0.00  0.00    -0.490 N 
ATOM     26  H   LIG    1       -6.878   6.226   1.458  0.00  0.00    +0.450 HD
BRANCH  19  28
ATOM     27  C   LIG    1       -6.746   7.894   4.481  0.00  0.00    +0.050 C 
ATOM     28  C   LIG    1       -7.190   6.445   4.274  0.00  0.00    +0.130 C 
ENDBRANCH  19  28
ENDBRANCH  17  24
ENDBRANCH  16  17
ENDBRANCH   1  16
TORSDOF 7
