REMARK  Name = ZINCqH0000007Oj9.0
REMARK                            x       y       z     vdW  Elec       q    Type
REMARK                         _______ _______ _______ _____ _____    ______ ____
ROOT
ATOM      1  N   LIG    1        4.810   1.512   0.639  0.00  0.00    -0.690 N 
ATOM      2  H   LIG    1        5.710   1.627   0.294  0.00  0.00    +0.400 HD
ATOM      3  C   LIG    1        4.599   0.744   1.727  0.00  0.00    +0.570 C 
ATOM      4  O   LIG    1        3.473   0.600   2.159  0.00  0.00    -0.510 OA
ENDROOT
BRANCH   3   5
ATOM      5  C   LIG    1        5.737   0.079   2.393  0.00  0.00    -0.200 A 
ATOM      6  C   LIG    1        7.039   0.237   1.903  0.00  0.00    +0.370 A 
ATOM      7  N   LIG    1        8.066  -0.346   2.481  0.00  0.00    -0.460 NA
ATOM      8  C   LIG    1        7.923  -1.111   3.551  0.00  0.00    +0.230 A 
ATOM      9  O   LIG    1        8.757  -1.816   4.334  0.00  0.00    +0.090 OA
ATOM     10  N   LIG    1        8.191  -2.390   5.234  0.00  0.00    -0.310 NA
ATOM     11  C   LIG    1        6.905  -2.199   5.244  0.00  0.00    +0.080 A 
ATOM     12  C   LIG    1        6.639  -1.318   4.102  0.00  0.00    -0.220 A 
ATOM     13  C   LIG    1        5.531  -0.716   3.526  0.00  0.00    +0.230 A 
BRANCH  11  14
ATOM     14  C   LIG    1        5.903  -2.761   6.219  0.00  0.00    +0.080 C 
ATOM     15  C   LIG    1        6.250  -2.292   7.634  0.00  0.00    +0.040 C 
ATOM     16  C   LIG    1        5.940  -4.289   6.164  0.00  0.00    +0.040 C 
ENDBRANCH  11  14
ENDBRANCH   3   5
BRANCH   1  17
ATOM     17  C   LIG    1        3.682   2.172  -0.022  0.00  0.00    +0.160 C 
ATOM     18  C   LIG    1        3.602   3.697   0.072  0.00  0.00    +0.020 C 
ATOM     19  C   LIG    1        3.987   3.031  -1.251  0.00  0.00    +0.050 C 
BRANCH  17  25
ATOM     20  C   LIG    1        2.149   0.428  -0.970  0.00  0.00    +0.140 A 
ATOM     21  C   LIG    1        0.954  -0.276  -0.960  0.00  0.00    -0.090 A 
ATOM     22  C   LIG    1        0.001  -0.002   0.002  0.00  0.00    +0.050 A 
ATOM     23  C   LIG    1        0.237   0.972   0.954  0.00  0.00    -0.040 A 
ATOM     24  C   LIG    1        1.428   1.675   0.946  0.00  0.00    +0.110 A 
ATOM     25  C   LIG    1        2.385   1.405  -0.014  0.00  0.00    -0.080 A 
BRANCH  20  27
ATOM     26  C   LIG    1        2.779  -0.858  -2.868  0.00  0.00    +0.240 C 
ATOM     27  O   LIG    1        3.089   0.161  -1.915  0.00  0.00    -0.310 OA
ENDBRANCH  20  27
ENDBRANCH  17  25
ENDBRANCH   1  17
TORSDOF 5
