REMARK  Name = ZINCpe00000gMIZq.0
REMARK                            x       y       z     vdW  Elec       q    Type
REMARK                         _______ _______ _______ _____ _____    ______ ____
ROOT
ATOM      1  C   LIG    1       -1.105   2.111  -4.089  0.00  0.00    +0.020 C 
ATOM      2  C   LIG    1       -2.025   1.228  -3.245  0.00  0.00    +0.180 C 
ENDROOT
BRANCH   2   3
ATOM      3  N   LIG    1       -2.490   0.092  -4.053  0.00  0.00    -0.520 NA
ATOM      4  C   LIG    1       -1.355  -0.703  -4.545  0.00  0.00    +0.190 C 
ATOM      5  C   LIG    1       -1.882  -1.918  -5.313  0.00  0.00    +0.200 C 
ATOM      6  N   LIG    1       -2.725  -1.462  -6.427  0.00  0.00    -0.490 N 
ATOM      7  C   LIG    1       -3.859  -0.667  -5.936  0.00  0.00    +0.200 C 
ATOM      8  C   LIG    1       -3.332   0.548  -5.168  0.00  0.00    +0.180 C 
BRANCH   6   9
ATOM      9  C   LIG    1       -3.166  -2.542  -7.196  0.00  0.00    +0.110 A 
ATOM     10  C   LIG    1       -4.526  -2.743  -7.397  0.00  0.00    -0.040 A 
ATOM     11  C   LIG    1       -4.958  -3.809  -8.161  0.00  0.00    +0.030 A 
ATOM     12  C   LIG    1       -4.040  -4.681  -8.717  0.00  0.00    -0.030 A 
ATOM     13  C   LIG    1       -2.686  -4.486  -8.514  0.00  0.00    +0.030 A 
ATOM     14  C   LIG    1       -2.246  -3.419  -7.756  0.00  0.00    -0.020 A 
ENDBRANCH   6   9
ENDBRANCH   2   3
BRANCH   2  15
ATOM     15  C   LIG    1       -1.270   0.715  -2.046  0.00  0.00    +0.520 C 
ATOM     16  N   LIG    1       -0.747   1.584  -1.158  0.00  0.00    -0.600 N 
ATOM     17  C   LIG    1       -0.914   3.025  -1.357  0.00  0.00    +0.290 C 
ATOM     18  O   LIG    1       -1.131  -0.478  -1.881  0.00  0.00    -0.510 OA
BRANCH  16  19
ATOM     19  C   LIG    1       -0.013   1.086   0.008  0.00  0.00    +0.270 C 
ATOM     20  C   LIG    1       -0.668   1.597   1.303  0.00  0.00    +0.060 C 
ATOM     21  C   LIG    1        0.300   1.351   2.477  0.00  0.00    -0.310 C 
ATOM     22  S   LIG    1        1.970   1.389   1.733  0.00  0.00    +2.400 S 
ATOM     23  O   LIG    1        2.664   2.545   2.182  0.00  0.00    -0.930 OA
ATOM     24  O   LIG    1        2.572   0.108   1.862  0.00  0.00    -0.930 OA
ATOM     25  C   LIG    1        1.437   1.637  -0.003  0.00  0.00    -0.330 C 
ENDBRANCH  16  19
ENDBRANCH   2  15
TORSDOF 4
