REMARK  Name = ZINCpk00000e9kI2.0
REMARK                            x       y       z     vdW  Elec       q    Type
REMARK                         _______ _______ _______ _____ _____    ______ ____
ROOT
ATOM      1  N   LIG    1       -1.151   1.781   0.017  0.00  0.00    -0.370 N 
ATOM      2  C   LIG    1       -0.746   3.084   0.024  0.00  0.00    +0.360 A 
ATOM      3  C   LIG    1        0.604   3.123   0.012  0.00  0.00    -0.110 A 
ATOM      4  C   LIG    1        1.084   1.796   0.001  0.00  0.00    +0.490 A 
ATOM      5  N   LIG    1        2.360   1.418  -0.012  0.00  0.00    -0.670 NA
ATOM      6  N   LIG    1       -0.011   0.966   0.007  0.00  0.00    -0.470 N 
ATOM      7  H   LIG    1        0.002  -0.004   0.002  0.00  0.00    +0.450 HD
ENDROOT
BRANCH   5   8
ATOM      8  C   LIG    1        3.330   2.339  -0.017  0.00  0.00    +0.540 C 
ATOM      9  O   LIG    1        3.045   3.524  -0.008  0.00  0.00    -0.560 OA
BRANCH   8  10
ATOM     10  C   LIG    1        4.748   1.920  -0.032  0.00  0.00    -0.100 A 
ATOM     11  C   LIG    1        5.075   0.563  -0.035  0.00  0.00    +0.100 A 
ATOM     12  C   LIG    1        6.398   0.170  -0.056  0.00  0.00    +0.010 A 
ATOM     13  C   LIG    1        7.403   1.126  -0.060  0.00  0.00    +0.090 A 
ATOM     14  O   LIG    1        8.711   0.745  -0.075  0.00  0.00    -0.320 OA
ATOM     15  C   LIG    1        9.433   1.033  -1.274  0.00  0.00    +0.230 C 
ATOM     16  C   LIG    1        9.967   2.457  -1.254  0.00  0.00    -0.020 C 
ATOM     17  C   LIG    1        8.854   3.493  -1.254  0.00  0.00    +0.230 C 
ATOM     18  O   LIG    1        8.083   3.408  -0.054  0.00  0.00    -0.320 OA
ATOM     19  C   LIG    1        7.083   2.480  -0.050  0.00  0.00    +0.050 A 
ATOM     20  C   LIG    1        5.762   2.881  -0.036  0.00  0.00    +0.080 A 
ENDBRANCH   8  10
ENDBRANCH   5   8
BRANCH   1  21
ATOM     21  C   LIG    1       -2.540   1.315   0.020  0.00  0.00    +0.390 C 
BRANCH  21  24
ATOM     22  N   LIG    1       -4.311   0.863   1.687  0.00  0.00    -0.730 N 
ATOM     23  H   LIG    1       -4.891   0.605   0.954  0.00  0.00    +0.400 HD
ATOM     24  C   LIG    1       -3.049   1.266   1.438  0.00  0.00    +0.480 C 
ATOM     25  O   LIG    1       -2.323   1.588   2.355  0.00  0.00    -0.510 OA
BRANCH  22  27
ATOM     26  C   LIG    1       -6.256   0.328   3.069  0.00  0.00    +0.030 C 
ATOM     27  C   LIG    1       -4.806   0.815   3.065  0.00  0.00    +0.250 C 
ENDBRANCH  22  27
ENDBRANCH  21  24
ENDBRANCH   1  21
TORSDOF 5
