REMARK  Name = ZINCkj00000y7w4V.0
REMARK                            x       y       z     vdW  Elec       q    Type
REMARK                         _______ _______ _______ _____ _____    ______ ____
ROOT
ATOM      1  N   LIG    1       -1.691  -1.746   0.048  0.00  0.00    -0.380 N 
ATOM      2  C   LIG    1       -1.247  -0.563  -0.711  0.00  0.00    +0.280 C 
ATOM      3  C   LIG    1        0.002  -0.004   0.002  0.00  0.00    +0.190 C 
ATOM      4  C   LIG    1       -0.139  -0.562   1.443  0.00  0.00    +0.090 C 
ATOM      5  C   LIG    1       -0.761  -1.956   1.179  0.00  0.00    +0.170 C 
ATOM      6  H   LIG    1       -2.623  -1.593   0.402  0.00  0.00    +0.440 HD
ENDROOT
BRANCH   5   7
ATOM      7  C   LIG    1       -1.512  -2.437   2.393  0.00  0.00    +0.520 C 
ATOM      8  O   LIG    1       -2.713  -2.595   2.340  0.00  0.00    -0.520 OA
ATOM      9  N   LIG    1       -0.849  -2.690   3.539  0.00  0.00    -0.820 N 
ATOM     10  H   LIG    1       -1.332  -2.999   4.321  0.00  0.00    +0.430 HD
ATOM     11  H   LIG    1        0.112  -2.563   3.582  0.00  0.00    +0.410 HD
ENDBRANCH   5   7
BRANCH   3  12
ATOM     12  O   LIG    1       -0.017   1.425   0.010  0.00  0.00    -0.360 OA
ATOM     13  C   LIG    1        1.280   2.024   0.001  0.00  0.00    +0.230 C 
ENDBRANCH   3  12
BRANCH   1  14
ATOM     14  C   LIG    1       -1.680  -2.927  -0.826  0.00  0.00    +0.250 C 
BRANCH  14  15
ATOM     15  C   LIG    1       -2.743  -2.764  -1.915  0.00  0.00    +0.100 C 
BRANCH  15  21
ATOM     16  C   LIG    1       -3.449  -5.103  -2.459  0.00  0.00    -0.070 A 
ATOM     17  C   LIG    1       -3.442  -6.213  -3.283  0.00  0.00    +0.020 A 
ATOM     18  C   LIG    1       -2.712  -6.197  -4.457  0.00  0.00    +0.030 A 
ATOM     19  C   LIG    1       -1.991  -5.071  -4.808  0.00  0.00    +0.010 A 
ATOM     20  C   LIG    1       -2.001  -3.960  -3.985  0.00  0.00    +0.010 A 
ATOM     21  C   LIG    1       -2.732  -3.975  -2.812  0.00  0.00    -0.110 A 
BRANCH  16  23
ATOM     22  C   LIG    1       -5.619  -4.502  -1.419  0.00  0.00    +0.020 C 
ATOM     23  C   LIG    1       -4.241  -5.122  -1.177  0.00  0.00    +0.050 C 
ENDBRANCH  16  23
ENDBRANCH  15  21
ENDBRANCH  14  15
ENDBRANCH   1  14
TORSDOF 6
