REMARK  Name = ZINCkj00000y7w4V.1
REMARK                            x       y       z     vdW  Elec       q    Type
REMARK                         _______ _______ _______ _____ _____    ______ ____
ROOT
ATOM      1  N   LIG    1       -0.040   1.062   2.457  0.00  0.00    -0.370 N 
ATOM      2  C   LIG    1        1.345   1.579   2.429  0.00  0.00    +0.290 C 
ATOM      3  C   LIG    1        1.685   1.877   3.911  0.00  0.00    +0.180 C 
ATOM      4  C   LIG    1        0.330   2.414   4.442  0.00  0.00    +0.080 C 
ATOM      5  C   LIG    1       -0.705   1.566   3.673  0.00  0.00    +0.160 C 
ATOM      6  H   LIG    1       -0.024   0.053   2.472  0.00  0.00    +0.430 HD
ENDROOT
BRANCH   5   7
ATOM      7  C   LIG    1       -1.888   2.419   3.294  0.00  0.00    +0.510 C 
ATOM      8  O   LIG    1       -1.735   3.380   2.570  0.00  0.00    -0.500 OA
ATOM      9  N   LIG    1       -3.115   2.115   3.761  0.00  0.00    -0.830 N 
ATOM     10  H   LIG    1       -3.877   2.665   3.517  0.00  0.00    +0.420 HD
ATOM     11  H   LIG    1       -3.237   1.347   4.340  0.00  0.00    +0.410 HD
ENDBRANCH   5   7
BRANCH   3  12
ATOM     12  O   LIG    1        2.705   2.874   4.011  0.00  0.00    -0.360 OA
ATOM     13  C   LIG    1        3.441   2.831   5.235  0.00  0.00    +0.230 C 
ENDBRANCH   3  12
BRANCH   1  14
ATOM     14  C   LIG    1       -0.766   1.528   1.268  0.00  0.00    +0.260 C 
BRANCH  14  15
ATOM     15  C   LIG    1       -0.181   0.863   0.020  0.00  0.00    +0.090 C 
BRANCH  15  21
ATOM     16  C   LIG    1       -0.558   2.524  -1.814  0.00  0.00    -0.070 A 
ATOM     17  C   LIG    1       -1.238   2.960  -2.936  0.00  0.00    +0.020 A 
ATOM     18  C   LIG    1       -2.291   2.219  -3.438  0.00  0.00    +0.030 A 
ATOM     19  C   LIG    1       -2.662   1.039  -2.820  0.00  0.00    +0.010 A 
ATOM     20  C   LIG    1       -1.979   0.600  -1.701  0.00  0.00    +0.010 A 
ATOM     21  C   LIG    1       -0.926   1.341  -1.200  0.00  0.00    -0.100 A 
BRANCH  16  23
ATOM     22  C   LIG    1        1.906   2.803  -1.828  0.00  0.00    +0.020 C 
ATOM     23  C   LIG    1        0.587   3.335  -1.264  0.00  0.00    +0.050 C 
ENDBRANCH  16  23
ENDBRANCH  15  21
ENDBRANCH  14  15
ENDBRANCH   1  14
TORSDOF 6
