REMARK  Name = ZINCqH0000007Caa.0
REMARK                            x       y       z     vdW  Elec       q    Type
REMARK                         _______ _______ _______ _____ _____    ______ ____
ROOT
ATOM      1  C   LIG    1        5.612  -0.237   0.073  0.00  0.00    +0.220 A 
ATOM      2  N   LIG    1        4.966  -0.891  -0.858  0.00  0.00    -0.370 NA
ATOM      3  O   LIG    1        3.776  -0.680  -0.766  0.00  0.00    +0.090 OA
ATOM      4  C   LIG    1        3.535   0.155   0.250  0.00  0.00    +0.180 A 
ATOM      5  N   LIG    1        4.691   0.443   0.794  0.00  0.00    -0.460 NA
ENDROOT
BRANCH   4   6
ATOM      6  C   LIG    1        2.187   0.665   0.690  0.00  0.00    +0.360 C 
ATOM      7  C   LIG    1        1.662   1.703  -0.324  0.00  0.00    +0.060 C 
ATOM      8  C   LIG    1        0.144   1.388  -0.388  0.00  0.00    +0.060 C 
ATOM      9  C   LIG    1        0.139  -0.154  -0.238  0.00  0.00    +0.270 C 
ATOM     10  N   LIG    1        1.220  -0.442   0.722  0.00  0.00    -0.610 N 
ATOM     11  C   LIG    1        1.308  -1.539   1.500  0.00  0.00    +0.580 C 
ATOM     12  O   LIG    1        2.281  -1.705   2.209  0.00  0.00    -0.520 OA
BRANCH  11  13
ATOM     13  C   LIG    1        0.220  -2.540   1.492  0.00  0.00    -0.130 A 
ATOM     14  C   LIG    1       -0.008  -3.338   2.614  0.00  0.00    +0.070 A 
ATOM     15  C   LIG    1       -1.028  -4.267   2.601  0.00  0.00    +0.000 A 
ATOM     16  C   LIG    1       -1.817  -4.416   1.475  0.00  0.00    +0.040 A 
ATOM     17  C   LIG    1       -1.594  -3.632   0.357  0.00  0.00    +0.000 A 
ATOM     18  C   LIG    1       -0.581  -2.696   0.359  0.00  0.00    +0.040 A 
ENDBRANCH  11  13
ENDBRANCH   4   6
BRANCH   1  23
ATOM     19  C   LIG    1        9.278  -0.990  -0.318  0.00  0.00    +0.130 A 
ATOM     20  C   LIG    1        9.819  -0.240   0.717  0.00  0.00    -0.060 A 
ATOM     21  C   LIG    1        8.995   0.506   1.538  0.00  0.00    +0.060 A 
ATOM     22  C   LIG    1        7.630   0.515   1.330  0.00  0.00    +0.030 A 
ATOM     23  C   LIG    1        7.079  -0.239   0.296  0.00  0.00    +0.020 A 
ATOM     24  C   LIG    1        7.909  -0.991  -0.531  0.00  0.00    +0.020 A 
BRANCH  19  26
ATOM     25  C   LIG    1       11.493  -1.675  -0.846  0.00  0.00    +0.250 C 
ATOM     26  O   LIG    1       10.092  -1.722  -1.123  0.00  0.00    -0.310 OA
ENDBRANCH  19  26
ENDBRANCH   1  23
TORSDOF 4
