REMARK  Name = ZINCrg000000teKw.0
REMARK                            x       y       z     vdW  Elec       q    Type
REMARK                         _______ _______ _______ _____ _____    ______ ____
ROOT
ATOM      1  C   LIG    1       -1.173  -2.073  -0.099  0.00  0.00    +0.510 C 
ATOM      2  N   LIG    1       -1.197  -0.730   0.010  0.00  0.00    -0.660 N 
ATOM      3  H   LIG    1       -2.044  -0.266   0.098  0.00  0.00    +0.420 HD
ATOM      4  O   LIG    1       -0.112  -2.661  -0.113  0.00  0.00    -0.520 OA
ENDROOT
BRANCH   2   5
ATOM      5  C   LIG    1        0.002  -0.004  -0.004  0.00  0.00    +0.070 A 
ATOM      6  C   LIG    1        1.087  -0.448  -0.757  0.00  0.00    +0.100 A 
ATOM      7  C   LIG    1        2.250   0.301  -0.742  0.00  0.00    -0.020 A 
ATOM      8  C   LIG    1        2.298   1.463   0.020  0.00  0.00    +0.300 A 
ATOM      9  N   LIG    1        1.247   1.855   0.724  0.00  0.00    -0.500 NA
ATOM     10  C   LIG    1        0.122   1.165   0.732  0.00  0.00    +0.270 A 
BRANCH   8  11
ATOM     11  N   LIG    1        3.464   2.224   0.042  0.00  0.00    -0.480 N 
ATOM     12  C   LIG    1        4.612   1.414   0.474  0.00  0.00    +0.180 C 
ATOM     13  C   LIG    1        5.880   2.271   0.427  0.00  0.00    +0.230 C 
ATOM     14  O   LIG    1        5.696   3.430   1.245  0.00  0.00    -0.380 OA
ATOM     15  C   LIG    1        4.587   4.242   0.852  0.00  0.00    +0.220 C 
ATOM     16  C   LIG    1        3.306   3.405   0.903  0.00  0.00    +0.190 C 
ENDBRANCH   8  11
ENDBRANCH   2   5
BRANCH   1  17
ATOM     17  C   LIG    1       -2.463  -2.844  -0.204  0.00  0.00    +0.320 C 
BRANCH  17  20
ATOM     18  O   LIG    1       -4.327  -4.779  -0.423  0.00  0.00    -0.510 OA
ATOM     19  C   LIG    1       -3.177  -5.164  -0.417  0.00  0.00    +0.520 C 
ATOM     20  N   LIG    1       -2.170  -4.275  -0.312  0.00  0.00    -0.720 N 
ATOM     21  H   LIG    1       -1.250  -4.583  -0.307  0.00  0.00    +0.410 HD
BRANCH  19  22
ATOM     22  C   LIG    1       -2.875  -6.636  -0.528  0.00  0.00    +0.240 C 
BRANCH  22  23
ATOM     23  O   LIG    1       -4.099  -7.367  -0.627  0.00  0.00    -0.290 OA
BRANCH  23  24
ATOM     24  C   LIG    1       -4.003  -8.719  -0.735  0.00  0.00    +0.130 A 
ATOM     25  C   LIG    1       -2.757  -9.328  -0.750  0.00  0.00    -0.080 A 
ATOM     26  C   LIG    1       -2.663 -10.702  -0.854  0.00  0.00    +0.050 A 
ATOM     27  C   LIG    1       -3.808 -11.470  -0.954  0.00  0.00    -0.030 A 
ATOM     28  C   LIG    1       -5.051 -10.864  -0.944  0.00  0.00    +0.050 A 
ATOM     29  C   LIG    1       -5.151  -9.491  -0.835  0.00  0.00    -0.020 A 
ENDBRANCH  23  24
ENDBRANCH  22  23
ENDBRANCH  19  22
ENDBRANCH  17  20
ENDBRANCH   1  17
TORSDOF 7
