REMARK  Name = ZINCrH00000tj1dx.0
REMARK                            x       y       z     vdW  Elec       q    Type
REMARK                         _______ _______ _______ _____ _____    ______ ____
ROOT
ATOM      1  C   LIG    1       -0.083   6.023  -1.690  0.00  0.00    -0.520 A 
ATOM      2  C   LIG    1        0.982   6.483  -2.390  0.00  0.00    +0.250 A 
ATOM      3  O   LIG    1        0.515   6.928  -3.575  0.00  0.00    -0.210 OA
ATOM      4  C   LIG    1       -0.820   6.745  -3.583  0.00  0.00    +0.250 A 
ATOM      5  N   LIG    1       -1.177   6.199  -2.445  0.00  0.00    -0.390 NA
ENDROOT
BRANCH   4   6
ATOM      6  C   LIG    1       -1.730   7.100  -4.691  0.00  0.00    -0.010 A 
ATOM      7  C   LIG    1       -1.225   7.684  -5.854  0.00  0.00    +0.060 A 
ATOM      8  C   LIG    1       -2.079   8.010  -6.886  0.00  0.00    +0.050 A 
ATOM      9  C   LIG    1       -3.437   7.767  -6.767  0.00  0.00    -0.070 A 
ATOM     10  C   LIG    1       -3.946   7.193  -5.614  0.00  0.00    +0.060 A 
ATOM     11 BR   LIG    1       -4.603   8.223  -8.185  0.00  0.00    -0.030 Br
ATOM     12  C   LIG    1       -3.101   6.859  -4.577  0.00  0.00    +0.090 A 
ENDBRANCH   4   6
BRANCH   2  13
ATOM     13  N   LIG    1        2.307   6.493  -1.969  0.00  0.00    -0.430 N 
ATOM     14  C   LIG    1        2.820   7.868  -1.877  0.00  0.00    +0.170 C 
ATOM     15  C   LIG    1        4.259   7.836  -1.354  0.00  0.00    +0.250 C 
ATOM     16  O   LIG    1        5.055   7.016  -2.213  0.00  0.00    -0.380 OA
ATOM     17  C   LIG    1        4.584   5.670  -2.325  0.00  0.00    +0.240 C 
ATOM     18  C   LIG    1        3.149   5.680  -2.858  0.00  0.00    +0.170 C 
ENDBRANCH   2  13
BRANCH   1  20
ATOM     19  O   LIG    1       -1.345   5.476   0.466  0.00  0.00    -0.920 OA
ATOM     20  S   LIG    1       -0.039   5.325  -0.072  0.00  0.00    +2.620 S 
ATOM     21  O   LIG    1        1.126   5.842   0.556  0.00  0.00    -0.910 OA
BRANCH  20  22
ATOM     22  C   LIG    1        0.225   3.593  -0.259  0.00  0.00    -0.660 A 
ATOM     23  C   LIG    1        1.511   3.088  -0.289  0.00  0.00    +0.120 A 
ATOM     24  C   LIG    1        1.718   1.729  -0.436  0.00  0.00    +0.000 A 
ATOM     25  C   LIG    1        0.637   0.875  -0.552  0.00  0.00    +0.070 A 
ATOM     26  C   LIG    1       -0.649   1.379  -0.528  0.00  0.00    +0.000 A 
ATOM     27  C   LIG    1       -0.856   2.738  -0.375  0.00  0.00    +0.120 A 
ENDBRANCH  20  22
ENDBRANCH   1  20
TORSDOF 4
