REMARK  Name = ZINCpe000000ZHNR.1
REMARK                            x       y       z     vdW  Elec       q    Type
REMARK                         _______ _______ _______ _____ _____    ______ ____
ROOT
ATOM      1  C   LIG    1        5.867   6.133  -0.025  0.00  0.00    -0.040 A 
ATOM      2  C   LIG    1        6.190   6.742  -1.223  0.00  0.00    +0.040 A 
ATOM      3  C   LIG    1        6.845   7.959  -1.228  0.00  0.00    +0.010 A 
ATOM      4  C   LIG    1        7.189   8.566  -0.029  0.00  0.00    +0.020 A 
ATOM      5  C   LIG    1        6.868   7.949   1.176  0.00  0.00    +0.140 A 
ATOM      6  F   LIG    1        7.201   8.536   2.347  0.00  0.00    -0.130 F 
ATOM      7  C   LIG    1        6.208   6.734   1.174  0.00  0.00    +0.020 A 
ENDROOT
BRANCH   4   8
ATOM      8  N   LIG    1        7.855   9.795  -0.031  0.00  0.00    -0.490 N 
ATOM      9  C   LIG    1        7.019  10.847  -0.627  0.00  0.00    +0.230 C 
ATOM     10  C   LIG    1        7.760  12.184  -0.556  0.00  0.00    +0.280 C 
ATOM     11  N   LIG    1        9.033  12.078  -1.280  0.00  0.00    -0.510 N 
ATOM     12  C   LIG    1        9.867  11.041  -0.658  0.00  0.00    +0.280 C 
ATOM     13  H   LIG    1        8.853  11.833  -2.242  0.00  0.00    +0.430 HD
ATOM     14  H   LIG    1        9.515  12.964  -1.244  0.00  0.00    +0.430 HD
ATOM     15  C   LIG    1        9.144   9.694  -0.730  0.00  0.00    +0.230 C 
ENDBRANCH   4   8
BRANCH   1  16
ATOM     16  C   LIG    1        5.148   4.809  -0.024  0.00  0.00    +0.340 C 
BRANCH  16  17
ATOM     17  N   LIG    1        3.701   5.039  -0.009  0.00  0.00    -0.710 N 
ATOM     18  H   LIG    1        3.354   5.945  -0.001  0.00  0.00    +0.400 HD
BRANCH  17  22
ATOM     19  O   LIG    1        3.014   0.541  -0.023  0.00  0.00    -0.590 OA
ATOM     20  C   LIG    1        2.549   1.671  -0.013  0.00  0.00    +0.570 A 
ATOM     21  N   LIG    1        3.345   2.750  -0.016  0.00  0.00    -0.710 NA
ATOM     22  C   LIG    1        2.834   3.970  -0.005  0.00  0.00    +0.640 A 
ATOM     23  N   LIG    1        1.529   4.219   0.009  0.00  0.00    -0.700 NA
ATOM     24  C   LIG    1        0.638   3.244   0.013  0.00  0.00    +0.390 A 
ATOM     25  N   LIG    1       -0.732   3.194   0.025  0.00  0.00    -0.500 N 
ATOM     26  H   LIG    1       -1.331   3.958   0.034  0.00  0.00    +0.430 HD
ATOM     27  N   LIG    1       -1.115   1.846   0.017  0.00  0.00    -0.340 NA
ATOM     28  C   LIG    1       -0.013   1.076   0.008  0.00  0.00    +0.290 A 
ATOM     29  C   LIG    1        1.097   1.897   0.002  0.00  0.00    -0.430 A 
ENDBRANCH  17  22
ENDBRANCH  16  17
ENDBRANCH   1  16
TORSDOF 4
