REMARK  Name = ZINCrD000006UPCr.2
REMARK                            x       y       z     vdW  Elec       q    Type
REMARK                         _______ _______ _______ _____ _____    ______ ____
ROOT
ATOM      1  C   LIG    1        0.463   8.074  -1.425  0.00  0.00    +0.510 C 
ATOM      2  N   LIG    1        1.649   7.458  -1.599  0.00  0.00    -0.680 N 
ATOM      3  H   LIG    1        2.470   7.975  -1.586  0.00  0.00    +0.410 HD
ATOM      4  O   LIG    1       -0.556   7.419  -1.359  0.00  0.00    -0.490 OA
ENDROOT
BRANCH   2   5
ATOM      5  C   LIG    1        1.697   6.072  -1.797  0.00  0.00    +0.120 A 
ATOM      6  C   LIG    1        0.692   5.438  -2.514  0.00  0.00    +0.050 A 
ATOM      7  C   LIG    1        0.739   4.072  -2.709  0.00  0.00    +0.010 A 
ATOM      8  C   LIG    1        1.792   3.332  -2.188  0.00  0.00    +0.090 A 
ATOM      9  C   LIG    1        2.794   3.966  -1.465  0.00  0.00    -0.020 A 
ATOM     10  C   LIG    1        2.750   5.332  -1.275  0.00  0.00    +0.010 A 
BRANCH   8  11
ATOM     11  N   LIG    1        1.839   1.948  -2.385  0.00  0.00    -0.490 N 
ATOM     12  C   LIG    1        3.032   1.366  -1.752  0.00  0.00    +0.160 C 
ATOM     13  C   LIG    1        3.014  -0.153  -1.940  0.00  0.00    +0.220 C 
ATOM     14  O   LIG    1        2.940  -0.454  -3.337  0.00  0.00    -0.380 OA
ATOM     15  C   LIG    1        1.790   0.096  -3.985  0.00  0.00    +0.220 C 
ATOM     16  C   LIG    1        1.796   1.618  -3.817  0.00  0.00    +0.160 C 
ENDBRANCH   8  11
ENDBRANCH   2   5
BRANCH   1  17
ATOM     17  C   LIG    1        0.402   9.575  -1.314  0.00  0.00    +0.210 C 
BRANCH  17  18
ATOM     18  N   LIG    1       -0.980   9.990  -1.038  0.00  0.00    -0.510 NA
BRANCH  18  20
ATOM     19  C   LIG    1       -0.837  10.646   1.317  0.00  0.00    -0.020 C 
ATOM     20  C   LIG    1       -1.380   9.616   0.325  0.00  0.00    +0.160 C 
ATOM     21  C   LIG    1       -2.907   9.576   0.416  0.00  0.00    +0.040 C 
ENDBRANCH  18  20
BRANCH  18  22
ATOM     22  C   LIG    1       -1.151  11.432  -1.259  0.00  0.00    +0.220 C 
BRANCH  22  23
ATOM     23  C   LIG    1       -2.619  11.751  -1.384  0.00  0.00    -0.070 A 
ATOM     24  C   LIG    1       -3.336  11.291  -2.472  0.00  0.00    +0.030 A 
ATOM     25  C   LIG    1       -4.684  11.579  -2.584  0.00  0.00    +0.000 A 
ATOM     26  C   LIG    1       -5.311  12.336  -1.612  0.00  0.00    +0.000 A 
ATOM     27  C   LIG    1       -4.593  12.801  -0.527  0.00  0.00    +0.000 A 
ATOM     28  C   LIG    1       -3.247  12.508  -0.412  0.00  0.00    +0.000 A 
ENDBRANCH  22  23
ENDBRANCH  18  22
ENDBRANCH  17  18
ENDBRANCH   1  17
TORSDOF 7
