REMARK  Name = ZINCpe000000YyS0.0
REMARK                            x       y       z     vdW  Elec       q    Type
REMARK                         _______ _______ _______ _____ _____    ______ ____
ROOT
ATOM      1  N   LIG    1        3.260  -0.769   1.760  0.00  0.00    -0.740 N 
ATOM      2  H   LIG    1        3.537  -0.359   2.594  0.00  0.00    +0.400 HD
ATOM      3  C   LIG    1        3.704  -1.999   1.433  0.00  0.00    +0.700 C 
ATOM      4  N   LIG    1        4.533  -2.659   2.267  0.00  0.00    -0.750 N 
ATOM      5  H   LIG    1        4.810  -2.249   3.101  0.00  0.00    +0.400 HD
ATOM      6  O   LIG    1        3.357  -2.513   0.388  0.00  0.00    -0.580 OA
ENDROOT
BRANCH   1  11
ATOM      7  C   LIG    1        3.166   3.404  -1.019  0.00  0.00    -0.020 C 
ATOM      8  C   LIG    1        2.380   2.137  -1.397  0.00  0.00    +0.090 C 
ATOM      9  C   LIG    1        1.748   2.214  -0.003  0.00  0.00    -0.050 C 
ATOM     10  C   LIG    1        2.522   1.452   1.071  0.00  0.00    +0.060 C 
ATOM     11  C   LIG    1        2.359  -0.051   0.854  0.00  0.00    +0.250 C 
ATOM     12  C   LIG    1        0.923  -0.486   1.127  0.00  0.00    +0.030 C 
ATOM     13  C   LIG    1        0.002  -0.004   0.002  0.00  0.00    +0.120 C 
ATOM     14  S   LIG    1       -0.023   1.815   0.012  0.00  0.00    -0.240 S 
ATOM     15  C   LIG    1        2.035   3.719  -0.025  0.00  0.00    +0.100 C 
BRANCH   7  19
ATOM     16  N   LIG    1        3.943   5.559  -1.953  0.00  0.00    -0.860 N 
ATOM     17  H   LIG    1        4.015   6.201  -2.677  0.00  0.00    +0.400 HD
ATOM     18  H   LIG    1        4.348   5.750  -1.093  0.00  0.00    +0.400 HD
ATOM     19  C   LIG    1        3.279   4.402  -2.143  0.00  0.00    +0.530 C 
ATOM     20  O   LIG    1        2.773   4.162  -3.219  0.00  0.00    -0.540 OA
ENDBRANCH   7  19
ENDBRANCH   1  11
BRANCH   4  21
ATOM     21  C   LIG    1        5.015  -3.996   1.912  0.00  0.00    +0.310 C 
BRANCH  21  22
ATOM     22  C   LIG    1        5.933  -4.517   3.020  0.00  0.00    +0.050 C 
BRANCH  22  23
ATOM     23  C   LIG    1        6.429  -5.893   2.655  0.00  0.00    +0.530 C 
ATOM     24  N   LIG    1        7.258  -6.553   3.488  0.00  0.00    -0.620 N 
ATOM     25  C   LIG    1        7.760  -6.048   4.775  0.00  0.00    +0.240 C 
ATOM     26  C   LIG    1        8.691  -7.132   5.360  0.00  0.00    +0.030 C 
ATOM     27  C   LIG    1        9.113  -7.939   4.104  0.00  0.00    +0.030 C 
ATOM     28  C   LIG    1        7.817  -7.897   3.257  0.00  0.00    +0.250 C 
ATOM     29  O   LIG    1        6.083  -6.406   1.612  0.00  0.00    -0.530 OA
ENDBRANCH  22  23
ENDBRANCH  21  22
ENDBRANCH   4  21
TORSDOF 5
