REMARK  Name = ZINCAx0000000hUL.0
REMARK                            x       y       z     vdW  Elec       q    Type
REMARK                         _______ _______ _______ _____ _____    ______ ____
ROOT
ATOM      1  C   LIG    1        5.946   4.064  -0.035  0.00  0.00    +0.570 C 
ATOM      2  N   LIG    1        4.629   4.352  -0.020  0.00  0.00    -0.460 N 
ATOM      3  N   LIG    1        3.595   3.417  -0.009  0.00  0.00    -0.240 NA
ATOM      4  C   LIG    1        2.416   3.936  -0.000  0.00  0.00    +0.160 C 
ATOM      5  C   LIG    1        2.528   5.444   0.007  0.00  0.00    +0.110 C 
ATOM      6  C   LIG    1        4.048   5.704  -0.007  0.00  0.00    +0.330 C 
ATOM      7  O   LIG    1        6.762   4.961  -0.039  0.00  0.00    -0.480 OA
ENDROOT
BRANCH   4   8
ATOM      8  C   LIG    1        1.152   3.177   0.008  0.00  0.00    -0.040 A 
ATOM      9  C   LIG    1        1.173   1.780   0.000  0.00  0.00    +0.080 A 
ATOM     10  C   LIG    1       -0.013   1.076   0.008  0.00  0.00    +0.030 A 
ATOM     11  C   LIG    1       -1.222   1.750   0.017  0.00  0.00    -0.020 A 
ATOM     12  C   LIG    1       -1.250   3.135   0.031  0.00  0.00    +0.030 A 
ATOM     13 CL   LIG    1       -2.710   0.856   0.019  0.00  0.00    -0.060 Cl
ATOM     14  C   LIG    1       -0.071   3.851   0.023  0.00  0.00    +0.070 A 
ENDBRANCH   4   8
BRANCH   6  15
ATOM     15  C   LIG    1        4.445   6.463  -1.246  0.00  0.00    -0.040 A 
ATOM     16  C   LIG    1        4.674   7.787  -1.318  0.00  0.00    -0.030 A 
ATOM     17  C   LIG    1        5.020   8.071  -2.659  0.00  0.00    -0.060 A 
ATOM     18  C   LIG    1        4.973   6.905  -3.329  0.00  0.00    +0.180 A 
ATOM     19  O   LIG    1        4.625   5.935  -2.468  0.00  0.00    -0.170 OA
ENDBRANCH   6  15
BRANCH   1  20
ATOM     20  C   LIG    1        6.403   2.628  -0.048  0.00  0.00    +0.270 C 
BRANCH  20  21
ATOM     21  O   LIG    1        7.831   2.584  -0.063  0.00  0.00    -0.080 OA
BRANCH  21  28
ATOM     22  C   LIG    1       12.089   0.990  -0.133  0.00  0.00    -0.630 A 
ATOM     23  C   LIG    1       12.128  -0.399  -0.138  0.00  0.00    +0.110 A 
ATOM     24  C   LIG    1       10.976  -1.129  -0.116  0.00  0.00    +0.110 A 
ATOM     25  C   LIG    1        9.735  -0.477  -0.099  0.00  0.00    +0.040 A 
ATOM     26  N   LIG    1        8.462  -0.921  -0.088  0.00  0.00    -0.200 NA
ATOM     27  N   LIG    1        7.644   0.071  -0.074  0.00  0.00    +0.010 NA
ATOM     28  N   LIG    1        8.367   1.273  -0.075  0.00  0.00    -0.250 N 
ATOM     29  C   LIG    1        9.697   0.928  -0.096  0.00  0.00    +0.090 A 
ATOM     30  C   LIG    1       10.883   1.654  -0.112  0.00  0.00    +0.170 A 
BRANCH  22  31
ATOM     31  S   LIG    1       13.593   1.907  -0.153  0.00  0.00    +2.690 S 
ATOM     32  O   LIG    1       13.277   3.185  -0.688  0.00  0.00    -0.950 OA
ATOM     33  O   LIG    1       14.578   1.051  -0.716  0.00  0.00    -0.940 OA
BRANCH  31  35
ATOM     34  C   LIG    1       14.892   1.184   2.106  0.00  0.00    +0.300 C 
ATOM     35  N   LIG    1       14.036   2.157   1.423  0.00  0.00    -1.000 NA
ATOM     36  C   LIG    1       13.572   3.350   2.134  0.00  0.00    +0.310 C 
ENDBRANCH  31  35
ENDBRANCH  22  31
ENDBRANCH  21  28
ENDBRANCH  20  21
ENDBRANCH   1  20
TORSDOF 7
