REMARK  Name = ZINCrD000000BsC6.0
REMARK                            x       y       z     vdW  Elec       q    Type
REMARK                         _______ _______ _______ _____ _____    ______ ____
ROOT
ATOM      1  O   LIG    1        7.690   4.158  -2.063  0.00  0.00    -0.590 OA
ATOM      2  C   LIG    1        7.528   3.163  -1.384  0.00  0.00    +0.710 C 
ATOM      3  N   LIG    1        6.285   2.794  -1.014  0.00  0.00    -0.740 N 
ATOM      4  H   LIG    1        6.156   2.000  -0.473  0.00  0.00    +0.390 HD
ATOM      5  N   LIG    1        8.591   2.427  -1.002  0.00  0.00    -0.730 N 
ATOM      6  H   LIG    1        8.461   1.632  -0.461  0.00  0.00    +0.390 HD
ENDROOT
BRANCH   3   7
ATOM      7  C   LIG    1        5.130   3.594  -1.429  0.00  0.00    +0.260 C 
ATOM      8  C   LIG    1        4.923   4.747  -0.442  0.00  0.00    -0.010 C 
ATOM      9  C   LIG    1        4.603   4.172   0.941  0.00  0.00    +0.210 C 
ATOM     10  O   LIG    1        3.445   3.340   0.853  0.00  0.00    -0.370 OA
ATOM     11  C   LIG    1        3.597   2.219  -0.020  0.00  0.00    +0.200 C 
ATOM     12  C   LIG    1        3.876   2.715  -1.441  0.00  0.00    +0.020 C 
BRANCH  11  13
ATOM     13  C   LIG    1        2.331   1.401  -0.013  0.00  0.00    -0.140 A 
ATOM     14  C   LIG    1        2.389   0.017  -0.021  0.00  0.00    +0.060 A 
ATOM     15  C   LIG    1        1.199  -0.695  -0.013  0.00  0.00    -0.030 A 
ATOM     16  C   LIG    1        0.002  -0.004   0.002  0.00  0.00    +0.260 A 
ATOM     17  N   LIG    1       -0.016   1.315   0.009  0.00  0.00    -0.480 NA
ATOM     18  C   LIG    1        1.096   2.023   0.003  0.00  0.00    +0.290 A 
ENDBRANCH  11  13
ENDBRANCH   3   7
BRANCH   5  19
ATOM     19  C   LIG    1        9.941   2.827  -1.405  0.00  0.00    +0.340 C 
BRANCH  19  20
ATOM     20  C   LIG    1       10.942   1.845  -0.853  0.00  0.00    -0.090 A 
ATOM     21  C   LIG    1       11.644   2.145   0.273  0.00  0.00    +0.050 A 
ATOM     22  C   LIG    1       12.574   1.252   0.801  0.00  0.00    +0.010 A 
ATOM     23  C   LIG    1       12.806   0.050   0.204  0.00  0.00    +0.040 A 
ATOM     24  C   LIG    1       12.098  -0.294  -0.960  0.00  0.00    -0.110 A 
ATOM     25  C   LIG    1       12.307  -1.526  -1.607  0.00  0.00    +0.080 A 
ATOM     26  C   LIG    1       11.583  -1.792  -2.735  0.00  0.00    -0.040 A 
ATOM     27  C   LIG    1       10.669  -0.856  -3.211  0.00  0.00    +0.290 A 
ATOM     28  N   LIG    1       10.476   0.291  -2.605  0.00  0.00    -0.470 NA
ATOM     29  C   LIG    1       11.149   0.612  -1.496  0.00  0.00    +0.140 A 
ENDBRANCH  19  20
ENDBRANCH   5  19
TORSDOF 4
