REMARK  Name = ZINCpe000000UwAj.0
REMARK                            x       y       z     vdW  Elec       q    Type
REMARK                         _______ _______ _______ _____ _____    ______ ____
ROOT
ATOM      1  C   LIG    1       -1.027   6.670   0.548  0.00  0.00    +0.570 C 
ATOM      2  N   LIG    1        0.211   6.287   0.920  0.00  0.00    -0.710 N 
ATOM      3  H   LIG    1        0.530   6.481   1.815  0.00  0.00    +0.410 HD
ATOM      4  O   LIG    1       -1.427   6.426  -0.574  0.00  0.00    -0.510 OA
ENDROOT
BRANCH   2   5
ATOM      5  C   LIG    1        1.074   5.577  -0.028  0.00  0.00    +0.270 C 
ATOM      6  C   LIG    1        2.539   5.809   0.347  0.00  0.00    +0.040 C 
ATOM      7  C   LIG    1        3.408   4.849  -0.474  0.00  0.00    +0.050 C 
ATOM      8  C   LIG    1        3.129   3.419  -0.004  0.00  0.00    +0.270 C 
ATOM      9  N   LIG    1        1.695   3.157   0.002  0.00  0.00    -0.540 N 
ATOM     10  C   LIG    1        0.761   4.109   0.017  0.00  0.00    +0.500 C 
ATOM     11  O   LIG    1       -0.402   3.771   0.067  0.00  0.00    -0.500 OA
BRANCH   9  12
ATOM     12  C   LIG    1        1.273   1.828  -0.000  0.00  0.00    +0.300 A 
ATOM     13  C   LIG    1        1.085   1.041   1.095  0.00  0.00    -0.100 A 
ATOM     14  C   LIG    1        0.661  -0.215   0.652  0.00  0.00    +0.240 A 
ATOM     15  N   LIG    1        0.595  -0.190  -0.655  0.00  0.00    -0.280 NA
ATOM     16  N   LIG    1        0.976   1.086  -1.091  0.00  0.00    -0.370 N 
ATOM     17  C   LIG    1        1.040   1.536  -2.484  0.00  0.00    +0.350 C 
ENDBRANCH   9  12
ENDBRANCH   2   5
BRANCH   1  20
ATOM     18  C   LIG    1       -3.969   8.463   2.072  0.00  0.00    +0.400 A 
ATOM     19  C   LIG    1       -3.184   7.793   1.140  0.00  0.00    -0.030 A 
ATOM     20  C   LIG    1       -1.900   7.388   1.506  0.00  0.00    -0.040 A 
ATOM     21  C   LIG    1       -1.460   7.673   2.804  0.00  0.00    -0.080 A 
ATOM     22  C   LIG    1       -2.300   8.348   3.666  0.00  0.00    +0.310 A 
ATOM     23  N   LIG    1       -3.509   8.716   3.287  0.00  0.00    -0.530 NA
BRANCH  18  25
ATOM     24  C   LIG    1       -5.809   8.504   0.420  0.00  0.00    +0.300 C 
ATOM     25  N   LIG    1       -5.251   8.873   1.723  0.00  0.00    -0.610 N 
ATOM     26  C   LIG    1       -6.043   9.675   2.659  0.00  0.00    +0.280 C 
ENDBRANCH  18  25
ENDBRANCH   1  20
TORSDOF 4
