REMARK  Name = ZINCqH0000033h2n.0
REMARK                            x       y       z     vdW  Elec       q    Type
REMARK                         _______ _______ _______ _____ _____    ______ ____
ROOT
ATOM      1  C   LIG    1       -2.988   3.462   0.028  0.00  0.00    -0.700 A 
ATOM      2  C   LIG    1       -4.040   2.568   0.122  0.00  0.00    +0.190 A 
ATOM      3  C   LIG    1       -3.798   1.208   0.191  0.00  0.00    -0.020 A 
ATOM      4  C   LIG    1       -2.499   0.733   0.166  0.00  0.00    +0.210 A 
ATOM      5  C   LIG    1       -1.433   1.632   0.070  0.00  0.00    -0.190 A 
ATOM      6  F   LIG    1       -2.263  -0.595   0.235  0.00  0.00    -0.110 F 
ATOM      7  C   LIG    1       -1.688   3.004   0.006  0.00  0.00    +0.200 A 
ENDROOT
BRANCH   5   8
ATOM      8  C   LIG    1       -0.042   1.134   0.043  0.00  0.00    +0.570 C 
ATOM      9  N   LIG    1        0.921   1.857  -0.561  0.00  0.00    -0.600 N 
ATOM     10  C   LIG    1        0.577   3.101  -1.256  0.00  0.00    +0.300 C 
ATOM     11  O   LIG    1        0.232   0.070   0.562  0.00  0.00    -0.510 OA
BRANCH   9  12
ATOM     12  C   LIG    1        2.312   1.400  -0.525  0.00  0.00    +0.330 C 
ATOM     13  C   LIG    1        2.814   1.177  -1.953  0.00  0.00    +0.050 C 
BRANCH  12  14
ATOM     14  C   LIG    1        3.166   2.442   0.150  0.00  0.00    -0.200 A 
ATOM     15  C   LIG    1        4.159   2.188   1.004  0.00  0.00    +0.020 A 
ATOM     16  C   LIG    1        4.804   3.308   1.499  0.00  0.00    +0.010 A 
ATOM     17  C   LIG    1        4.336   4.472   1.046  0.00  0.00    -0.060 A 
ATOM     18  S   LIG    1        3.011   4.180  -0.073  0.00  0.00    +0.110 S 
ENDBRANCH  12  14
ENDBRANCH   9  12
ENDBRANCH   5   8
BRANCH   1  19
ATOM     19  S   LIG    1       -3.311   5.192  -0.059  0.00  0.00    +2.690 S 
ATOM     20  O   LIG    1       -4.634   5.329  -0.559  0.00  0.00    -0.950 OA
ATOM     21  O   LIG    1       -2.179   5.780  -0.685  0.00  0.00    -0.950 OA
BRANCH  19  22
ATOM     22  N   LIG    1       -3.337   5.764   1.494  0.00  0.00    -0.990 NA
BRANCH  22  24
ATOM     23  C   LIG    1       -2.004   7.764   1.948  0.00  0.00    +0.010 C 
ATOM     24  C   LIG    1       -2.102   6.247   2.118  0.00  0.00    +0.280 C 
ENDBRANCH  22  24
BRANCH  22  25
ATOM     25  C   LIG    1       -4.594   5.788   2.245  0.00  0.00    +0.300 C 
ATOM     26  C   LIG    1       -4.703   4.522   3.098  0.00  0.00    +0.000 C 
ENDBRANCH  22  25
ENDBRANCH  19  22
ENDBRANCH   1  19
TORSDOF 7
