REMARK  Name = ZINCpk00000e9tTM.0
REMARK                            x       y       z     vdW  Elec       q    Type
REMARK                         _______ _______ _______ _____ _____    ______ ____
ROOT
ATOM      1  C   LIG    1       -5.149   1.014  -0.971  0.00  0.00    +0.200 C 
ATOM      2  C   LIG    1       -5.607  -0.409  -0.645  0.00  0.00    +0.160 C 
ATOM      3  O   LIG    1       -7.018  -0.393  -0.403  0.00  0.00    -0.360 OA
ATOM      4  C   LIG    1       -7.782  -0.116  -1.579  0.00  0.00    +0.290 C 
ATOM      5  C   LIG    1       -7.231   1.101  -2.270  0.00  0.00    +0.500 C 
ATOM      6  O   LIG    1       -7.911   1.656  -3.107  0.00  0.00    -0.530 OA
ATOM      7  C   LIG    1       -4.880  -0.910   0.604  0.00  0.00    +0.070 C 
ATOM      8  N   LIG    1       -6.018   1.593  -1.993  0.00  0.00    -0.590 N 
ENDROOT
BRANCH   1  13
ATOM      9  C   LIG    1       -0.597   1.860   0.219  0.00  0.00    +0.160 C 
ATOM     10  C   LIG    1       -1.545   2.912   0.853  0.00  0.00    +0.030 C 
ATOM     11  C   LIG    1       -2.942   2.435   0.402  0.00  0.00    +0.260 C 
ATOM     12  N   LIG    1       -2.753   1.601  -0.795  0.00  0.00    -0.620 N 
ATOM     13  C   LIG    1       -3.731   0.979  -1.481  0.00  0.00    +0.520 C 
ATOM     14  O   LIG    1       -3.471   0.390  -2.509  0.00  0.00    -0.490 OA
ATOM     15  C   LIG    1       -1.314   1.560  -1.120  0.00  0.00    +0.280 C 
BRANCH   9  16
ATOM     16  O   LIG    1        0.702   2.412  -0.007  0.00  0.00    -0.370 OA
BRANCH  16  18
ATOM     17  C   LIG    1        2.980   2.796   0.701  0.00  0.00    +0.040 C 
ATOM     18  C   LIG    1        1.631   2.163   1.049  0.00  0.00    +0.160 C 
ENDBRANCH  16  18
ENDBRANCH   9  16
ENDBRANCH   1  13
BRANCH   8  19
ATOM     19  C   LIG    1       -5.543   2.759  -2.743  0.00  0.00    +0.330 C 
BRANCH  19  20
ATOM     20  C   LIG    1       -4.960   2.306  -4.057  0.00  0.00    -0.120 A 
ATOM     21  C   LIG    1       -3.591   2.170  -4.196  0.00  0.00    +0.040 A 
ATOM     22  C   LIG    1       -3.057   1.750  -5.400  0.00  0.00    +0.000 A 
ATOM     23  C   LIG    1       -3.890   1.477  -6.468  0.00  0.00    +0.010 A 
ATOM     24  C   LIG    1       -5.259   1.619  -6.331  0.00  0.00    -0.010 A 
ATOM     25  C   LIG    1       -5.793   2.033  -5.125  0.00  0.00    +0.040 A 
ENDBRANCH  19  20
ENDBRANCH   8  19
TORSDOF 5
