REMARK  Name = ZINCpe00000VVGx4.0
REMARK                            x       y       z     vdW  Elec       q    Type
REMARK                         _______ _______ _______ _____ _____    ______ ____
ROOT
ATOM      1  C   LIG    1        0.954  -3.672  -0.571  0.00  0.00    +0.260 C 
ATOM      2  C   LIG    1        0.770  -4.567   0.657  0.00  0.00    +0.010 C 
ATOM      3  C   LIG    1       -0.726  -4.772   0.914  0.00  0.00    +0.290 C 
ATOM      4  N   LIG    1       -1.349  -5.292  -0.310  0.00  0.00    -0.590 N 
ATOM      5  C   LIG    1       -1.158  -4.556  -1.568  0.00  0.00    +0.290 C 
ATOM      6  C   LIG    1       -2.083  -6.422  -0.281  0.00  0.00    +0.580 C 
ATOM      7  O   LIG    1       -2.619  -6.826  -1.296  0.00  0.00    -0.520 OA
ATOM      8  C   LIG    1        0.343  -4.353  -1.797  0.00  0.00    +0.010 C 
ENDROOT
BRANCH   6   9
ATOM      9  C   LIG    1       -2.233  -7.167   0.975  0.00  0.00    +0.080 C 
ATOM     10  N   LIG    1       -2.172  -6.533   2.105  0.00  0.00    -0.200 NA
ATOM     11  N   LIG    1       -2.314  -7.209   3.321  0.00  0.00    -0.460 N 
ATOM     12  C   LIG    1       -2.124  -8.541   3.386  0.00  0.00    +0.500 C 
ATOM     13  C   LIG    1       -1.768  -9.308   2.137  0.00  0.00    +0.090 C 
ATOM     14  O   LIG    1       -2.239  -9.122   4.444  0.00  0.00    -0.510 OA
ATOM     15  C   LIG    1       -2.666  -6.464   4.532  0.00  0.00    +0.340 C 
ATOM     16  C   LIG    1       -2.451  -8.656   0.933  0.00  0.00    +0.120 C 
ENDBRANCH   6   9
BRANCH   1  17
ATOM     17  N   LIG    1        2.384  -3.446  -0.800  0.00  0.00    -0.600 N 
ATOM     18  C   LIG    1        3.273  -4.582  -1.053  0.00  0.00    +0.300 C 
BRANCH  17  23
ATOM     19  C   LIG    1        4.254   1.816  -0.647  0.00  0.00    +0.140 C 
ATOM     20  C   LIG    1        3.799   0.381  -0.703  0.00  0.00    +0.010 A 
ATOM     21  C   LIG    1        4.695  -0.618  -1.057  0.00  0.00    +0.070 A 
ATOM     22  C   LIG    1        4.234  -1.924  -1.096  0.00  0.00    -0.030 A 
ATOM     23  C   LIG    1        2.896  -2.153  -0.776  0.00  0.00    +0.340 A 
ATOM     24  N   LIG    1        2.115  -1.134  -0.450  0.00  0.00    -0.300 NA
ATOM     25  N   LIG    1        2.549   0.074  -0.416  0.00  0.00    -0.200 NA
ENDBRANCH  17  23
ENDBRANCH   1  17
TORSDOF 3
