REMARK  Name = ZINCtV00000tRT1b.0
REMARK                            x       y       z     vdW  Elec       q    Type
REMARK                         _______ _______ _______ _____ _____    ______ ____
ROOT
ATOM      1  C   LIG    1        5.081   5.873  -0.017  0.00  0.00    +0.130 C 
ATOM      2  C   LIG    1        4.423   4.525  -0.164  0.00  0.00    +0.060 A 
ATOM      3  C   LIG    1        3.056   4.435  -0.426  0.00  0.00    -0.040 A 
ATOM      4  C   LIG    1        2.451   3.105  -0.562  0.00  0.00    +0.330 A 
ATOM      5  N   LIG    1        1.209   2.729  -0.804  0.00  0.00    -0.490 NA
ATOM      6  C   LIG    1        1.140   1.377  -0.839  0.00  0.00    +0.100 A 
ATOM      7  C   LIG    1        0.091   0.476  -1.053  0.00  0.00    +0.060 A 
ATOM      8  C   LIG    1        0.337  -0.877  -1.028  0.00  0.00    +0.040 A 
ATOM      9  C   LIG    1        1.618  -1.356  -0.793  0.00  0.00    +0.020 A 
ATOM     10  C   LIG    1        2.664  -0.482  -0.580  0.00  0.00    +0.050 A 
ATOM     11  C   LIG    1        2.436   0.886  -0.601  0.00  0.00    +0.020 A 
ATOM     12  N   LIG    1        3.248   1.994  -0.429  0.00  0.00    -0.400 N 
ATOM     13  C   LIG    1        4.584   2.126  -0.173  0.00  0.00    +0.390 A 
ATOM     14  C   LIG    1        5.172   3.364  -0.041  0.00  0.00    -0.140 A 
ENDROOT
BRANCH  13  15
ATOM     15  N   LIG    1        5.357   0.997  -0.044  0.00  0.00    -0.680 N 
ATOM     16  H   LIG    1        6.070   0.822  -0.678  0.00  0.00    +0.430 HD
BRANCH  15  17
ATOM     17  C   LIG    1        5.117   0.101   1.002  0.00  0.00    +0.190 A 
ATOM     18  C   LIG    1        4.211   0.426   2.003  0.00  0.00    -0.040 A 
ATOM     19  C   LIG    1        3.973  -0.462   3.033  0.00  0.00    +0.080 A 
ATOM     20  C   LIG    1        4.643  -1.672   3.074  0.00  0.00    -0.070 A 
ATOM     21  C   LIG    1        5.550  -1.998   2.080  0.00  0.00    +0.070 A 
ATOM     22 CL   LIG    1        4.345  -2.784   4.373  0.00  0.00    -0.070 Cl
ATOM     23  C   LIG    1        5.788  -1.115   1.046  0.00  0.00    -0.020 A 
ENDBRANCH  15  17
ENDBRANCH  13  15
BRANCH   3  24
ATOM     24  C   LIG    1        2.258   5.617  -0.558  0.00  0.00    +0.270 C 
ATOM     25  N   LIG    1        1.625   6.554  -0.662  0.00  0.00    -0.400 NA
ENDBRANCH   3  24
BRANCH  14  26
ATOM     26  C   LIG    1        6.650   3.458   0.242  0.00  0.00    +0.100 C 
BRANCH  26  27
ATOM     27  C   LIG    1        7.410   3.639  -1.074  0.00  0.00    +0.020 C 
BRANCH  27  28
ATOM     28  C   LIG    1        8.910   3.735  -0.787  0.00  0.00    -0.030 C 
ATOM     29  C   LIG    1        9.194   5.002   0.022  0.00  0.00    +0.030 C 
ATOM     30  C   LIG    1        9.679   3.789  -2.109  0.00  0.00    +0.020 C 
ENDBRANCH  27  28
ENDBRANCH  26  27
ENDBRANCH  14  26
TORSDOF 6
