REMARK  Name = ZINCqH0000006Cra.0
REMARK                            x       y       z     vdW  Elec       q    Type
REMARK                         _______ _______ _______ _____ _____    ______ ____
ROOT
ATOM      1  N   LIG    1        2.212   4.789  -1.624  0.00  0.00    -0.990 NA
ATOM      2  C   LIG    1        1.394   6.003  -1.659  0.00  0.00    +0.320 C 
ENDROOT
BRANCH   1   3
ATOM      3  S   LIG    1        2.781   4.132  -3.033  0.00  0.00    +2.690 S 
ATOM      4  O   LIG    1        3.817   3.232  -2.667  0.00  0.00    -0.950 OA
ATOM      5  O   LIG    1        2.975   5.216  -3.931  0.00  0.00    -0.950 OA
BRANCH   3   6
ATOM      6  C   LIG    1        1.485   3.150  -3.712  0.00  0.00    -0.680 A 
ATOM      7  C   LIG    1        0.706   3.647  -4.740  0.00  0.00    +0.020 A 
ATOM      8  C   LIG    1       -0.307   2.875  -5.275  0.00  0.00    -0.110 A 
ATOM      9  C   LIG    1       -0.549   1.609  -4.776  0.00  0.00    +0.070 A 
ATOM     10  C   LIG    1        0.227   1.113  -3.744  0.00  0.00    -0.110 A 
ATOM     11  C   LIG    1       -0.037  -0.267  -3.199  0.00  0.00    +0.090 C 
ATOM     12  C   LIG    1       -1.153   3.416  -6.399  0.00  0.00    +0.090 C 
ATOM     13  C   LIG    1        0.966   5.030  -5.280  0.00  0.00    +0.110 C 
ATOM     14  C   LIG    1        1.244   1.884  -3.212  0.00  0.00    +0.020 A 
ATOM     15  C   LIG    1        2.088   1.344  -2.087  0.00  0.00    +0.100 C 
ENDBRANCH   3   6
ENDBRANCH   1   3
BRANCH   1  16
ATOM     16  C   LIG    1        2.526   4.155  -0.341  0.00  0.00    +0.370 C 
BRANCH  16  21
ATOM     17  C   LIG    1        5.667   5.648   1.123  0.00  0.00    +0.130 A 
ATOM     18  C   LIG    1        5.103   6.676   1.873  0.00  0.00    -0.150 A 
ATOM     19  C   LIG    1        3.732   6.831   1.876  0.00  0.00    +0.260 A 
ATOM     20  N   LIG    1        2.959   6.026   1.172  0.00  0.00    -0.470 NA
ATOM     21  C   LIG    1        3.456   5.043   0.444  0.00  0.00    +0.110 A 
ATOM     22  C   LIG    1        5.978   7.604   2.676  0.00  0.00    +0.110 C 
ATOM     23  C   LIG    1        4.817   4.820   0.393  0.00  0.00    -0.130 A 
ATOM     24  C   LIG    1        5.376   3.697  -0.441  0.00  0.00    +0.110 C 
BRANCH  17  26
ATOM     25  C   LIG    1        7.745   6.157   0.088  0.00  0.00    +0.230 C 
ATOM     26  O   LIG    1        7.011   5.461   1.098  0.00  0.00    -0.330 OA
ENDBRANCH  17  26
ENDBRANCH  16  21
ENDBRANCH   1  16
TORSDOF 5
