REMARK  Name = ZINCpe000000ThLi.0
REMARK                            x       y       z     vdW  Elec       q    Type
REMARK                         _______ _______ _______ _____ _____    ______ ____
ROOT
ATOM      1  C   LIG    1       -5.376   2.419   1.484  0.00  0.00    +0.330 C 
ENDROOT
BRANCH   1   5
ATOM      2  N   LIG    1       -8.930   3.155   1.505  0.00  0.00    -0.570 N 
ATOM      3  C   LIG    1       -9.030   1.808   1.499  0.00  0.00    +0.510 C 
ATOM      4  C   LIG    1       -7.618   1.303   1.489  0.00  0.00    +0.500 C 
ATOM      5  N   LIG    1       -6.841   2.408   1.491  0.00  0.00    -0.570 N 
ATOM      6  O   LIG    1       -7.251   0.147   1.482  0.00  0.00    -0.400 OA
ATOM      7  O   LIG    1      -10.047   1.147   1.501  0.00  0.00    -0.400 OA
ATOM      8  C   LIG    1       -7.630   3.494   1.506  0.00  0.00    +0.710 C 
ATOM      9  O   LIG    1       -7.221   4.637   1.515  0.00  0.00    -0.480 OA
BRANCH   2  10
ATOM     10  C   LIG    1      -10.055   4.093   1.515  0.00  0.00    +0.330 C 
BRANCH  10  11
ATOM     11  C   LIG    1      -10.440   4.412   2.961  0.00  0.00    +0.000 C 
BRANCH  11  13
ATOM     12  C   LIG    1      -12.000   5.711   4.418  0.00  0.00    +0.030 C 
ATOM     13  C   LIG    1      -11.615   5.391   2.972  0.00  0.00    +0.020 C 
ENDBRANCH  11  13
ENDBRANCH  10  11
ENDBRANCH   2  10
ENDBRANCH   1   5
BRANCH   1  14
ATOM     14  C   LIG    1       -4.873   2.431   0.039  0.00  0.00    +0.320 C 
BRANCH  14  15
ATOM     15  N   LIG    1       -3.408   2.443   0.031  0.00  0.00    -0.580 N 
ATOM     16  C   LIG    1       -2.638   1.339   0.022  0.00  0.00    +0.570 C 
ATOM     17  C   LIG    1       -1.220   1.755   0.017  0.00  0.00    -0.140 A 
ATOM     18  C   LIG    1       -0.013   1.076   0.008  0.00  0.00    +0.100 A 
ATOM     19  C   LIG    1        1.177   1.788   0.000  0.00  0.00    +0.050 A 
ATOM     20  C   LIG    1        1.166   3.170   0.008  0.00  0.00    +0.050 A 
ATOM     21  C   LIG    1       -0.035   3.863   0.024  0.00  0.00    +0.100 A 
ATOM     22  C   LIG    1       -1.231   3.165   0.031  0.00  0.00    -0.140 A 
ATOM     23  O   LIG    1       -3.041   0.194   0.017  0.00  0.00    -0.450 OA
ATOM     24  C   LIG    1       -2.656   3.558   0.048  0.00  0.00    +0.570 C 
ATOM     25  O   LIG    1       -3.077   4.697   0.058  0.00  0.00    -0.450 OA
ENDBRANCH  14  15
ENDBRANCH   1  14
TORSDOF 6
