REMARK  Name = ZINCvU0000000IMd.1
REMARK                            x       y       z     vdW  Elec       q    Type
REMARK                         _______ _______ _______ _____ _____    ______ ____
ROOT
ATOM      1  C   LIG    1        1.499   4.658   0.013  0.00  0.00    +0.490 A 
ATOM      2  C   LIG    1        2.826   4.381   0.265  0.00  0.00    -0.160 A 
ATOM      3  C   LIG    1        3.261   3.056   0.246  0.00  0.00    +0.250 A 
ATOM      4  N   LIG    1        2.413   2.083  -0.010  0.00  0.00    -0.510 NA
ATOM      5  C   LIG    1        1.123   2.334  -0.256  0.00  0.00    +0.350 A 
ATOM      6  C   LIG    1        0.037   1.501  -0.549  0.00  0.00    -0.180 A 
ATOM      7  C   LIG    1       -1.083   2.325  -0.719  0.00  0.00    +0.060 A 
ATOM      8  N   LIG    1       -0.723   3.571  -0.536  0.00  0.00    -0.280 NA
ATOM      9  C   LIG    1        4.708   2.738   0.519  0.00  0.00    +0.160 C 
ATOM     10  N   LIG    1        0.645   3.618  -0.249  0.00  0.00    -0.330 N 
ENDROOT
BRANCH   6  11
ATOM     11  C   LIG    1        0.067   0.025  -0.663  0.00  0.00    +0.010 A 
ATOM     12  C   LIG    1       -0.156  -0.770   0.461  0.00  0.00    +0.040 A 
ATOM     13  C   LIG    1       -0.132  -2.145   0.346  0.00  0.00    +0.010 A 
ATOM     14  C   LIG    1        0.125  -2.736  -0.878  0.00  0.00    +0.030 A 
ATOM     15  C   LIG    1        0.353  -1.954  -1.996  0.00  0.00    +0.020 A 
ATOM     16  C   LIG    1        0.326  -0.578  -1.896  0.00  0.00    -0.010 A 
ATOM     17 CL   LIG    1        0.612   0.403  -3.300  0.00  0.00    -0.070 Cl
ENDBRANCH   6  11
BRANCH   1  21
ATOM     18  N   LIG    1        0.098   8.377   1.034  0.00  0.00    -0.530 NA
ATOM     19  C   LIG    1        1.500   8.005   1.263  0.00  0.00    +0.180 C 
ATOM     20  C   LIG    1        1.974   7.087   0.130  0.00  0.00    +0.310 C 
ATOM     21  N   LIG    1        1.039   5.957   0.024  0.00  0.00    -0.590 N 
ATOM     22  C   LIG    1       -0.399   6.249  -0.077  0.00  0.00    +0.300 C 
ATOM     23  C   LIG    1       -0.779   7.199   1.070  0.00  0.00    +0.180 C 
BRANCH  18  24
ATOM     24  C   LIG    1       -0.342   9.391   2.002  0.00  0.00    +0.220 C 
BRANCH  24  26
ATOM     25  C   LIG    1       -2.630   8.907   2.703  0.00  0.00    +0.000 C 
ATOM     26  C   LIG    1       -1.835   9.569   1.899  0.00  0.00    -0.120 C 
ATOM     27  C   LIG    1       -2.413  10.507   0.871  0.00  0.00    +0.090 C 
ENDBRANCH  24  26
ENDBRANCH  18  24
ENDBRANCH   1  21
BRANCH   7  28
ATOM     28  C   LIG    1       -2.475   1.854  -1.054  0.00  0.00    +0.550 C 
ATOM     29  F   LIG    1       -2.401   0.680  -1.811  0.00  0.00    -0.150 F 
ATOM     30  F   LIG    1       -3.137   2.842  -1.790  0.00  0.00    -0.160 F 
ATOM     31  F   LIG    1       -3.179   1.603   0.129  0.00  0.00    -0.160 F 
ENDBRANCH   7  28
TORSDOF 5
