REMARK  Name = ZINCtV00000tRTsP.0
REMARK                            x       y       z     vdW  Elec       q    Type
REMARK                         _______ _______ _______ _____ _____    ______ ____
ROOT
ATOM      1  C   LIG    1        0.666   3.592   0.376  0.00  0.00    +0.060 A 
ATOM      2  C   LIG    1       -0.699   3.620   0.391  0.00  0.00    +0.030 A 
ATOM      3  C   LIG    1       -1.131   2.304   0.610  0.00  0.00    -0.010 A 
ATOM      4  C   LIG    1       -0.014   1.532   0.727  0.00  0.00    +0.040 A 
ATOM      5  O   LIG    1        1.067   2.322   0.580  0.00  0.00    -0.170 OA
ENDROOT
BRANCH   1  10
ATOM      6  C   LIG    1        4.776   6.462  -0.161  0.00  0.00    +0.150 C 
ATOM      7  C   LIG    1        3.345   6.001  -0.063  0.00  0.00    +0.020 A 
ATOM      8  C   LIG    1        2.234   6.779  -0.175  0.00  0.00    +0.040 A 
ATOM      9  N   LIG    1        1.154   5.990  -0.034  0.00  0.00    -0.440 NA
ATOM     10  C   LIG    1        1.548   4.751   0.171  0.00  0.00    +0.280 A 
ATOM     11  N   LIG    1        2.915   4.721   0.155  0.00  0.00    -0.560 N 
ATOM     12  H   LIG    1        3.475   3.938   0.276  0.00  0.00    +0.430 HD
BRANCH   8  13
ATOM     13  C   LIG    1        2.217   8.243  -0.416  0.00  0.00    -0.010 A 
ATOM     14  C   LIG    1        1.315   9.054   0.269  0.00  0.00    +0.080 A 
ATOM     15  C   LIG    1        1.306  10.415   0.045  0.00  0.00    -0.010 A 
ATOM     16  C   LIG    1        2.185  10.975  -0.868  0.00  0.00    +0.100 A 
ATOM     17  C   LIG    1        3.081  10.172  -1.555  0.00  0.00    -0.010 A 
ATOM     18  F   LIG    1        2.169  12.308  -1.088  0.00  0.00    -0.140 F 
ATOM     19  C   LIG    1        3.100   8.810  -1.333  0.00  0.00    +0.050 A 
ENDBRANCH   8  13
ENDBRANCH   1  10
BRANCH   4  20
ATOM     20  C   LIG    1        0.007   0.075   0.969  0.00  0.00    +0.020 A 
ATOM     21  C   LIG    1       -1.190  -0.631   1.103  0.00  0.00    +0.030 A 
ATOM     22  C   LIG    1       -1.166  -1.992   1.329  0.00  0.00    +0.070 A 
ATOM     23  C   LIG    1        0.041  -2.660   1.422  0.00  0.00    -0.040 A 
ATOM     24  C   LIG    1        1.237  -1.967   1.289  0.00  0.00    +0.110 A 
ATOM     25  C   LIG    1        1.225  -0.602   1.058  0.00  0.00    +0.030 A 
BRANCH  24  26
ATOM     26  O   LIG    1        2.420  -2.630   1.382  0.00  0.00    -0.310 OA
BRANCH  26  27
ATOM     27  C   LIG    1        2.357  -4.038   1.616  0.00  0.00    +0.600 C 
ATOM     28  F   LIG    1        1.695  -4.281   2.824  0.00  0.00    -0.160 F 
ATOM     29  F   LIG    1        3.655  -4.557   1.683  0.00  0.00    -0.130 F 
ATOM     30  F   LIG    1        1.662  -4.654   0.570  0.00  0.00    -0.160 F 
ENDBRANCH  26  27
ENDBRANCH  24  26
ENDBRANCH   4  20
TORSDOF 5
