REMARK  Name = ZINCtV00000tRTsP.1
REMARK                            x       y       z     vdW  Elec       q    Type
REMARK                         _______ _______ _______ _____ _____    ______ ____
ROOT
ATOM      1  C   LIG    1        0.664   3.562   0.014  0.00  0.00    +0.050 A 
ATOM      2  C   LIG    1       -0.702   3.587   0.027  0.00  0.00    +0.030 A 
ATOM      3  C   LIG    1       -1.135   2.254   0.019  0.00  0.00    -0.010 A 
ATOM      4  C   LIG    1       -0.018   1.472   0.010  0.00  0.00    +0.040 A 
ATOM      5  O   LIG    1        1.064   2.274   0.004  0.00  0.00    -0.170 OA
ENDROOT
BRANCH   1  11
ATOM      6  C   LIG    1        2.189   8.303   0.023  0.00  0.00    +0.160 C 
ATOM      7  C   LIG    1        2.219   6.796   0.015  0.00  0.00    +0.040 A 
ATOM      8  C   LIG    1        3.339   6.020   0.001  0.00  0.00    +0.030 A 
ATOM      9  N   LIG    1        2.914   4.709  -0.001  0.00  0.00    -0.550 N 
ATOM     10  H   LIG    1        3.476   3.918  -0.011  0.00  0.00    +0.430 HD
ATOM     11  C   LIG    1        1.546   4.736   0.012  0.00  0.00    +0.290 A 
ATOM     12  N   LIG    1        1.153   5.995   0.017  0.00  0.00    -0.450 NA
BRANCH   8  13
ATOM     13  C   LIG    1        4.739   6.492  -0.010  0.00  0.00    -0.030 A 
ATOM     14  C   LIG    1        5.136   7.525   0.841  0.00  0.00    +0.070 A 
ATOM     15  C   LIG    1        6.445   7.960   0.830  0.00  0.00    -0.010 A 
ATOM     16  C   LIG    1        7.363   7.380  -0.032  0.00  0.00    +0.110 A 
ATOM     17  C   LIG    1        6.973   6.357  -0.882  0.00  0.00    -0.010 A 
ATOM     18  F   LIG    1        8.643   7.812  -0.042  0.00  0.00    -0.140 F 
ATOM     19  C   LIG    1        5.668   5.912  -0.876  0.00  0.00    +0.050 A 
ENDBRANCH   8  13
ENDBRANCH   1  11
BRANCH   4  20
ATOM     20  C   LIG    1        0.002  -0.004   0.002  0.00  0.00    +0.020 A 
ATOM     21  C   LIG    1       -1.196  -0.722   0.009  0.00  0.00    +0.030 A 
ATOM     22  C   LIG    1       -1.173  -2.101   0.001  0.00  0.00    +0.070 A 
ATOM     23  C   LIG    1        0.033  -2.777  -0.015  0.00  0.00    -0.040 A 
ATOM     24  C   LIG    1        1.230  -2.072  -0.022  0.00  0.00    +0.110 A 
ATOM     25  C   LIG    1        1.219  -0.688  -0.019  0.00  0.00    +0.030 A 
BRANCH  24  26
ATOM     26  O   LIG    1        2.412  -2.742  -0.038  0.00  0.00    -0.310 OA
BRANCH  26  27
ATOM     27  C   LIG    1        2.348  -4.170  -0.047  0.00  0.00    +0.600 C 
ATOM     28  F   LIG    1        1.680  -4.614   1.099  0.00  0.00    -0.160 F 
ATOM     29  F   LIG    1        3.645  -4.694  -0.063  0.00  0.00    -0.130 F 
ATOM     30  F   LIG    1        1.657  -4.599  -1.185  0.00  0.00    -0.160 F 
ENDBRANCH  26  27
ENDBRANCH  24  26
ENDBRANCH   4  20
TORSDOF 5
