REMARK  Name = ZINCvU0000000BpQ.0
REMARK                            x       y       z     vdW  Elec       q    Type
REMARK                         _______ _______ _______ _____ _____    ______ ____
ROOT
ATOM      1  C   LIG    1        1.774   6.777  -1.407  0.00  0.00    +0.420 C 
ATOM      2  O   LIG    1        2.275   6.656  -2.506  0.00  0.00    -0.460 OA
ENDROOT
BRANCH   1   6
ATOM      3  C   LIG    1        0.104   3.735   2.323  0.00  0.00    +0.150 C 
ATOM      4  C   LIG    1        0.685   4.258   1.035  0.00  0.00    +0.020 A 
ATOM      5  C   LIG    1        0.820   5.555   0.712  0.00  0.00    +0.020 A 
ATOM      6  C   LIG    1        1.428   5.589  -0.625  0.00  0.00    -0.260 A 
ATOM      7  C   LIG    1        1.613   4.269  -0.991  0.00  0.00    +0.130 A 
ATOM      8  C   LIG    1        2.213   3.785  -2.286  0.00  0.00    +0.150 C 
ATOM      9  N   LIG    1        1.159   3.489   0.009  0.00  0.00    -0.400 N 
BRANCH   9  10
ATOM     10  C   LIG    1        1.176   2.087   0.002  0.00  0.00    +0.130 A 
ATOM     11  C   LIG    1       -0.017   1.377   0.010  0.00  0.00    +0.060 A 
ATOM     12  C   LIG    1        0.002  -0.004   0.002  0.00  0.00    +0.080 A 
ATOM     13  C   LIG    1        1.208  -0.681  -0.014  0.00  0.00    -0.020 A 
ATOM     14  C   LIG    1        2.401   0.025  -0.022  0.00  0.00    -0.020 A 
ATOM     15 CL   LIG    1        3.913  -0.827  -0.042  0.00  0.00    -0.030 Cl
ATOM     16 CL   LIG    1        1.229  -2.417  -0.024  0.00  0.00    -0.030 Cl
ATOM     17  C   LIG    1        2.386   1.407  -0.014  0.00  0.00    +0.060 A 
ENDBRANCH   9  10
ENDBRANCH   1   6
BRANCH   1  18
ATOM     18  C   LIG    1        1.506   8.151  -0.848  0.00  0.00    +0.340 C 
BRANCH  18  19
ATOM     19  N   LIG    1        1.937   9.164  -1.815  0.00  0.00    -0.570 N 
ATOM     20  C   LIG    1        3.165   9.698  -1.849  0.00  0.00    +0.710 C 
ATOM     21  N   LIG    1        3.304  10.604  -2.836  0.00  0.00    -0.710 N 
ATOM     22  H   LIG    1        4.101  11.113  -3.049  0.00  0.00    +0.440 HD
ATOM     23  C   LIG    1        2.007  10.674  -3.521  0.00  0.00    +0.130 C 
ATOM     24  C   LIG    1        2.152  10.263  -4.982  0.00  0.00    +0.050 C 
ATOM     25  C   LIG    1        3.050  11.267  -5.711  0.00  0.00    +0.010 C 
ATOM     26  C   LIG    1        2.434  12.664  -5.614  0.00  0.00    +0.010 C 
ATOM     27  C   LIG    1        2.319  13.071  -4.144  0.00  0.00    +0.040 C 
ATOM     28  C   LIG    1        1.417  12.075  -3.409  0.00  0.00    +0.010 C 
ATOM     29  C   LIG    1        1.319  12.470  -1.935  0.00  0.00    +0.020 C 
ATOM     30  O   LIG    1        4.054   9.396  -1.078  0.00  0.00    -0.540 OA
ATOM     31  C   LIG    1        1.145   9.679  -2.778  0.00  0.00    +0.540 C 
ATOM     32  O   LIG    1       -0.014   9.402  -3.001  0.00  0.00    -0.460 OA
ENDBRANCH  18  19
ENDBRANCH   1  18
TORSDOF 4
