REMARK  Name = ZINCrH000004vH48.0
REMARK                            x       y       z     vdW  Elec       q    Type
REMARK                         _______ _______ _______ _____ _____    ______ ____
ROOT
ATOM      1  C   LIG    1        3.861   3.766  -0.940  0.00  0.00    +0.400 A 
ATOM      2  N   LIG    1        2.690   4.245  -1.287  0.00  0.00    -0.510 NA
ATOM      3  C   LIG    1        2.502   5.566  -1.487  0.00  0.00    +0.100 A 
ATOM      4  C   LIG    1        3.563   6.443  -1.324  0.00  0.00    -0.230 A 
ATOM      5  C   LIG    1        3.192   7.838  -1.579  0.00  0.00    -0.050 A 
ATOM      6  C   LIG    1        1.921   8.002  -1.915  0.00  0.00    -0.230 A 
ATOM      7  C   LIG    1        1.619   9.477  -2.163  0.00  0.00    +0.120 C 
ATOM      8  C   LIG    1        2.999  10.135  -2.360  0.00  0.00    +0.040 C 
ATOM      9  C   LIG    1        3.911   9.187  -1.556  0.00  0.00    +0.100 C 
ATOM     10  C   LIG    1        4.831   5.908  -0.945  0.00  0.00    +0.570 A 
ATOM     11  O   LIG    1        5.793   6.640  -0.790  0.00  0.00    -0.520 OA
ATOM     12  S   LIG    1        1.064   6.461  -1.949  0.00  0.00    +0.210 S 
ATOM     13  N   LIG    1        4.942   4.578  -0.759  0.00  0.00    -0.510 N 
ENDROOT
BRANCH   1  14
ATOM     14  S   LIG    1        4.040   2.030  -0.695  0.00  0.00    +0.070 S 
BRANCH  14  21
ATOM     15  O   LIG    1        1.787   2.840   0.810  0.00  0.00    -0.430 OA
ATOM     16  C   LIG    1        1.409   2.028  -0.001  0.00  0.00    +0.370 C 
ATOM     17  C   LIG    1       -0.019   1.528   0.010  0.00  0.00    +0.030 C 
ATOM     18  C   LIG    1        0.002  -0.004   0.002  0.00  0.00    +0.030 C 
ATOM     19  C   LIG    1        0.833  -0.494  -1.185  0.00  0.00    +0.030 C 
ATOM     20  C   LIG    1        2.286  -0.044  -1.022  0.00  0.00    +0.070 C 
ATOM     21  C   LIG    1        2.351   1.486  -1.053  0.00  0.00    +0.000 C 
ENDBRANCH  14  21
ENDBRANCH   1  14
BRANCH  13  22
ATOM     22  C   LIG    1        6.230   4.002  -0.365  0.00  0.00    +0.310 C 
BRANCH  22  23
ATOM     23  C   LIG    1        7.032   3.641  -1.617  0.00  0.00    +0.140 C 
ATOM     24  C   LIG    1        8.369   2.964  -1.224  0.00  0.00    +0.020 C 
ATOM     25  C   LIG    1        8.671   2.142  -2.506  0.00  0.00    +0.020 C 
ATOM     26  C   LIG    1        7.258   1.740  -2.979  0.00  0.00    +0.190 C 
ATOM     27  O   LIG    1        6.328   2.659  -2.394  0.00  0.00    -0.370 OA
ENDBRANCH  22  23
ENDBRANCH  13  22
TORSDOF 4
