REMARK  Name = ZINCrD00000hQ6V0.0
REMARK                            x       y       z     vdW  Elec       q    Type
REMARK                         _______ _______ _______ _____ _____    ______ ____
ROOT
ATOM      1  O   LIG    1       -0.018   1.448   0.010  0.00  0.00    -0.320 OA
ENDROOT
BRANCH   1   3
ATOM      2  C   LIG    1        0.023  -0.522   1.442  0.00  0.00    +0.070 C 
ATOM      3  C   LIG    1        0.002  -0.004   0.002  0.00  0.00    +0.180 C 
BRANCH   3   4
ATOM      4  C   LIG    1       -1.228  -0.519  -0.700  0.00  0.00    +0.520 C 
ATOM      5  N   LIG    1       -1.425  -1.847  -0.828  0.00  0.00    -0.710 N 
ATOM      6  H   LIG    1       -0.774  -2.470  -0.469  0.00  0.00    +0.400 HD
ATOM      7  O   LIG    1       -2.042   0.260  -1.148  0.00  0.00    -0.510 OA
BRANCH   5   8
ATOM      8  C   LIG    1       -2.621  -2.347  -1.510  0.00  0.00    +0.240 C 
ATOM      9  C   LIG    1       -2.369  -2.387  -3.018  0.00  0.00    +0.010 C 
ATOM     10  C   LIG    1       -1.187  -3.314  -3.314  0.00  0.00    +0.000 C 
ATOM     11  C   LIG    1       -1.507  -4.723  -2.813  0.00  0.00    +0.000 C 
ATOM     12  C   LIG    1       -1.759  -4.684  -1.304  0.00  0.00    +0.010 C 
ATOM     13  C   LIG    1       -2.941  -3.757  -1.009  0.00  0.00    -0.010 C 
ATOM     14  C   LIG    1       -3.193  -3.717   0.500  0.00  0.00    +0.020 C 
ENDBRANCH   5   8
ENDBRANCH   3   4
ENDBRANCH   1   3
BRANCH   1  15
ATOM     15  C   LIG    1        1.170   2.073   0.002  0.00  0.00    +0.480 C 
ATOM     16  O   LIG    1        2.192   1.429  -0.011  0.00  0.00    -0.490 OA
BRANCH  15  17
ATOM     17  C   LIG    1        1.228   3.579   0.010  0.00  0.00    +0.160 C 
BRANCH  17  18
ATOM     18  S   LIG    1        2.957   4.116  -0.004  0.00  0.00    +0.050 S 
BRANCH  18  19
ATOM     19  C   LIG    1        2.735   5.864   0.007  0.00  0.00    +0.070 A 
ATOM     20  N   LIG    1        1.515   6.369   0.016  0.00  0.00    -0.440 NA
ATOM     21  C   LIG    1        1.349   7.698   0.030  0.00  0.00    +0.100 A 
ATOM     22  C   LIG    1        0.064   8.266   0.045  0.00  0.00    +0.050 A 
ATOM     23  C   LIG    1       -0.075   9.621   0.053  0.00  0.00    +0.050 A 
ATOM     24  C   LIG    1        1.040  10.455   0.046  0.00  0.00    +0.040 A 
ATOM     25  C   LIG    1        2.300   9.939   0.032  0.00  0.00    +0.060 A 
ATOM     26  C   LIG    1        2.483   8.547   0.023  0.00  0.00    +0.070 A 
ATOM     27  N   LIG    1        3.712   8.013   0.009  0.00  0.00    -0.410 NA
ATOM     28  C   LIG    1        3.858   6.711   0.001  0.00  0.00    +0.290 A 
ENDBRANCH  18  19
ENDBRANCH  17  18
ENDBRANCH  15  17
ENDBRANCH   1  15
TORSDOF 7
