REMARK  Name = ZINCAx00000009vk.0
REMARK                            x       y       z     vdW  Elec       q    Type
REMARK                         _______ _______ _______ _____ _____    ______ ____
ROOT
ATOM      1  C   LIG    1       -2.586   3.474  -2.057  0.00  0.00    +0.450 C 
ATOM      2  O   LIG    1       -1.868   4.246  -2.647  0.00  0.00    -0.470 OA
ENDROOT
BRANCH   1  17
ATOM      3  N   LIG    1       -2.555   2.046  -0.093  0.00  0.00    -0.610 N 
ATOM      4  C   LIG    1       -1.384   1.406   0.122  0.00  0.00    +0.570 C 
ATOM      5  C   LIG    1       -0.105   2.111  -0.079  0.00  0.00    -0.180 A 
ATOM      6  C   LIG    1        1.104   1.433  -0.202  0.00  0.00    +0.110 A 
ATOM      7  C   LIG    1        2.272   2.151  -0.361  0.00  0.00    +0.000 A 
ATOM      8  C   LIG    1        2.253   3.536  -0.392  0.00  0.00    +0.080 A 
ATOM      9  C   LIG    1        1.058   4.224  -0.271  0.00  0.00    +0.020 A 
ATOM     10  C   LIG    1       -0.116   3.520  -0.121  0.00  0.00    +0.190 A 
ATOM     11  N   LIG    1       -1.373   4.123  -0.030  0.00  0.00    -0.550 N 
ATOM     12  C   LIG    1       -1.679   5.309   0.501  0.00  0.00    +0.530 C 
ATOM     13  C   LIG    1       -3.171   5.447   0.672  0.00  0.00    +0.100 C 
ATOM     14  C   LIG    1       -3.787   4.190  -0.002  0.00  0.00    +0.100 C 
ATOM     15  O   LIG    1       -0.868   6.158   0.806  0.00  0.00    -0.480 OA
ATOM     16  O   LIG    1       -1.386   0.245   0.483  0.00  0.00    -0.500 OA
ATOM     17  C   LIG    1       -2.574   3.434  -0.550  0.00  0.00    +0.400 C 
BRANCH   3  19
ATOM     18  C   LIG    1       -4.178   1.404   1.621  0.00  0.00    +0.030 C 
ATOM     19  C   LIG    1       -3.819   1.341   0.135  0.00  0.00    +0.300 C 
ENDBRANCH   3  19
ENDBRANCH   1  17
BRANCH   1  20
ATOM     20  O   LIG    1       -3.394   2.652  -2.744  0.00  0.00    -0.340 OA
BRANCH  20  21
ATOM     21  C   LIG    1       -3.354   2.745  -4.192  0.00  0.00    +0.310 C 
BRANCH  21  22
ATOM     22  C   LIG    1       -4.321   1.754  -4.787  0.00  0.00    +0.020 A 
ATOM     23  C   LIG    1       -5.063   0.940  -3.992  0.00  0.00    -0.050 A 
ATOM     24  C   LIG    1       -5.964   0.024  -4.572  0.00  0.00    +0.510 A 
ATOM     25  O   LIG    1       -6.107  -0.077  -5.903  0.00  0.00    -0.270 OA
ATOM     26  C   LIG    1       -5.395   0.698  -6.749  0.00  0.00    +0.180 A 
ATOM     27  C   LIG    1       -5.554   0.579  -8.121  0.00  0.00    +0.020 A 
ATOM     28  C   LIG    1       -4.813   1.385  -8.973  0.00  0.00    +0.210 A 
ATOM     29  C   LIG    1       -3.909   2.314  -8.459  0.00  0.00    -0.020 A 
ATOM     30  C   LIG    1       -3.740   2.442  -7.111  0.00  0.00    +0.100 A 
ATOM     31  O   LIG    1       -6.628  -0.695  -3.848  0.00  0.00    -0.450 OA
ATOM     32  C   LIG    1       -4.481   1.637  -6.238  0.00  0.00    -0.170 A 
BRANCH  28  33
ATOM     33  N   LIG    1       -4.973   1.265 -10.353  0.00  0.00    -0.670 N 
ATOM     34  H   LIG    1       -4.213   1.391 -10.943  0.00  0.00    +0.420 HD
ATOM     35  C   LIG    1       -6.184   0.974 -10.868  0.00  0.00    +0.510 C 
ATOM     36  O   LIG    1       -7.153   0.909 -10.141  0.00  0.00    -0.510 OA
ATOM     37  C   LIG    1       -6.335   0.731 -12.348  0.00  0.00    +0.110 C 
ENDBRANCH  28  33
ENDBRANCH  21  22
ENDBRANCH  20  21
ENDBRANCH   1  20
TORSDOF 6
