REMARK  Name = ZINCb80000001CKx.0
REMARK                            x       y       z     vdW  Elec       q    Type
REMARK                         _______ _______ _______ _____ _____    ______ ____
ROOT
ATOM      1  C   LIG    1        0.207   3.794   0.041  0.00  0.00    +0.450 A 
ATOM      2  N   LIG    1        1.246   2.974   0.017  0.00  0.00    -0.550 NA
ATOM      3  C   LIG    1        1.096   1.664  -0.008  0.00  0.00    +0.350 A 
ATOM      4  C   LIG    1       -0.160   1.086  -0.011  0.00  0.00    -0.110 A 
ATOM      5  C   LIG    1       -1.283   1.895   0.008  0.00  0.00    +0.150 A 
ATOM      6  C   LIG    1       -1.102   3.282   0.040  0.00  0.00    -0.280 A 
ENDROOT
BRANCH   6   7
ATOM      7  C   LIG    1       -2.263   4.190   0.067  0.00  0.00    +0.580 C 
ATOM      8  O   LIG    1       -2.097   5.392  -0.010  0.00  0.00    -0.550 OA
ATOM      9  N   LIG    1       -3.509   3.688   0.177  0.00  0.00    -0.850 N 
ATOM     10  H   LIG    1       -4.273   4.285   0.195  0.00  0.00    +0.410 HD
ATOM     11  H   LIG    1       -3.642   2.729   0.238  0.00  0.00    +0.400 HD
ENDBRANCH   6   7
BRANCH   1  13
ATOM     12  C   LIG    1        1.768   5.698   0.189  0.00  0.00    +0.280 C 
ATOM     13  N   LIG    1        0.410   5.162   0.067  0.00  0.00    -0.700 N 
ATOM     14  H   LIG    1       -0.346   5.766   0.004  0.00  0.00    +0.430 HD
ENDBRANCH   1  13
TORSDOF 2
