REMARK  Name = ZINCrD00000F5LlT.0
REMARK                            x       y       z     vdW  Elec       q    Type
REMARK                         _______ _______ _______ _____ _____    ______ ____
ROOT
ATOM      1  C   LIG    1        1.163   2.083   0.003  0.00  0.00    -0.110 A 
ATOM      2  C   LIG    1       -0.024   1.376   0.001  0.00  0.00    +0.020 A 
ATOM      3  C   LIG    1       -0.006  -0.007  -0.011  0.00  0.00    +0.020 A 
ATOM      4  C   LIG    1        1.204  -0.678  -0.020  0.00  0.00    -0.070 A 
ATOM      5  C   LIG    1        1.216  -2.190  -0.031  0.00  0.00    +0.070 C 
ATOM      6  C   LIG    1        1.695  -2.667  -1.407  0.00  0.00    +0.290 C 
ATOM      7  N   LIG    1        3.152  -2.604  -1.470  0.00  0.00    -0.610 N 
ATOM      8  C   LIG    1        3.901  -1.353  -1.403  0.00  0.00    +0.280 C 
ATOM      9  C   LIG    1        3.707  -0.707  -0.027  0.00  0.00    +0.070 C 
ATOM     10  C   LIG    1        3.839  -3.757  -1.597  0.00  0.00    +0.540 C 
ATOM     11  O   LIG    1        5.045  -3.732  -1.752  0.00  0.00    -0.540 OA
ATOM     12  C   LIG    1        2.384   0.025  -0.018  0.00  0.00    -0.080 A 
ATOM     13  C   LIG    1        2.371   1.409  -0.006  0.00  0.00    +0.040 A 
ENDROOT
BRANCH  10  14
ATOM     14  C   LIG    1        3.129  -5.044  -1.549  0.00  0.00    -0.100 C 
ATOM     15  C   LIG    1        3.816  -6.183  -1.575  0.00  0.00    +0.140 C 
ENDBRANCH  10  14
BRANCH   1  16
ATOM     16  C   LIG    1        1.143   3.590   0.016  0.00  0.00    +0.320 C 
BRANCH  16  18
ATOM     17  C   LIG    1        1.122   5.390   1.658  0.00  0.00    +0.510 C 
ATOM     18  N   LIG    1        1.140   4.067   1.401  0.00  0.00    -0.730 N 
ATOM     19  H   LIG    1        1.151   3.431   2.133  0.00  0.00    +0.400 HD
ATOM     20  O   LIG    1        1.109   6.185   0.743  0.00  0.00    -0.540 OA
BRANCH  17  21
ATOM     21  C   LIG    1        1.119   5.880   3.083  0.00  0.00    +0.040 C 
BRANCH  21  22
ATOM     22  C   LIG    1        1.098   7.410   3.096  0.00  0.00    +0.030 C 
BRANCH  22  23
ATOM     23  C   LIG    1        1.095   7.908   4.542  0.00  0.00    +0.000 C 
BRANCH  23  24
ATOM     24  C   LIG    1        1.074   9.438   4.555  0.00  0.00    +0.020 C 
BRANCH  24  25
ATOM     25  C   LIG    1        1.071   9.936   6.002  0.00  0.00    +0.030 C 
BRANCH  25  26
ATOM     26  C   LIG    1        1.050  11.466   6.014  0.00  0.00    +0.160 C 
BRANCH  26  28
ATOM     27  C   LIG    1        1.045  12.327   8.516  0.00  0.00    +0.010 C 
ATOM     28  C   LIG    1        1.047  11.945   7.406  0.00  0.00    -0.190 C 
ENDBRANCH  26  28
ENDBRANCH  25  26
ENDBRANCH  24  25
ENDBRANCH  23  24
ENDBRANCH  22  23
ENDBRANCH  21  22
ENDBRANCH  17  21
ENDBRANCH  16  18
ENDBRANCH   1  16
TORSDOF 10
