REMARK  Name = ZINCvU0000000Dcd.0
REMARK                            x       y       z     vdW  Elec       q    Type
REMARK                         _______ _______ _______ _____ _____    ______ ____
ROOT
ATOM      1  N   LIG    1       -0.020   1.094   2.454  0.00  0.00    -0.450 N 
ATOM      2  C   LIG    1        0.996   1.719   3.122  0.00  0.00    +0.180 A 
ATOM      3  N   LIG    1        1.339   0.949   4.115  0.00  0.00    -0.250 NA
ATOM      4  N   LIG    1        0.613  -0.112   4.122  0.00  0.00    -0.290 NA
ATOM      5  C   LIG    1       -0.242  -0.073   3.126  0.00  0.00    +0.160 A 
ENDROOT
BRANCH   1   6
ATOM      6  C   LIG    1       -0.729   1.579   1.267  0.00  0.00    +0.300 C 
BRANCH   6   7
ATOM      7  C   LIG    1       -0.013   1.086   0.008  0.00  0.00    +0.010 C 
BRANCH   7   8
ATOM      8  C   LIG    1       -0.753   1.593  -1.232  0.00  0.00    +0.020 C 
BRANCH   8   9
ATOM      9  C   LIG    1       -0.037   1.099  -2.490  0.00  0.00    +0.000 C 
BRANCH   9  11
ATOM     10  C   LIG    1       -0.060   1.113  -4.989  0.00  0.00    +0.010 C 
ATOM     11  C   LIG    1       -0.777   1.606  -3.730  0.00  0.00    -0.010 C 
ENDBRANCH   9  11
ENDBRANCH   8   9
ENDBRANCH   7   8
ENDBRANCH   6   7
ENDBRANCH   1   6
BRANCH   2  12
ATOM     12  C   LIG    1        1.608   3.051   2.772  0.00  0.00    +0.350 C 
BRANCH  12  13
ATOM     13  O   LIG    1        0.902   4.092   3.451  0.00  0.00    -0.300 OA
BRANCH  13  14
ATOM     14  C   LIG    1        1.330   5.365   3.243  0.00  0.00    +0.100 A 
ATOM     15  C   LIG    1        2.407   5.608   2.404  0.00  0.00    -0.040 A 
ATOM     16  C   LIG    1        2.840   6.903   2.194  0.00  0.00    +0.050 A 
ATOM     17  C   LIG    1        2.202   7.958   2.819  0.00  0.00    +0.020 A 
ATOM     18  C   LIG    1        1.128   7.721   3.658  0.00  0.00    +0.040 A 
ATOM     19  C   LIG    1        0.686   6.427   3.867  0.00  0.00    +0.070 A 
ATOM     20  F   LIG    1       -0.367   6.195   4.681  0.00  0.00    -0.130 F 
ENDBRANCH  13  14
ENDBRANCH  12  13
ENDBRANCH   2  12
BRANCH   5  21
ATOM     21  S   LIG    1       -1.445  -1.298   2.731  0.00  0.00    +0.030 S 
BRANCH  21  22
ATOM     22  C   LIG    1       -1.119  -2.496   4.048  0.00  0.00    +0.160 C 
BRANCH  22  23
ATOM     23  C   LIG    1       -2.059  -3.666   3.907  0.00  0.00    -0.030 A 
ATOM     24  C   LIG    1       -3.284  -3.649   4.549  0.00  0.00    +0.050 A 
ATOM     25  C   LIG    1       -4.148  -4.720   4.416  0.00  0.00    +0.110 A 
ATOM     26  C   LIG    1       -3.783  -5.811   3.650  0.00  0.00    -0.040 A 
ATOM     27  C   LIG    1       -2.557  -5.830   3.013  0.00  0.00    +0.110 A 
ATOM     28  C   LIG    1       -1.695  -4.757   3.141  0.00  0.00    +0.050 A 
BRANCH  26  29
ATOM     29  N   LIG    1       -4.706  -6.960   3.513  0.00  0.00    +0.020 N 
ATOM     30  O   LIG    1       -5.787  -6.944   4.075  0.00  0.00    -0.150 OA
ATOM     31  O   LIG    1       -4.385  -7.922   2.838  0.00  0.00    -0.150 OA
ENDBRANCH  26  29
ENDBRANCH  22  23
ENDBRANCH  21  22
ENDBRANCH   5  21
TORSDOF 12
