REMARK  Name = ZINCrH000004koYe.0
REMARK                            x       y       z     vdW  Elec       q    Type
REMARK                         _______ _______ _______ _____ _____    ______ ____
ROOT
ATOM      1  N   LIG    1       -3.269  10.778  -2.517  0.00  0.00    -0.720 N 
ATOM      2  H   LIG    1       -2.990  10.392  -3.362  0.00  0.00    +0.400 HD
ATOM      3  C   LIG    1       -2.857  10.230  -1.357  0.00  0.00    +0.530 C 
ATOM      4  O   LIG    1       -3.206  10.712  -0.300  0.00  0.00    -0.530 OA
ENDROOT
BRANCH   1   5
ATOM      5  C   LIG    1       -4.139  11.957  -2.502  0.00  0.00    +0.360 C 
BRANCH   5   6
ATOM      6  C   LIG    1       -3.297  13.201  -2.380  0.00  0.00    -0.200 A 
ATOM      7  C   LIG    1       -3.603  14.267  -1.639  0.00  0.00    +0.030 A 
ATOM      8  C   LIG    1       -2.674  15.292  -1.681  0.00  0.00    +0.000 A 
ATOM      9  C   LIG    1       -1.618  15.062  -2.463  0.00  0.00    -0.040 A 
ATOM     10  S   LIG    1       -1.765  13.472  -3.200  0.00  0.00    +0.110 S 
ENDBRANCH   5   6
BRANCH   5  11
ATOM     11  C   LIG    1       -4.946  12.012  -3.800  0.00  0.00    +0.130 C 
BRANCH  11  12
ATOM     12  C   LIG    1       -5.878  10.829  -3.863  0.00  0.00    +0.460 C 
ATOM     13  O   LIG    1       -5.895  10.025  -2.962  0.00  0.00    -0.490 OA
BRANCH  12  15
ATOM     14  C   LIG    1       -7.560   9.508  -4.914  0.00  0.00    +0.260 C 
ATOM     15  O   LIG    1       -6.689  10.670  -4.921  0.00  0.00    -0.360 OA
ENDBRANCH  12  15
ENDBRANCH  11  12
ENDBRANCH   5  11
ENDBRANCH   1   5
BRANCH   3  16
ATOM     16  C   LIG    1       -1.962   9.017  -1.372  0.00  0.00    +0.060 C 
BRANCH  16  17
ATOM     17  C   LIG    1       -1.645   8.600   0.065  0.00  0.00    +0.210 C 
BRANCH  17  18
ATOM     18  C   LIG    1       -0.750   7.387   0.050  0.00  0.00    +0.200 A 
ATOM     19  N   LIG    1        0.554   7.409   0.037  0.00  0.00    -0.470 NA
ATOM     20  C   LIG    1        1.009   6.147   0.025  0.00  0.00    +0.170 A 
ATOM     21  C   LIG    1       -0.070   5.323   0.032  0.00  0.00    -0.010 A 
ATOM     22  O   LIG    1       -1.166   6.113   0.041  0.00  0.00    -0.190 OA
BRANCH  21  23
ATOM     23  C   LIG    1       -0.050   3.845   0.024  0.00  0.00    -0.020 A 
ATOM     24  C   LIG    1        1.166   3.160   0.008  0.00  0.00    +0.030 A 
ATOM     25  C   LIG    1        1.178   1.781   0.000  0.00  0.00    +0.020 A 
ATOM     26  C   LIG    1       -0.013   1.076   0.008  0.00  0.00    +0.020 A 
ATOM     27  C   LIG    1       -1.222   1.748   0.017  0.00  0.00    +0.010 A 
ATOM     28  C   LIG    1       -1.247   3.127   0.031  0.00  0.00    +0.030 A 
ENDBRANCH  21  23
ENDBRANCH  17  18
ENDBRANCH  16  17
ENDBRANCH   3  16
TORSDOF 9
