REMARK  Name = ZINCrH000004tMoF.0
REMARK                            x       y       z     vdW  Elec       q    Type
REMARK                         _______ _______ _______ _____ _____    ______ ____
ROOT
ATOM      1  O   LIG    1        3.515   3.026  -0.218  0.00  0.00    -0.500 OA
ATOM      2  C   LIG    1        3.531   1.813  -0.194  0.00  0.00    +0.510 C 
ATOM      3  N   LIG    1        2.376   1.126  -0.093  0.00  0.00    -0.670 N 
ATOM      4  H   LIG    1        2.392   0.160  -0.005  0.00  0.00    +0.410 HD
ENDROOT
BRANCH   3   5
ATOM      5  C   LIG    1        1.151   1.807  -0.115  0.00  0.00    +0.120 A 
ATOM      6  C   LIG    1        0.045   1.228  -0.721  0.00  0.00    +0.020 A 
ATOM      7  C   LIG    1       -1.160   1.902  -0.747  0.00  0.00    -0.030 A 
ATOM      8  C   LIG    1       -1.268   3.153  -0.156  0.00  0.00    +0.090 A 
ATOM      9  C   LIG    1       -0.163   3.732   0.450  0.00  0.00    +0.020 A 
ATOM     10  C   LIG    1        1.044   3.062   0.471  0.00  0.00    +0.070 A 
BRANCH   8  11
ATOM     11  O   LIG    1       -2.456   3.814  -0.177  0.00  0.00    -0.320 OA
BRANCH  11  12
ATOM     12  C   LIG    1       -3.552   3.158  -0.818  0.00  0.00    +0.590 C 
ATOM     13  F   LIG    1       -3.809   1.943  -0.175  0.00  0.00    -0.200 F 
ATOM     14  F   LIG    1       -3.232   2.917  -2.159  0.00  0.00    -0.200 F 
ENDBRANCH  11  12
ENDBRANCH   8  11
ENDBRANCH   3   5
BRANCH   2  15
ATOM     15  C   LIG    1        4.842   1.074  -0.276  0.00  0.00    +0.220 C 
BRANCH  15  16
ATOM     16  N   LIG    1        5.943   2.041  -0.379  0.00  0.00    -0.520 NA
ATOM     17  C   LIG    1        5.880   2.778  -1.649  0.00  0.00    +0.190 C 
ATOM     18  C   LIG    1        6.994   3.827  -1.683  0.00  0.00    +0.210 C 
ATOM     19  N   LIG    1        8.295   3.162  -1.527  0.00  0.00    -0.490 N 
ATOM     20  C   LIG    1        8.358   2.426  -0.257  0.00  0.00    +0.200 C 
ATOM     21  C   LIG    1        7.244   1.376  -0.223  0.00  0.00    +0.200 C 
BRANCH  19  22
ATOM     22  C   LIG    1        9.342   4.082  -1.625  0.00  0.00    +0.120 A 
ATOM     23  C   LIG    1        9.075   5.445  -1.619  0.00  0.00    -0.020 A 
ATOM     24  C   LIG    1       10.113   6.351  -1.709  0.00  0.00    +0.040 A 
ATOM     25  C   LIG    1       11.417   5.904  -1.818  0.00  0.00    +0.000 A 
ATOM     26  C   LIG    1       11.687   4.548  -1.830  0.00  0.00    +0.050 A 
ATOM     27  C   LIG    1       10.654   3.635  -1.734  0.00  0.00    -0.050 A 
ATOM     28 CL   LIG    1       10.994   1.933  -1.749  0.00  0.00    -0.060 Cl
ENDBRANCH  19  22
ENDBRANCH  15  16
ENDBRANCH   2  15
TORSDOF 6
