REMARK  Name = ZINCrH000004tLO3.0
REMARK                            x       y       z     vdW  Elec       q    Type
REMARK                         _______ _______ _______ _____ _____    ______ ____
ROOT
ATOM      1  O   LIG    1       -1.204   2.837   0.023  0.00  0.00    -0.530 OA
ATOM      2  C   LIG    1       -1.187   1.624   0.017  0.00  0.00    +0.510 C 
ATOM      3  N   LIG    1       -0.011   0.966   0.007  0.00  0.00    -0.720 N 
ATOM      4  H   LIG    1        0.002  -0.004   0.002  0.00  0.00    +0.400 HD
ENDROOT
BRANCH   3   5
ATOM      5  C   LIG    1        1.248   1.716  -0.001  0.00  0.00    +0.360 C 
BRANCH   5   6
ATOM      6  C   LIG    1        2.332   0.870  -0.616  0.00  0.00    -0.080 A 
ATOM      7  C   LIG    1        3.259   1.444  -1.465  0.00  0.00    +0.030 A 
ATOM      8  C   LIG    1        4.255   0.669  -2.030  0.00  0.00    +0.030 A 
ATOM      9  C   LIG    1        4.324  -0.681  -1.745  0.00  0.00    +0.020 A 
ATOM     10  C   LIG    1        3.397  -1.258  -0.895  0.00  0.00    -0.030 A 
ATOM     11 CL   LIG    1        3.484  -2.954  -0.536  0.00  0.00    -0.070 Cl
ATOM     12  C   LIG    1        2.404  -0.480  -0.327  0.00  0.00    +0.060 A 
ENDBRANCH   5   6
BRANCH   5  13
ATOM     13  C   LIG    1        1.629   2.071   1.413  0.00  0.00    +0.110 A 
ATOM     14  C   LIG    1        1.663   3.398   1.798  0.00  0.00    -0.010 A 
ATOM     15  C   LIG    1        2.016   3.715   3.101  0.00  0.00    +0.060 A 
ATOM     16  C   LIG    1        2.322   2.680   3.972  0.00  0.00    -0.030 A 
ATOM     17  C   LIG    1        2.266   1.377   3.515  0.00  0.00    +0.260 A 
ATOM     18  N   LIG    1        1.921   1.113   2.270  0.00  0.00    -0.470 NA
ENDBRANCH   5  13
ENDBRANCH   3   5
BRANCH   2  19
ATOM     19  C   LIG    1       -2.482   0.853   0.018  0.00  0.00    +0.300 C 
BRANCH  19  20
ATOM     20  N   LIG    1       -3.608   1.789   0.029  0.00  0.00    -0.580 N 
ATOM     21  C   LIG    1       -4.043   2.153  -1.304  0.00  0.00    +0.270 C 
ATOM     22  C   LIG    1       -5.217   3.136  -1.271  0.00  0.00    +0.020 C 
ATOM     23  C   LIG    1       -6.513   2.360  -1.025  0.00  0.00    +0.010 C 
ATOM     24  C   LIG    1       -6.455   1.578   0.271  0.00  0.00    +0.000 C 
ATOM     25  C   LIG    1       -6.409   2.596   1.405  0.00  0.00    +0.030 C 
ATOM     26  C   LIG    1       -5.006   3.189   1.550  0.00  0.00    +0.060 C 
ATOM     27  C   LIG    1       -3.996   2.104   1.251  0.00  0.00    +0.540 C 
ATOM     28  O   LIG    1       -3.514   1.493   2.182  0.00  0.00    -0.550 OA
ENDBRANCH  19  20
ENDBRANCH   2  19
TORSDOF 5
