REMARK  Name = ZINCpe00000yMUpT.0
REMARK                            x       y       z     vdW  Elec       q    Type
REMARK                         _______ _______ _______ _____ _____    ______ ____
ROOT
ATOM      1  C   LIG    1        0.584   1.632   3.934  0.00  0.00    +0.580 C 
ATOM      2  N   LIG    1        0.221   1.214   2.706  0.00  0.00    -0.610 N 
ATOM      3  C   LIG    1        1.097   0.938   1.544  0.00  0.00    +0.240 C 
ATOM      4  C   LIG    1        0.492  -0.325   0.892  0.00  0.00    +0.170 C 
ATOM      5  C   LIG    1       -0.987  -0.331   1.331  0.00  0.00    +0.020 C 
ATOM      6  C   LIG    1       -1.146   0.929   2.210  0.00  0.00    +0.270 C 
ATOM      7  O   LIG    1       -0.263   1.895   4.761  0.00  0.00    -0.530 OA
ENDROOT
BRANCH   1   8
ATOM      8  C   LIG    1        2.044   1.771   4.282  0.00  0.00    -0.150 C 
ATOM      9  C   LIG    1        2.924   0.527   4.145  0.00  0.00    +0.030 C 
ATOM     10  C   LIG    1        2.545   1.048   5.534  0.00  0.00    +0.070 C 
BRANCH   8  11
ATOM     11  C   LIG    1        2.676   3.123   3.947  0.00  0.00    +0.150 C 
BRANCH  11  18
ATOM     12  C   LIG    1        1.302   4.069   2.075  0.00  0.00    +0.130 A 
ATOM     13  C   LIG    1        1.109   4.354   0.731  0.00  0.00    -0.040 A 
ATOM     14  C   LIG    1        2.068   3.993  -0.196  0.00  0.00    +0.030 A 
ATOM     15  C   LIG    1        3.223   3.351   0.217  0.00  0.00    +0.060 A 
ATOM     16  C   LIG    1        3.420   3.071   1.558  0.00  0.00    +0.030 A 
ATOM     17  F   LIG    1        4.160   2.999  -0.691  0.00  0.00    -0.140 F 
ATOM     18  C   LIG    1        2.462   3.430   2.487  0.00  0.00    -0.090 A 
BRANCH  12  20
ATOM     19  C   LIG    1       -0.813   5.073   2.491  0.00  0.00    +0.240 C 
ATOM     20  O   LIG    1        0.357   4.418   2.987  0.00  0.00    -0.300 OA
ENDBRANCH  12  20
ENDBRANCH  11  18
ENDBRANCH   8  11
ENDBRANCH   1   8
BRANCH   4  21
ATOM     21  O   LIG    1        1.156  -1.498   1.366  0.00  0.00    -0.550 OA
ATOM     22  H   LIG    1        2.090  -1.548   1.119  0.00  0.00    +0.380 HD
ENDBRANCH   4  21
BRANCH   5  23
ATOM     23  C   LIG    1       -1.905  -0.249   0.110  0.00  0.00    +0.070 C 
BRANCH  23  24
ATOM     24  C   LIG    1       -3.342  -0.344   0.555  0.00  0.00    +0.510 C 
ATOM     25  O   LIG    1       -3.605  -0.464   1.733  0.00  0.00    -0.530 OA
ATOM     26  N   LIG    1       -4.334  -0.294  -0.356  0.00  0.00    -0.860 N 
ATOM     27  H   LIG    1       -5.258  -0.355  -0.070  0.00  0.00    +0.400 HD
ATOM     28  H   LIG    1       -4.123  -0.198  -1.298  0.00  0.00    +0.400 HD
ENDBRANCH  23  24
ENDBRANCH   5  23
TORSDOF 7
