REMARK  Name = ZINCpk00000xXvMb.0
REMARK                            x       y       z     vdW  Elec       q    Type
REMARK                         _______ _______ _______ _____ _____    ______ ____
ROOT
ATOM      1  C   LIG    1        6.256   7.231  -1.185  0.00  0.00    +0.140 C 
ATOM      2  C   LIG    1        5.088   8.214  -1.072  0.00  0.00    +0.050 C 
ATOM      3  C   LIG    1        3.765   7.449  -1.160  0.00  0.00    +0.030 C 
ATOM      4  C   LIG    1        3.677   6.455   0.003  0.00  0.00    +0.250 C 
ATOM      5  N   LIG    1        4.871   5.599  -0.014  0.00  0.00    -0.600 N 
ATOM      6  C   LIG    1        4.754   4.257  -0.020  0.00  0.00    +0.520 C 
ATOM      7  O   LIG    1        5.747   3.561  -0.034  0.00  0.00    -0.510 OA
ATOM      8  C   LIG    1        6.196   6.235  -0.018  0.00  0.00    +0.270 C 
ENDROOT
BRANCH   1   9
ATOM      9  O   LIG    1        6.166   6.525  -2.424  0.00  0.00    -0.550 OA
ATOM     10  H   LIG    1        6.876   5.883  -2.564  0.00  0.00    +0.390 HD
ENDBRANCH   1   9
BRANCH   1  11
ATOM     11  C   LIG    1        7.577   8.001  -1.131  0.00  0.00    +0.050 C 
BRANCH  11  15
ATOM     12  N   LIG    1        9.996   7.488  -1.219  0.00  0.00    -0.850 N 
ATOM     13  H   LIG    1       10.736   6.865  -1.291  0.00  0.00    +0.400 HD
ATOM     14  H   LIG    1       10.169   8.438  -1.129  0.00  0.00    +0.400 HD
ATOM     15  C   LIG    1        8.727   7.033  -1.243  0.00  0.00    +0.520 C 
ATOM     16  O   LIG    1        8.511   5.845  -1.356  0.00  0.00    -0.540 OA
ENDBRANCH  11  15
ENDBRANCH   1  11
BRANCH   6  17
ATOM     17  C   LIG    1        3.388   3.619  -0.010  0.00  0.00    +0.230 C 
BRANCH  17  18
ATOM     18  O   LIG    1        3.526   2.197  -0.020  0.00  0.00    -0.280 OA
BRANCH  18  19
ATOM     19  C   LIG    1        2.381   1.467  -0.012  0.00  0.00    +0.150 A 
ATOM     20  C   LIG    1        1.166   2.092   0.002  0.00  0.00    -0.100 A 
ATOM     21  C   LIG    1       -0.016   1.357   0.009  0.00  0.00    +0.060 A 
ATOM     22  C   LIG    1        0.002  -0.004   0.002  0.00  0.00    -0.010 A 
ATOM     23  C   LIG    1        1.232  -0.685  -0.013  0.00  0.00    -0.020 A 
ATOM     24  C   LIG    1        1.288  -2.089  -0.022  0.00  0.00    +0.010 A 
ATOM     25  C   LIG    1        2.496  -2.715  -0.039  0.00  0.00    +0.030 A 
ATOM     26  C   LIG    1        3.682  -1.984  -0.046  0.00  0.00    +0.000 A 
ATOM     27  C   LIG    1        3.666  -0.622  -0.037  0.00  0.00    +0.050 A 
ATOM     28  C   LIG    1        2.438   0.058  -0.021  0.00  0.00    -0.070 A 
ENDBRANCH  18  19
ENDBRANCH  17  18
ENDBRANCH   6  17
TORSDOF 6
