REMARK  Name = ZINCkj000005jlPr.2
REMARK                            x       y       z     vdW  Elec       q    Type
REMARK                         _______ _______ _______ _____ _____    ______ ____
ROOT
ATOM      1  C   LIG    1       -0.858   1.939   0.645  0.00  0.00    +0.040 C 
ATOM      2  C   LIG    1       -0.137   1.270  -0.526  0.00  0.00    +0.220 C 
ATOM      3  C   LIG    1       -0.067  -0.241  -0.288  0.00  0.00    +0.240 C 
ATOM      4  N   LIG    1        0.715  -0.507   0.927  0.00  0.00    -0.380 N 
ATOM      5  C   LIG    1        2.074   0.026   0.760  0.00  0.00    +0.260 C 
ATOM      6  C   LIG    1        2.001   1.536   0.520  0.00  0.00    +0.160 C 
ATOM      7  H   LIG    1        0.273  -0.061   1.716  0.00  0.00    +0.420 HD
ATOM      8  O   LIG    1        1.191   1.792  -0.631  0.00  0.00    -0.340 OA
ENDROOT
BRANCH   6   9
ATOM      9  C   LIG    1        3.409   2.086   0.286  0.00  0.00    +0.230 C 
BRANCH   9  10
ATOM     10  O   LIG    1        3.354   3.509   0.178  0.00  0.00    -0.560 OA
ATOM     11  H   LIG    1        4.213   3.926   0.029  0.00  0.00    +0.400 HD
ENDBRANCH   9  10
ENDBRANCH   6   9
BRANCH   4  12
ATOM     12  C   LIG    1        0.783  -1.957   1.157  0.00  0.00    +0.320 C 
BRANCH  12  13
ATOM     13  C   LIG    1       -0.595  -2.480   1.473  0.00  0.00    -0.160 A 
ATOM     14  C   LIG    1       -1.336  -3.102   0.488  0.00  0.00    +0.050 A 
ATOM     15  C   LIG    1       -2.600  -3.582   0.777  0.00  0.00    +0.030 A 
ATOM     16  C   LIG    1       -3.118  -3.435   2.048  0.00  0.00    +0.060 A 
ATOM     17  C   LIG    1       -2.375  -2.809   3.038  0.00  0.00    -0.110 A 
ATOM     18  C   LIG    1       -2.977  -2.663   4.411  0.00  0.00    +0.290 C 
ATOM     19  O   LIG    1       -1.963  -2.348   5.364  0.00  0.00    -0.360 OA
ATOM     20  C   LIG    1       -1.153  -1.232   4.976  0.00  0.00    +0.220 C 
ATOM     21  C   LIG    1       -0.270  -1.660   3.802  0.00  0.00    +0.040 C 
ATOM     22  C   LIG    1       -1.110  -2.340   2.752  0.00  0.00    -0.050 A 
ENDBRANCH  12  13
ENDBRANCH   4  12
TORSDOF 4
