REMARK  Name = ZINCkj000005jlPr.1
REMARK                            x       y       z     vdW  Elec       q    Type
REMARK                         _______ _______ _______ _____ _____    ______ ____
ROOT
ATOM      1  C   LIG    1        0.637   5.041  -1.507  0.00  0.00    +0.110 C 
ATOM      2  C   LIG    1        0.664   3.515  -1.403  0.00  0.00    +0.140 C 
ATOM      3  C   LIG    1        1.312   2.929  -2.660  0.00  0.00    +0.240 C 
ATOM      4  N   LIG    1        1.284   1.462  -2.583  0.00  0.00    -0.390 N 
ATOM      5  C   LIG    1       -0.108   1.003  -2.488  0.00  0.00    +0.260 C 
ATOM      6  C   LIG    1       -0.753   1.593  -1.232  0.00  0.00    +0.230 C 
ATOM      7  H   LIG    1        1.795   1.158  -1.768  0.00  0.00    +0.420 HD
ATOM      8  O   LIG    1       -0.672   3.020  -1.286  0.00  0.00    -0.340 OA
ENDROOT
BRANCH   6   9
ATOM      9  C   LIG    1       -0.013   1.086   0.008  0.00  0.00    +0.140 C 
BRANCH   9  10
ATOM     10  O   LIG    1       -0.682   1.547   1.184  0.00  0.00    -0.550 OA
ATOM     11  H   LIG    1       -0.266   1.262   2.009  0.00  0.00    +0.400 HD
ENDBRANCH   9  10
ENDBRANCH   6   9
BRANCH   4  12
ATOM     12  C   LIG    1        1.905   0.896  -3.789  0.00  0.00    +0.320 C 
BRANCH  12  13
ATOM     13  C   LIG    1        3.366   1.267  -3.822  0.00  0.00    -0.160 A 
ATOM     14  C   LIG    1        3.792   2.312  -4.618  0.00  0.00    +0.050 A 
ATOM     15  C   LIG    1        5.131   2.655  -4.646  0.00  0.00    +0.030 A 
ATOM     16  C   LIG    1        6.039   1.943  -3.888  0.00  0.00    +0.060 A 
ATOM     17  C   LIG    1        5.614   0.888  -3.094  0.00  0.00    -0.110 A 
ATOM     18  C   LIG    1        6.637   0.130  -2.290  0.00  0.00    +0.290 C 
ATOM     19  O   LIG    1        5.994  -0.645  -1.278  0.00  0.00    -0.370 OA
ATOM     20  C   LIG    1        4.942  -1.474  -1.787  0.00  0.00    +0.240 C 
ATOM     21  C   LIG    1        3.773  -0.577  -2.199  0.00  0.00    +0.040 C 
ATOM     22  C   LIG    1        4.276   0.553  -3.060  0.00  0.00    -0.060 A 
ENDBRANCH  12  13
ENDBRANCH   4  12
TORSDOF 4
