REMARK  Name = ZINCrH000004mYrv.1
REMARK                            x       y       z     vdW  Elec       q    Type
REMARK                         _______ _______ _______ _____ _____    ______ ____
ROOT
ATOM      1  C   LIG    1       -1.333   2.113   0.020  0.00  0.00    +0.210 C 
ENDROOT
BRANCH   1   5
ATOM      2  C   LIG    1        2.394   0.021  -0.003  0.00  0.00    +0.130 A 
ATOM      3  C   LIG    1        2.187   1.063   0.889  0.00  0.00    -0.020 A 
ATOM      4  C   LIG    1        0.983   1.739   0.893  0.00  0.00    +0.060 A 
ATOM      5  C   LIG    1       -0.017   1.378   0.009  0.00  0.00    -0.160 A 
ATOM      6  C   LIG    1        0.186   0.340  -0.882  0.00  0.00    +0.070 A 
ATOM      7  C   LIG    1        1.390  -0.339  -0.890  0.00  0.00    -0.080 A 
BRANCH   2   9
ATOM      8  C   LIG    1        3.720  -1.707  -0.955  0.00  0.00    +0.250 C 
ATOM      9  O   LIG    1        3.578  -0.646  -0.009  0.00  0.00    -0.320 OA
ENDBRANCH   2   9
ENDBRANCH   1   5
BRANCH   1  10
ATOM     10  N   LIG    1       -1.211   3.346  -0.768  0.00  0.00    -0.500 NA
ATOM     11  C   LIG    1       -0.047   4.153  -0.319  0.00  0.00    +0.170 C 
ATOM     12  C   LIG    1        0.236   5.073  -1.533  0.00  0.00    +0.020 C 
ATOM     13  C   LIG    1       -0.044   4.150  -2.740  0.00  0.00    +0.000 C 
ATOM     14  C   LIG    1       -0.964   3.042  -2.195  0.00  0.00    +0.160 C 
ENDBRANCH   1  10
BRANCH   1  15
ATOM     15  C   LIG    1       -1.709   2.463   1.461  0.00  0.00    +0.280 C 
BRANCH  15  16
ATOM     16  N   LIG    1       -2.925   3.280   1.463  0.00  0.00    -0.710 N 
ATOM     17  H   LIG    1       -3.355   3.512   0.625  0.00  0.00    +0.410 HD
ATOM     18  C   LIG    1       -3.446   3.709   2.629  0.00  0.00    +0.560 C 
ATOM     19  O   LIG    1       -2.908   3.419   3.679  0.00  0.00    -0.540 OA
BRANCH  18  20
ATOM     20  C   LIG    1       -4.674   4.534   2.631  0.00  0.00    -0.140 A 
ATOM     21  C   LIG    1       -5.296   4.870   1.428  0.00  0.00    +0.050 A 
ATOM     22  C   LIG    1       -6.440   5.639   1.440  0.00  0.00    +0.010 A 
ATOM     23  C   LIG    1       -6.976   6.081   2.639  0.00  0.00    -0.070 A 
ATOM     24  C   LIG    1       -8.204   6.924   2.909  0.00  0.00    +0.070 C 
ATOM     25  C   LIG    1       -8.031   7.439   4.354  0.00  0.00    +0.030 C 
ATOM     26  C   LIG    1       -7.140   6.351   4.989  0.00  0.00    +0.080 C 
ATOM     27  C   LIG    1       -6.364   5.751   3.836  0.00  0.00    -0.110 A 
ATOM     28  C   LIG    1       -5.220   4.975   3.836  0.00  0.00    +0.080 A 
ENDBRANCH  18  20
ENDBRANCH  15  16
ENDBRANCH   1  15
TORSDOF 6
