REMARK  Name = ZINCrH000004qsx9.1
REMARK                            x       y       z     vdW  Elec       q    Type
REMARK                         _______ _______ _______ _____ _____    ______ ____
ROOT
ATOM      1  S   LIG    1        1.867  -3.646   4.906  0.00  0.00    +2.690 S 
ATOM      2  O   LIG    1        1.078  -3.955   6.046  0.00  0.00    -0.940 OA
ATOM      3  O   LIG    1        1.314  -3.198   3.676  0.00  0.00    -0.950 OA
ENDROOT
BRANCH   1  11
ATOM      4  C   LIG    1        3.881  -2.335   3.068  0.00  0.00    +0.100 C 
ATOM      5  C   LIG    1        3.898  -1.868   4.501  0.00  0.00    +0.030 A 
ATOM      6  C   LIG    1        4.796  -0.894   4.900  0.00  0.00    -0.010 A 
ATOM      7  C   LIG    1        4.815  -0.469   6.215  0.00  0.00    -0.000 A 
ATOM      8  C   LIG    1        3.934  -1.014   7.130  0.00  0.00    -0.020 A 
ATOM      9  C   LIG    1        3.034  -1.984   6.731  0.00  0.00    +0.030 A 
ATOM     10  C   LIG    1        2.074  -2.579   7.729  0.00  0.00    +0.120 C 
ATOM     11  C   LIG    1        3.014  -2.409   5.415  0.00  0.00    -0.690 A 
BRANCH   7  12
ATOM     12  C   LIG    1        5.796   0.588   6.651  0.00  0.00    -0.040 C 
ATOM     13  C   LIG    1        5.034   1.798   7.196  0.00  0.00    +0.040 C 
ATOM     14  C   LIG    1        6.647   1.018   5.454  0.00  0.00    +0.030 C 
ATOM     15  C   LIG    1        6.703   0.022   7.745  0.00  0.00    +0.040 C 
ENDBRANCH   7  12
ENDBRANCH   1  11
BRANCH   1  16
ATOM     16  N   LIG    1        2.740  -5.010   4.557  0.00  0.00    -1.030 N 
ATOM     17  H   LIG    1        2.780  -5.340   3.646  0.00  0.00    +0.420 HD
BRANCH  16  18
ATOM     18  C   LIG    1        3.422  -5.690   5.584  0.00  0.00    +0.000 A 
ATOM     19  C   LIG    1        3.427  -7.032   5.787  0.00  0.00    +0.230 A 
ATOM     20  N   LIG    1        4.202  -7.279   6.876  0.00  0.00    -0.360 N 
ATOM     21  N   LIG    1        4.678  -6.051   7.352  0.00  0.00    -0.240 NA
ATOM     22  C   LIG    1        4.218  -5.102   6.577  0.00  0.00    +0.200 A 
BRANCH  20  23
ATOM     23  C   LIG    1        4.485  -8.596   7.452  0.00  0.00    +0.330 C 
BRANCH  23  24
ATOM     24  C   LIG    1        5.998  -8.801   7.538  0.00  0.00    +0.160 C 
ATOM     25  C   LIG    1        6.306 -10.229   8.037  0.00  0.00    +0.020 C 
ATOM     26  C   LIG    1        7.517  -9.995   8.981  0.00  0.00    +0.010 C 
ATOM     27  C   LIG    1        7.169  -8.603   9.566  0.00  0.00    +0.200 C 
ATOM     28  O   LIG    1        6.561  -7.883   8.482  0.00  0.00    -0.350 OA
ENDBRANCH  23  24
ENDBRANCH  20  23
ENDBRANCH  16  18
ENDBRANCH   1  16
TORSDOF 6
