REMARK  Name = ZINCrD00000713PR.0
REMARK                            x       y       z     vdW  Elec       q    Type
REMARK                         _______ _______ _______ _____ _____    ______ ____
ROOT
ATOM      1  C   LIG    1        4.717   0.089  -0.145  0.00  0.00    +0.530 C 
ATOM      2  N   LIG    1        3.573  -0.615  -0.036  0.00  0.00    -0.660 N 
ATOM      3  H   LIG    1        3.603  -1.583   0.027  0.00  0.00    +0.420 HD
ATOM      4  O   LIG    1        4.686   1.301  -0.138  0.00  0.00    -0.510 OA
ENDROOT
BRANCH   1   9
ATOM      5  C   LIG    1        8.052  -2.624  -2.610  0.00  0.00    +0.670 C 
ATOM      6  N   LIG    1        7.500  -1.629  -1.888  0.00  0.00    -0.610 N 
ATOM      7  C   LIG    1        8.225  -0.493  -1.299  0.00  0.00    +0.260 C 
ATOM      8  C   LIG    1        7.190   0.369  -0.545  0.00  0.00    +0.080 C 
ATOM      9  C   LIG    1        6.035  -0.631  -0.275  0.00  0.00    +0.000 C 
ATOM     10  C   LIG    1        6.069  -1.499  -1.558  0.00  0.00    +0.310 C 
ATOM     11  O   LIG    1        7.353  -3.515  -3.050  0.00  0.00    -0.560 OA
BRANCH   5  12
ATOM     12  O   LIG    1        9.378  -2.630  -2.844  0.00  0.00    -0.360 OA
BRANCH  12  14
ATOM     13  C   LIG    1        9.243  -3.737  -5.009  0.00  0.00    +0.040 C 
ATOM     14  C   LIG    1        9.904  -3.733  -3.629  0.00  0.00    +0.140 C 
ATOM     15  C   LIG    1        9.606  -5.054  -2.917  0.00  0.00    +0.040 C 
ATOM     16  C   LIG    1       11.417  -3.569  -3.788  0.00  0.00    +0.080 C 
ENDBRANCH  12  14
ENDBRANCH   5  12
ENDBRANCH   1   9
BRANCH   2  17
ATOM     17  C   LIG    1        2.342   0.050  -0.013  0.00  0.00    +0.030 A 
ATOM     18  C   LIG    1        1.214  -0.518  -0.602  0.00  0.00    +0.310 A 
ATOM     19  N   LIG    1        0.069   0.139  -0.562  0.00  0.00    -0.490 NA
ATOM     20  C   LIG    1       -0.015   1.323   0.029  0.00  0.00    +0.350 A 
ATOM     21  N   LIG    1        1.038   1.894   0.600  0.00  0.00    -0.490 NA
ATOM     22  C   LIG    1        2.216   1.295   0.598  0.00  0.00    +0.340 A 
BRANCH  20  23
ATOM     23  C   LIG    1       -1.318   2.031   0.047  0.00  0.00    -0.050 A 
ATOM     24  C   LIG    1       -2.435   1.456  -0.556  0.00  0.00    +0.070 A 
ATOM     25  C   LIG    1       -3.646   2.117  -0.531  0.00  0.00    +0.000 A 
ATOM     26  C   LIG    1       -3.750   3.353   0.081  0.00  0.00    +0.030 A 
ATOM     27  C   LIG    1       -2.644   3.931   0.676  0.00  0.00    +0.000 A 
ATOM     28  C   LIG    1       -1.429   3.277   0.663  0.00  0.00    +0.070 A 
ENDBRANCH  20  23
ENDBRANCH   2  17
TORSDOF 5
