REMARK  Name = ZINCpe000000XMDO.0
REMARK                            x       y       z     vdW  Elec       q    Type
REMARK                         _______ _______ _______ _____ _____    ______ ____
ROOT
ATOM      1  N   LIG    1        4.584   0.211  -1.354  0.00  0.00    -0.600 N 
ATOM      2  C   LIG    1        4.395  -0.897  -2.097  0.00  0.00    +0.520 C 
ATOM      3  O   LIG    1        4.596  -0.867  -3.293  0.00  0.00    -0.490 OA
ENDROOT
BRANCH   2   4
ATOM      4  C   LIG    1        3.933  -2.174  -1.443  0.00  0.00    +0.250 C 
ATOM      5  C   LIG    1        2.468  -2.031  -1.023  0.00  0.00    +0.070 C 
BRANCH   4   6
ATOM      6  N   LIG    1        4.063  -3.283  -2.391  0.00  0.00    -0.460 N 
ATOM      7  C   LIG    1        3.441  -3.389  -3.599  0.00  0.00    +0.500 A 
ATOM      8  N   LIG    1        3.785  -4.501  -4.181  0.00  0.00    -0.470 NA
ATOM      9  C   LIG    1        4.640  -5.182  -3.381  0.00  0.00    -0.110 A 
ATOM     10  C   LIG    1        5.318  -6.410  -3.477  0.00  0.00    +0.510 A 
ATOM     11  N   LIG    1        6.102  -6.780  -2.470  0.00  0.00    -0.590 NA
ATOM     12  C   LIG    1        6.248  -6.019  -1.401  0.00  0.00    +0.560 A 
ATOM     13  N   LIG    1        5.634  -4.863  -1.268  0.00  0.00    -0.560 NA
ATOM     14  C   LIG    1        4.828  -4.409  -2.223  0.00  0.00    +0.300 A 
BRANCH  10  15
ATOM     15  N   LIG    1        5.172  -7.214  -4.594  0.00  0.00    -0.820 N 
ATOM     16  H   LIG    1        4.596  -6.932  -5.322  0.00  0.00    +0.420 HD
ATOM     17  H   LIG    1        5.645  -8.059  -4.649  0.00  0.00    +0.410 HD
ENDBRANCH  10  15
ENDBRANCH   4   6
ENDBRANCH   2   4
BRANCH   1  18
ATOM     18  C   LIG    1        4.215   0.213   0.064  0.00  0.00    +0.390 C 
BRANCH  18  23
ATOM     19  C   LIG    1        1.978   4.659   0.882  0.00  0.00    +0.170 C 
ATOM     20  C   LIG    1        2.173   3.182   0.661  0.00  0.00    +0.000 A 
ATOM     21  C   LIG    1        1.197   2.257   0.612  0.00  0.00    -0.060 A 
ATOM     22  C   LIG    1        1.824   1.011   0.381  0.00  0.00    -0.030 A 
ATOM     23  C   LIG    1        3.146   1.249   0.303  0.00  0.00    -0.040 A 
ATOM     24  O   LIG    1        3.352   2.565   0.473  0.00  0.00    -0.170 OA
ENDBRANCH  18  23
ENDBRANCH   1  18
BRANCH   1  25
ATOM     25  C   LIG    1        5.159   1.412  -1.963  0.00  0.00    +0.310 C 
BRANCH  25  26
ATOM     26  C   LIG    1        6.686   1.341  -1.888  0.00  0.00    +0.170 C 
BRANCH  26  27
ATOM     27  O   LIG    1        7.152   0.255  -2.691  0.00  0.00    -0.560 OA
ATOM     28  H   LIG    1        8.113   0.150  -2.691  0.00  0.00    +0.380 HD
ENDBRANCH  26  27
ENDBRANCH  25  26
ENDBRANCH   1  25
TORSDOF 8
