REMARK  Name = ZINCtV00001bB3SJ.0
REMARK                            x       y       z     vdW  Elec       q    Type
REMARK                         _______ _______ _______ _____ _____    ______ ____
ROOT
ATOM      1  C   LIG    1        1.386   3.307   0.007  0.00  0.00    +0.320 C 
ATOM      2  N   LIG    1        1.268   2.018   0.001  0.00  0.00    -0.330 NA
ENDROOT
BRANCH   1   9
ATOM      3  C   LIG    1        1.992   6.421   0.005  0.00  0.00    +0.190 C 
ATOM      4  C   LIG    1        3.009   5.309  -0.004  0.00  0.00    +0.130 A 
ATOM      5  N   LIG    1        4.306   5.458  -0.010  0.00  0.00    -0.260 NA
ATOM      6  N   LIG    1        4.908   4.194  -0.023  0.00  0.00    -0.300 N 
ATOM      7  C   LIG    1        3.934   3.260  -0.018  0.00  0.00    +0.170 A 
ATOM      8 CL   LIG    1        4.161   1.538  -0.030  0.00  0.00    +0.030 Cl
ATOM      9  C   LIG    1        2.725   3.925  -0.003  0.00  0.00    -0.190 A 
BRANCH   6  10
ATOM     10  C   LIG    1        6.286   3.942  -0.038  0.00  0.00    +0.130 A 
ATOM     11  C   LIG    1        6.801   2.849   0.645  0.00  0.00    +0.010 A 
ATOM     12  C   LIG    1        8.160   2.600   0.624  0.00  0.00    +0.040 A 
ATOM     13  C   LIG    1        9.008   3.446  -0.067  0.00  0.00    +0.020 A 
ATOM     14  C   LIG    1        8.499   4.539  -0.744  0.00  0.00    +0.040 A 
ATOM     15  C   LIG    1        7.141   4.789  -0.731  0.00  0.00    +0.040 A 
ENDBRANCH   6  10
ENDBRANCH   1   9
BRANCH   2  16
ATOM     16  O   LIG    1       -0.017   1.425   0.010  0.00  0.00    -0.240 OA
BRANCH  16  17
ATOM     17  C   LIG    1        0.002  -0.004   0.002  0.00  0.00    +0.330 C 
BRANCH  17  18
ATOM     18  C   LIG    1       -1.412  -0.526   0.013  0.00  0.00    -0.010 A 
ATOM     19  C   LIG    1       -2.159  -0.792  -1.076  0.00  0.00    -0.010 A 
ATOM     20  C   LIG    1       -3.408  -1.256  -0.617  0.00  0.00    -0.020 A 
ATOM     21  C   LIG    1       -3.353  -1.248   0.742  0.00  0.00    +0.030 A 
ATOM     22  O   LIG    1       -2.134  -0.808   1.109  0.00  0.00    -0.160 OA
BRANCH  21  23
ATOM     23  C   LIG    1       -4.439  -1.657   1.656  0.00  0.00    -0.000 A 
ATOM     24  C   LIG    1       -5.660  -2.097   1.142  0.00  0.00    +0.050 A 
ATOM     25  C   LIG    1       -6.668  -2.482   2.000  0.00  0.00    +0.050 A 
ATOM     26  C   LIG    1       -6.475  -2.424   3.370  0.00  0.00    -0.090 A 
ATOM     27  C   LIG    1       -5.269  -1.983   3.887  0.00  0.00    +0.050 A 
ATOM     28 BR   LIG    1       -7.866  -2.947   4.540  0.00  0.00    -0.040 Br
ATOM     29  C   LIG    1       -4.251  -1.600   3.038  0.00  0.00    +0.040 A 
ENDBRANCH  21  23
ENDBRANCH  17  18
ENDBRANCH  16  17
ENDBRANCH   2  16
TORSDOF 6
