REMARK  Name = ZINCpk00000kVLr0.0
REMARK                            x       y       z     vdW  Elec       q    Type
REMARK                         _______ _______ _______ _____ _____    ______ ____
ROOT
ATOM      1  C   LIG    1        2.250   2.943   2.043  0.00  0.00    +0.510 C 
ATOM      2  N   LIG    1        3.596   2.871   2.008  0.00  0.00    -0.730 N 
ATOM      3  H   LIG    1        4.045   2.052   2.269  0.00  0.00    +0.400 HD
ATOM      4  O   LIG    1        1.689   3.967   1.716  0.00  0.00    -0.500 OA
ENDROOT
BRANCH   2   5
ATOM      5  C   LIG    1        4.380   4.031   1.577  0.00  0.00    +0.250 C 
ATOM      6  C   LIG    1        5.756   3.574   1.060  0.00  0.00    +0.050 C 
ATOM      7  C   LIG    1        6.811   4.245   1.963  0.00  0.00    -0.020 C 
ATOM      8  C   LIG    1        6.085   5.488   2.536  0.00  0.00    +0.020 C 
ATOM      9  C   LIG    1        4.647   4.964   2.776  0.00  0.00    +0.150 C 
BRANCH   9  10
ATOM     10  O   LIG    1        3.715   6.047   2.784  0.00  0.00    -0.550 OA
ATOM     11  H   LIG    1        3.837   6.665   3.517  0.00  0.00    +0.380 HD
ENDBRANCH   9  10
BRANCH   7  12
ATOM     12  C   LIG    1        8.029   4.669   1.140  0.00  0.00    +0.330 C 
BRANCH  12  13
ATOM     13  N   LIG    1        9.028   5.277   2.023  0.00  0.00    -0.370 N 
ATOM     14  C   LIG    1       10.315   4.892   2.149  0.00  0.00    +0.220 A 
ATOM     15  C   LIG    1       10.902   5.705   3.058  0.00  0.00    -0.120 A 
ATOM     16  C   LIG    1        9.937   6.612   3.509  0.00  0.00    +0.220 A 
ATOM     17  N   LIG    1        8.814   6.356   2.890  0.00  0.00    -0.290 NA
ENDBRANCH  12  13
ENDBRANCH   7  12
ENDBRANCH   2   5
BRANCH   1  18
ATOM     18  C   LIG    1        1.443   1.750   2.487  0.00  0.00    +0.100 C 
BRANCH  18  24
ATOM     19  C   LIG    1       -0.723   1.954   1.250  0.00  0.00    -0.080 A 
ATOM     20  C   LIG    1       -2.068   2.270   1.201  0.00  0.00    +0.030 A 
ATOM     21  C   LIG    1       -2.716   2.711   2.340  0.00  0.00    +0.010 A 
ATOM     22  C   LIG    1       -2.017   2.846   3.525  0.00  0.00    +0.020 A 
ATOM     23  C   LIG    1       -0.671   2.535   3.572  0.00  0.00    +0.020 A 
ATOM     24  C   LIG    1       -0.024   2.089   2.435  0.00  0.00    -0.050 A 
BRANCH  19  25
ATOM     25  C   LIG    1       -0.018   1.468   0.010  0.00  0.00    +0.240 C 
BRANCH  25  27
ATOM     26  N   LIG    1        0.018  -1.140  -0.004  0.00  0.00    -0.430 NA
ATOM     27  C   LIG    1        0.002  -0.004   0.002  0.00  0.00    +0.210 C 
ENDBRANCH  25  27
ENDBRANCH  19  25
ENDBRANCH  18  24
ENDBRANCH   1  18
TORSDOF 8
