REMARK  Name = ZINCpe00000gMIMA.0
REMARK                            x       y       z     vdW  Elec       q    Type
REMARK                         _______ _______ _______ _____ _____    ______ ____
ROOT
ATOM      1  C   LIG    1        2.085  -3.403  -0.990  0.00  0.00    +0.510 C 
ATOM      2  N   LIG    1        1.163  -2.523  -0.550  0.00  0.00    -0.610 N 
ATOM      3  C   LIG    1        0.106  -2.036  -1.447  0.00  0.00    +0.270 C 
ATOM      4  C   LIG    1        0.120  -0.504  -1.439  0.00  0.00    +0.030 C 
ATOM      5  C   LIG    1        0.002  -0.004   0.002  0.00  0.00    +0.090 C 
ATOM      6  C   LIG    1        1.198  -0.502   0.816  0.00  0.00    +0.020 C 
ATOM      7  C   LIG    1        1.196  -2.034   0.835  0.00  0.00    +0.270 C 
ATOM      8  O   LIG    1        2.047  -3.800  -2.135  0.00  0.00    -0.530 OA
ENDROOT
BRANCH   5   9
ATOM      9  C   LIG    1       -0.018   1.503   0.010  0.00  0.00    +0.010 A 
ATOM     10  C   LIG    1        1.060   2.309   0.004  0.00  0.00    +0.120 A 
ATOM     11  N   LIG    1        0.593   3.595   0.015  0.00  0.00    -0.570 N 
ATOM     12  H   LIG    1        1.131   4.403   0.014  0.00  0.00    +0.420 HD
ATOM     13  C   LIG    1       -0.755   3.531   0.027  0.00  0.00    +0.400 A 
ATOM     14  N   LIG    1       -1.114   2.276   0.019  0.00  0.00    -0.490 NA
ENDBRANCH   5   9
BRANCH   1  15
ATOM     15  C   LIG    1        3.163  -3.893  -0.058  0.00  0.00    +0.360 C 
BRANCH  15  21
ATOM     16  C   LIG    1        4.424  -7.403  -2.915  0.00  0.00    +0.100 C 
ATOM     17  C   LIG    1        4.963  -6.722  -1.655  0.00  0.00    +0.160 C 
ATOM     18  N   LIG    1        5.752  -5.529  -2.008  0.00  0.00    -0.720 N 
ATOM     19  H   LIG    1        6.562  -5.507  -2.541  0.00  0.00    +0.440 HD
ATOM     20  C   LIG    1        5.131  -4.477  -1.446  0.00  0.00    +0.710 C 
ATOM     21  N   LIG    1        4.033  -4.833  -0.769  0.00  0.00    -0.560 N 
ATOM     22  O   LIG    1        5.522  -3.330  -1.542  0.00  0.00    -0.540 OA
ATOM     23  C   LIG    1        3.829  -6.165  -0.818  0.00  0.00    +0.540 C 
ATOM     24  O   LIG    1        2.926  -6.787  -0.301  0.00  0.00    -0.460 OA
BRANCH  17  25
ATOM     25  C   LIG    1        5.806  -7.701  -0.835  0.00  0.00    -0.030 C 
ATOM     26  C   LIG    1        7.192  -7.235  -0.385  0.00  0.00    +0.030 C 
ATOM     27  C   LIG    1        7.059  -8.280  -1.495  0.00  0.00    +0.040 C 
ENDBRANCH  17  25
ENDBRANCH  15  21
ENDBRANCH   1  15
TORSDOF 4
