REMARK  Name = ZINCkj000005kbjL.0
REMARK                            x       y       z     vdW  Elec       q    Type
REMARK                         _______ _______ _______ _____ _____    ______ ____
ROOT
ATOM      1  C   LIG    1        0.487  -0.561  -5.452  0.00  0.00    +0.140 C 
ATOM      2  C   LIG    1        1.853  -0.462  -4.824  0.00  0.00    +0.190 A 
ATOM      3  C   LIG    1        1.962  -0.285  -3.460  0.00  0.00    -0.080 A 
ATOM      4  C   LIG    1        3.235  -0.189  -2.884  0.00  0.00    -0.050 A 
ATOM      5  C   LIG    1        4.347  -0.287  -3.720  0.00  0.00    -0.030 A 
ATOM      6  C   LIG    1        4.149  -0.470  -5.085  0.00  0.00    +0.420 A 
ATOM      7  N   LIG    1        2.927  -0.550  -5.585  0.00  0.00    -0.530 NA
ENDROOT
BRANCH   4   8
ATOM      8  C   LIG    1        3.396   0.006  -1.424  0.00  0.00    +0.590 C 
ATOM      9  N   LIG    1        2.350   0.415  -0.679  0.00  0.00    -0.620 N 
ATOM     10  C   LIG    1        1.031   0.820  -1.199  0.00  0.00    +0.300 C 
ATOM     11  C   LIG    1        0.442   1.748  -0.107  0.00  0.00    +0.010 C 
ATOM     12  C   LIG    1        0.941   1.058   1.190  0.00  0.00    +0.180 C 
ATOM     13  C   LIG    1        1.008   3.164  -0.227  0.00  0.00    +0.050 C 
ATOM     14  C   LIG    1        2.334   0.529   0.786  0.00  0.00    +0.280 C 
ATOM     15  O   LIG    1        4.471  -0.203  -0.898  0.00  0.00    -0.510 OA
BRANCH  12  16
ATOM     16  N   LIG    1        1.051   2.029   2.286  0.00  0.00    -0.630 N 
ATOM     17  H   LIG    1        1.706   2.753   2.030  0.00  0.00    +0.440 HD
ATOM     18  H   LIG    1        1.377   1.561   3.119  0.00  0.00    +0.440 HD
ATOM     19  H   LIG    1        0.147   2.441   2.463  0.00  0.00    +0.440 HD
ENDBRANCH  12  16
ENDBRANCH   4   8
BRANCH   6  20
ATOM     20  N   LIG    1        5.247  -0.569  -5.932  0.00  0.00    -0.690 N 
ATOM     21  H   LIG    1        5.117  -0.613  -6.892  0.00  0.00    +0.410 HD
BRANCH  20  22
ATOM     22  C   LIG    1        6.601  -0.607  -5.374  0.00  0.00    +0.210 C 
ATOM     23  C   LIG    1        7.678   0.224  -6.075  0.00  0.00    +0.020 C 
ATOM     24  C   LIG    1        7.686  -1.301  -6.200  0.00  0.00    +0.030 C 
ENDBRANCH  20  22
ENDBRANCH   6  20
TORSDOF 4
