REMARK  Name = ZINCpk00001AZiuZ.0
REMARK                            x       y       z     vdW  Elec       q    Type
REMARK                         _______ _______ _______ _____ _____    ______ ____
ROOT
ATOM      1  C   LIG    1       -4.429   1.685  -6.278  0.00  0.00    +0.140 C 
ATOM      2  C   LIG    1       -3.043   1.613  -6.959  0.00  0.00    +0.040 C 
ATOM      3  C   LIG    1       -2.283   0.504  -6.208  0.00  0.00    +0.180 C 
ATOM      4  N   LIG    1       -3.204  -0.037  -5.185  0.00  0.00    -0.500 NA
ATOM      5  C   LIG    1       -4.165   1.056  -4.887  0.00  0.00    +0.190 C 
ENDROOT
BRANCH   1   6
ATOM      6  N   LIG    1       -4.873   3.079  -6.146  0.00  0.00    -0.530 NA
ATOM      7  C   LIG    1       -6.128   3.163  -5.387  0.00  0.00    +0.190 C 
BRANCH   6   8
ATOM      8  C   LIG    1       -5.012   3.714  -7.464  0.00  0.00    +0.340 C 
BRANCH   8  13
ATOM      9  C   LIG    1       -7.230   8.197  -6.851  0.00  0.00    +0.180 C 
ATOM     10  C   LIG    1       -6.187   7.123  -7.024  0.00  0.00    -0.050 A 
ATOM     11  C   LIG    1       -4.856   7.303  -7.071  0.00  0.00    +0.140 A 
ATOM     12  N   LIG    1       -4.286   6.095  -7.229  0.00  0.00    -0.460 NA
ATOM     13  C   LIG    1       -5.226   5.195  -7.287  0.00  0.00    +0.190 A 
ATOM     14  O   LIG    1       -6.413   5.802  -7.160  0.00  0.00    -0.200 OA
ENDBRANCH   8  13
ENDBRANCH   6   8
ENDBRANCH   1   6
BRANCH   4  15
ATOM     15  C   LIG    1       -2.471  -0.438  -3.977  0.00  0.00    +0.210 C 
BRANCH  15  16
ATOM     16  C   LIG    1       -3.447  -0.905  -2.929  0.00  0.00    +0.510 C 
ATOM     17  N   LIG    1       -3.013  -1.206  -1.689  0.00  0.00    -0.720 N 
ATOM     18  H   LIG    1       -2.071  -1.122  -1.471  0.00  0.00    +0.410 HD
ATOM     19  O   LIG    1       -4.625  -1.011  -3.201  0.00  0.00    -0.500 OA
BRANCH  17  20
ATOM     20  C   LIG    1       -3.962  -1.661  -0.670  0.00  0.00    +0.280 C 
ATOM     21  C   LIG    1       -3.224  -1.939   0.651  0.00  0.00    +0.050 C 
ATOM     22  C   LIG    1       -3.445  -3.431   0.975  0.00  0.00    +0.040 C 
ATOM     23  C   LIG    1       -4.744  -3.796   0.213  0.00  0.00    +0.020 C 
ATOM     24  C   LIG    1       -4.605  -2.995  -1.105  0.00  0.00    +0.050 C 
BRANCH  20  25
ATOM     25  C   LIG    1       -5.005  -0.643  -0.462  0.00  0.00    +0.200 C 
ATOM     26  N   LIG    1       -5.809   0.142  -0.300  0.00  0.00    -0.410 NA
ENDBRANCH  20  25
ENDBRANCH  17  20
ENDBRANCH  15  16
ENDBRANCH   4  15
TORSDOF 7
