REMARK  Name = ZINCkj000005lhp4.0
REMARK                            x       y       z     vdW  Elec       q    Type
REMARK                         _______ _______ _______ _____ _____    ______ ____
ROOT
ATOM      1  C   LIG    1       -3.715   5.562  -1.031  0.00  0.00    +0.270 C 
ENDROOT
BRANCH   1   5
ATOM      2  C   LIG    1       -1.208   3.131   0.025  0.00  0.00    +0.010 C 
ATOM      3  C   LIG    1       -0.558   3.683  -1.265  0.00  0.00    +0.090 C 
ATOM      4  C   LIG    1       -1.461   4.892  -1.617  0.00  0.00    +0.270 C 
ATOM      5  N   LIG    1       -2.821   4.417  -1.254  0.00  0.00    -0.390 N 
ATOM      6  H   LIG    1       -3.189   3.825  -1.984  0.00  0.00    +0.430 HD
ATOM      7  C   LIG    1       -2.659   3.646  -0.001  0.00  0.00    +0.290 C 
BRANCH   2  11
ATOM      8  N   LIG    1       -0.011   0.966   0.007  0.00  0.00    -0.840 N 
ATOM      9  H   LIG    1        0.822   1.462   0.002  0.00  0.00    +0.410 HD
ATOM     10  H   LIG    1        0.002  -0.004   0.002  0.00  0.00    +0.420 HD
ATOM     11  C   LIG    1       -1.187   1.624   0.017  0.00  0.00    +0.520 C 
ATOM     12  O   LIG    1       -2.229   1.003   0.018  0.00  0.00    -0.530 OA
ENDBRANCH   2  11
ENDBRANCH   1   5
BRANCH   1  13
ATOM     13  C   LIG    1       -3.927   6.308  -2.350  0.00  0.00    -0.010 C 
ATOM     14  C   LIG    1       -2.610   6.963  -2.826  0.00  0.00    +0.020 C 
ATOM     15  C   LIG    1       -3.025   8.335  -3.390  0.00  0.00    +0.190 C 
ATOM     16  N   LIG    1       -4.495   8.429  -3.265  0.00  0.00    -0.470 N 
ATOM     17  C   LIG    1       -4.866   7.523  -2.148  0.00  0.00    +0.210 C 
BRANCH  16  18
ATOM     18  C   LIG    1       -4.893   9.741  -2.999  0.00  0.00    +0.090 A 
ATOM     19  C   LIG    1       -5.598  10.033  -1.839  0.00  0.00    -0.040 A 
ATOM     20  C   LIG    1       -5.984  11.333  -1.576  0.00  0.00    +0.040 A 
ATOM     21  C   LIG    1       -5.680  12.341  -2.472  0.00  0.00    +0.000 A 
ATOM     22  C   LIG    1       -4.983  12.053  -3.631  0.00  0.00    +0.040 A 
ATOM     23  C   LIG    1       -4.588  10.756  -3.897  0.00  0.00    +0.000 A 
ENDBRANCH  16  18
ENDBRANCH   1  13
TORSDOF 4
