REMARK  Name = ZINCkj000005lhp4.1
REMARK                            x       y       z     vdW  Elec       q    Type
REMARK                         _______ _______ _______ _____ _____    ______ ____
ROOT
ATOM      1  C   LIG    1        3.805  -4.207  -1.691  0.00  0.00    +0.270 C 
ENDROOT
BRANCH   1   5
ATOM      2  C   LIG    1        4.770  -7.220  -3.572  0.00  0.00    +0.000 C 
ATOM      3  C   LIG    1        4.163  -7.792  -2.270  0.00  0.00    +0.090 C 
ATOM      4  C   LIG    1        3.461  -6.598  -1.596  0.00  0.00    +0.270 C 
ATOM      5  N   LIG    1        3.638  -5.431  -2.486  0.00  0.00    -0.390 N 
ATOM      6  H   LIG    1        2.845  -5.340  -3.103  0.00  0.00    +0.430 HD
ATOM      7  C   LIG    1        4.869  -5.702  -3.272  0.00  0.00    +0.300 C 
BRANCH   2  11
ATOM      8  N   LIG    1        6.278  -9.132  -4.006  0.00  0.00    -0.840 N 
ATOM      9  H   LIG    1        7.157  -9.508  -4.168  0.00  0.00    +0.420 HD
ATOM     10  H   LIG    1        5.501  -9.712  -3.973  0.00  0.00    +0.410 HD
ATOM     11  C   LIG    1        6.136  -7.804  -3.825  0.00  0.00    +0.530 C 
ATOM     12  O   LIG    1        7.107  -7.079  -3.866  0.00  0.00    -0.530 OA
ENDBRANCH   2  11
ENDBRANCH   1   5
BRANCH   1  13
ATOM     13  C   LIG    1        2.495  -3.888  -0.967  0.00  0.00    -0.020 C 
ATOM     14  C   LIG    1        1.379  -3.512  -1.976  0.00  0.00    +0.020 C 
ATOM     15  C   LIG    1        0.444  -2.613  -1.141  0.00  0.00    +0.210 C 
ATOM     16  N   LIG    1        1.238  -2.077  -0.021  0.00  0.00    -0.470 N 
ATOM     17  C   LIG    1        2.622  -2.584  -0.140  0.00  0.00    +0.220 C 
BRANCH  16  18
ATOM     18  C   LIG    1        1.215  -0.681  -0.013  0.00  0.00    +0.100 A 
ATOM     19  C   LIG    1        0.061  -0.001  -0.383  0.00  0.00    -0.020 A 
ATOM     20  C   LIG    1        0.042   1.380  -0.374  0.00  0.00    +0.040 A 
ATOM     21  C   LIG    1        1.170   2.086   0.002  0.00  0.00    -0.010 A 
ATOM     22  C   LIG    1        2.321   1.413   0.370  0.00  0.00    +0.040 A 
ATOM     23  C   LIG    1        2.346   0.032   0.364  0.00  0.00    -0.040 A 
ENDBRANCH  16  18
ENDBRANCH   1  13
TORSDOF 4
