REMARK  Name = ZINCrD000000CSQt.0
REMARK                            x       y       z     vdW  Elec       q    Type
REMARK                         _______ _______ _______ _____ _____    ______ ____
ROOT
ATOM      1  O   LIG    1       -6.030  -6.359   0.830  0.00  0.00    -0.520 OA
ATOM      2  C   LIG    1       -6.096  -5.353   1.507  0.00  0.00    +0.650 C 
ATOM      3  N   LIG    1       -6.288  -4.131   0.987  0.00  0.00    -0.730 N 
ATOM      4  H   LIG    1       -6.392  -3.928   0.044  0.00  0.00    +0.430 HD
ATOM      5  C   LIG    1       -6.315  -3.154   2.080  0.00  0.00    +0.120 C 
ATOM      6  C   LIG    1       -6.107  -3.998   3.347  0.00  0.00    +0.270 C 
ATOM      7  C   LIG    1       -5.182  -2.145   1.925  0.00  0.00    +0.040 C 
ATOM      8  C   LIG    1       -5.377  -1.357   0.625  0.00  0.00    +0.270 C 
ATOM      9  N   LIG    1       -6.726  -0.776   0.623  0.00  0.00    -0.610 N 
ATOM     10  C   LIG    1       -7.879  -1.660   0.840  0.00  0.00    +0.280 C 
ATOM     11  C   LIG    1       -6.903   0.547   0.432  0.00  0.00    +0.570 C 
ATOM     12  O   LIG    1       -8.027   1.005   0.356  0.00  0.00    -0.520 OA
ATOM     13  C   LIG    1       -7.666  -2.447   2.133  0.00  0.00    +0.040 C 
ATOM     14  O   LIG    1       -5.983  -5.361   2.841  0.00  0.00    -0.330 OA
ENDROOT
BRANCH  11  15
ATOM     15  C   LIG    1       -5.733   1.438   0.315  0.00  0.00    -0.220 A 
ATOM     16  C   LIG    1       -4.647   1.084  -0.499  0.00  0.00    +0.130 A 
ATOM     17  C   LIG    1       -3.578   1.953  -0.581  0.00  0.00    -0.030 A 
ATOM     18  C   LIG    1       -3.607   3.137   0.150  0.00  0.00    +0.340 A 
ATOM     19  N   LIG    1       -4.647   3.444   0.909  0.00  0.00    -0.530 NA
ATOM     20  C   LIG    1       -5.690   2.647   1.012  0.00  0.00    +0.370 A 
BRANCH  18  21
ATOM     21  O   LIG    1       -2.558   3.991   0.078  0.00  0.00    -0.240 OA
BRANCH  21  22
ATOM     22  C   LIG    1       -2.564   5.079   0.893  0.00  0.00    +0.100 A 
ATOM     23  C   LIG    1       -2.389   4.924   2.260  0.00  0.00    +0.030 A 
ATOM     24  C   LIG    1       -2.401   6.030   3.088  0.00  0.00    +0.040 A 
ATOM     25  C   LIG    1       -2.576   7.293   2.553  0.00  0.00    +0.050 A 
ATOM     26  C   LIG    1       -2.745   7.452   1.188  0.00  0.00    -0.080 A 
ATOM     27 BR   LIG    1       -2.984   9.180   0.461  0.00  0.00    -0.040 Br
ATOM     28  C   LIG    1       -2.739   6.347   0.358  0.00  0.00    +0.050 A 
ENDBRANCH  21  22
ENDBRANCH  18  21
ENDBRANCH  11  15
TORSDOF 3
