REMARK  Name = ZINCrH00000tj1m1.1
REMARK                            x       y       z     vdW  Elec       q    Type
REMARK                         _______ _______ _______ _____ _____    ______ ____
ROOT
ATOM      1  N   LIG    1        5.866   3.797  -0.032  0.00  0.00    -0.640 N 
ATOM      2  H   LIG    1        5.488   4.690  -0.025  0.00  0.00    +0.420 HD
ATOM      3  C   LIG    1        5.054   2.722  -0.030  0.00  0.00    +0.540 C 
ATOM      4  O   LIG    1        5.527   1.605  -0.039  0.00  0.00    -0.490 OA
ENDROOT
BRANCH   1   9
ATOM      5  C   LIG    1       10.389   1.687  -0.083  0.00  0.00    +0.170 C 
ATOM      6  C   LIG    1        9.285   2.712  -0.068  0.00  0.00    +0.100 A 
ATOM      7  N   LIG    1        9.448   4.011  -0.063  0.00  0.00    -0.280 NA
ATOM      8  N   LIG    1        8.184   4.615  -0.055  0.00  0.00    -0.340 N 
ATOM      9  C   LIG    1        7.250   3.626  -0.045  0.00  0.00    +0.310 A 
ATOM     10  C   LIG    1        7.915   2.438  -0.057  0.00  0.00    -0.080 A 
BRANCH   8  11
ATOM     11  C   LIG    1        7.928   5.993  -0.053  0.00  0.00    +0.150 A 
ATOM     12  C   LIG    1        6.830   6.497  -0.737  0.00  0.00    -0.020 A 
ATOM     13  C   LIG    1        6.577   7.855  -0.730  0.00  0.00    +0.050 A 
ATOM     14  C   LIG    1        7.421   8.713  -0.051  0.00  0.00    +0.010 A 
ATOM     15  C   LIG    1        8.519   8.215   0.627  0.00  0.00    +0.050 A 
ATOM     16  C   LIG    1        8.774   6.858   0.628  0.00  0.00    +0.030 A 
ENDBRANCH   8  11
ENDBRANCH   1   9
BRANCH   3  17
ATOM     17  C   LIG    1        3.559   2.907  -0.016  0.00  0.00    +0.130 C 
BRANCH  17  18
ATOM     18  S   LIG    1        2.750   1.288  -0.016  0.00  0.00    +0.110 S 
BRANCH  18  19
ATOM     19  C   LIG    1        1.061   1.789   0.002  0.00  0.00    +0.250 A 
ATOM     20  N   LIG    1        0.624   3.029   0.012  0.00  0.00    -0.530 NA
ATOM     21  C   LIG    1       -0.718   3.034   0.024  0.00  0.00    +0.310 A 
ATOM     22  N   LIG    1       -1.148   1.790   0.017  0.00  0.00    -0.280 NA
ATOM     23  N   LIG    1       -0.011   0.966   0.007  0.00  0.00    -0.460 N 
ATOM     24  H   LIG    1        0.002  -0.004   0.002  0.00  0.00    +0.450 HD
BRANCH  21  25
ATOM     25  C   LIG    1       -1.574   4.239   0.038  0.00  0.00    -0.130 A 
ATOM     26  C   LIG    1       -2.922   4.237   0.044  0.00  0.00    +0.060 A 
ATOM     27  C   LIG    1       -3.501   5.489   0.061  0.00  0.00    +0.010 A 
ATOM     28  C   LIG    1       -2.640   6.511   0.057  0.00  0.00    -0.040 A 
ATOM     29  S   LIG    1       -0.991   5.899   0.040  0.00  0.00    +0.180 S 
ENDBRANCH  21  25
ENDBRANCH  18  19
ENDBRANCH  17  18
ENDBRANCH   3  17
TORSDOF 6
