REMARK  Name = ZINCrH00000tj1m1.0
REMARK                            x       y       z     vdW  Elec       q    Type
REMARK                         _______ _______ _______ _____ _____    ______ ____
ROOT
ATOM      1  N   LIG    1       -1.191   1.867   0.018  0.00  0.00    -0.640 N 
ATOM      2  H   LIG    1       -1.204   2.837   0.023  0.00  0.00    +0.420 HD
ATOM      3  C   LIG    1       -0.014   1.209   0.009  0.00  0.00    +0.540 C 
ATOM      4  O   LIG    1        0.002  -0.004   0.002  0.00  0.00    -0.480 OA
ENDROOT
BRANCH   1   9
ATOM      5  C   LIG    1       -4.482  -1.885   0.015  0.00  0.00    +0.170 C 
ATOM      6  C   LIG    1       -3.884  -0.501   0.018  0.00  0.00    +0.100 A 
ATOM      7  N   LIG    1       -4.556   0.622   0.028  0.00  0.00    -0.280 NA
ATOM      8  N   LIG    1       -3.642   1.684   0.034  0.00  0.00    -0.340 N 
ATOM      9  C   LIG    1       -2.389   1.153   0.020  0.00  0.00    +0.310 A 
ATOM     10  C   LIG    1       -2.519  -0.202   0.013  0.00  0.00    -0.080 A 
BRANCH   8  11
ATOM     11  C   LIG    1       -3.961   3.048   0.050  0.00  0.00    +0.160 A 
ATOM     12  C   LIG    1       -3.159   3.942   0.747  0.00  0.00    -0.020 A 
ATOM     13  C   LIG    1       -3.473   5.287   0.755  0.00  0.00    +0.050 A 
ATOM     14  C   LIG    1       -4.591   5.742   0.081  0.00  0.00    +0.010 A 
ATOM     15  C   LIG    1       -5.395   4.853  -0.609  0.00  0.00    +0.050 A 
ATOM     16  C   LIG    1       -5.083   3.508  -0.627  0.00  0.00    +0.030 A 
ENDBRANCH   8  11
ENDBRANCH   1   9
BRANCH   3  17
ATOM     17  C   LIG    1        1.280   1.980   0.001  0.00  0.00    +0.100 C 
BRANCH  17  18
ATOM     18  S   LIG    1        2.675   0.820  -0.019  0.00  0.00    +0.130 S 
BRANCH  18  19
ATOM     19  C   LIG    1        4.077   1.887  -0.027  0.00  0.00    +0.200 A 
ATOM     20  N   LIG    1        4.036   3.199  -0.019  0.00  0.00    -0.310 NA
ATOM     21  N   LIG    1        5.365   3.652  -0.029  0.00  0.00    -0.470 N 
ATOM     22  H   LIG    1        5.665   4.574  -0.027  0.00  0.00    +0.440 HD
ATOM     23  C   LIG    1        6.146   2.545  -0.043  0.00  0.00    +0.380 A 
ATOM     24  N   LIG    1        5.352   1.490  -0.036  0.00  0.00    -0.500 NA
BRANCH  23  25
ATOM     25  C   LIG    1        7.617   2.522  -0.057  0.00  0.00    -0.160 A 
ATOM     26  C   LIG    1        8.380   1.408  -0.065  0.00  0.00    +0.110 A 
ATOM     27  C   LIG    1        9.738   1.640  -0.084  0.00  0.00    +0.020 A 
ATOM     28  C   LIG    1       10.093   2.930  -0.080  0.00  0.00    +0.000 A 
ATOM     29  S   LIG    1        8.655   3.942  -0.059  0.00  0.00    +0.140 S 
ENDBRANCH  23  25
ENDBRANCH  18  19
ENDBRANCH  17  18
ENDBRANCH   3  17
TORSDOF 6
