REMARK  Name = ZINCvU000000066q.0
REMARK                            x       y       z     vdW  Elec       q    Type
REMARK                         _______ _______ _______ _____ _____    ______ ____
ROOT
ATOM      1  O   LIG    1       -2.014   3.455   0.170  0.00  0.00    -0.530 OA
ATOM      2  C   LIG    1       -2.962   4.181  -0.058  0.00  0.00    +0.560 C 
ATOM      3  N   LIG    1       -4.183   3.649  -0.271  0.00  0.00    -0.610 N 
ATOM      4  C   LIG    1       -4.366   2.192  -0.360  0.00  0.00    +0.310 C 
ATOM      5  C   LIG    1       -5.497   1.789   0.600  0.00  0.00    +0.190 C 
ATOM      6  N   LIG    1       -6.694   2.585   0.298  0.00  0.00    -0.490 N 
ATOM      7  C   LIG    1       -6.456   4.016   0.530  0.00  0.00    +0.190 C 
ATOM      8  C   LIG    1       -5.365   4.510  -0.426  0.00  0.00    +0.300 C 
ENDROOT
BRANCH   6   9
ATOM      9  C   LIG    1       -7.793   2.135   1.034  0.00  0.00    +0.110 A 
ATOM     10  C   LIG    1       -8.494   3.017   1.847  0.00  0.00    +0.000 A 
ATOM     11  C   LIG    1       -9.580   2.568   2.574  0.00  0.00    +0.050 A 
ATOM     12  C   LIG    1       -9.970   1.244   2.492  0.00  0.00    +0.040 A 
ATOM     13  C   LIG    1       -9.274   0.364   1.683  0.00  0.00    -0.160 A 
ATOM     14  C   LIG    1       -8.190   0.807   0.950  0.00  0.00    +0.050 A 
BRANCH  13  15
ATOM     15  C   LIG    1       -9.703  -1.078   1.596  0.00  0.00    +0.510 C 
ATOM     16  F   LIG    1       -8.655  -1.902   2.019  0.00  0.00    -0.180 F 
ATOM     17  F   LIG    1      -10.034  -1.387   0.272  0.00  0.00    -0.170 F 
ATOM     18  F   LIG    1      -10.818  -1.283   2.416  0.00  0.00    -0.180 F 
ENDBRANCH  13  15
ENDBRANCH   6   9
BRANCH   2  19
ATOM     19  C   LIG    1       -2.777   5.647  -0.102  0.00  0.00    -0.120 A 
ATOM     20  C   LIG    1       -3.534   6.422  -0.982  0.00  0.00    +0.040 A 
ATOM     21  C   LIG    1       -3.356   7.790  -1.024  0.00  0.00    +0.030 A 
ATOM     22  C   LIG    1       -2.436   8.397  -0.190  0.00  0.00    +0.040 A 
ATOM     23  C   LIG    1       -1.681   7.635   0.692  0.00  0.00    +0.080 A 
ATOM     24  C   LIG    1       -1.849   6.261   0.739  0.00  0.00    +0.060 A 
BRANCH  23  25
ATOM     25  O   LIG    1       -0.779   8.237   1.510  0.00  0.00    -0.260 OA
BRANCH  25  26
ATOM     26  C   LIG    1        0.536   8.161   1.175  0.00  0.00    +0.120 A 
ATOM     27  C   LIG    1        0.928   7.440   0.056  0.00  0.00    -0.060 A 
ATOM     28  C   LIG    1        2.264   7.370  -0.285  0.00  0.00    +0.050 A 
ATOM     29  C   LIG    1        3.213   8.007   0.493  0.00  0.00    -0.020 A 
ATOM     30  C   LIG    1        2.826   8.721   1.612  0.00  0.00    +0.050 A 
ATOM     31  C   LIG    1        1.490   8.800   1.955  0.00  0.00    -0.010 A 
ENDBRANCH  25  26
ENDBRANCH  23  25
ENDBRANCH   2  19
TORSDOF 5
