REMARK  Name = ZINCrD000000CbtB.0
REMARK                            x       y       z     vdW  Elec       q    Type
REMARK                         _______ _______ _______ _____ _____    ______ ____
ROOT
ATOM      1  O   LIG    1       -3.433  -2.354   0.326  0.00  0.00    -0.490 OA
ATOM      2  C   LIG    1       -2.362  -2.917   0.219  0.00  0.00    +0.580 C 
ATOM      3  N   LIG    1       -2.307  -4.264   0.207  0.00  0.00    -0.630 N 
ATOM      4  H   LIG    1       -1.452  -4.714   0.122  0.00  0.00    +0.420 HD
ENDROOT
BRANCH   2   5
ATOM      5  C   LIG    1       -1.116  -2.124   0.101  0.00  0.00    +0.090 A 
ATOM      6  C   LIG    1       -1.180  -0.736   0.114  0.00  0.00    +0.010 A 
ATOM      7  C   LIG    1        0.002  -0.004   0.002  0.00  0.00    +0.130 A 
ATOM      8  C   LIG    1        1.202  -0.702  -0.123  0.00  0.00    +0.030 A 
ATOM      9  C   LIG    1        1.184  -2.084  -0.122  0.00  0.00    +0.280 A 
ATOM     10  N   LIG    1        0.052  -2.747  -0.015  0.00  0.00    -0.470 NA
BRANCH   7  11
ATOM     11  N   LIG    1       -0.017   1.388   0.010  0.00  0.00    -0.480 N 
ATOM     12  C   LIG    1       -0.763   1.916  -1.161  0.00  0.00    +0.180 C 
ATOM     13  C   LIG    1       -1.131   3.357  -0.725  0.00  0.00    +0.040 C 
ATOM     14  C   LIG    1       -1.446   3.193   0.780  0.00  0.00    +0.020 C 
ATOM     15  C   LIG    1       -0.723   1.902   1.204  0.00  0.00    +0.180 C 
ENDBRANCH   7  11
ENDBRANCH   2   5
BRANCH   3  16
ATOM     16  C   LIG    1       -3.479  -5.010   0.318  0.00  0.00    +0.300 A 
ATOM     17  C   LIG    1       -4.740  -4.514   0.449  0.00  0.00    -0.110 A 
ATOM     18  C   LIG    1       -5.620  -5.596   0.524  0.00  0.00    +0.250 A 
ATOM     19  N   LIG    1       -4.925  -6.702   0.451  0.00  0.00    -0.280 NA
ATOM     20  N   LIG    1       -3.571  -6.365   0.321  0.00  0.00    -0.390 N 
BRANCH  20  21
ATOM     21  C   LIG    1       -2.454  -7.306   0.209  0.00  0.00    +0.330 C 
BRANCH  21  22
ATOM     22  C   LIG    1       -1.927  -7.641   1.605  0.00  0.00    +0.070 C 
BRANCH  22  23
ATOM     23  C   LIG    1       -0.778  -8.609   1.490  0.00  0.00    -0.090 A 
ATOM     24  C   LIG    1       -1.017  -9.971   1.513  0.00  0.00    +0.010 A 
ATOM     25  C   LIG    1        0.037 -10.859   1.402  0.00  0.00    +0.000 A 
ATOM     26  C   LIG    1        1.330 -10.386   1.279  0.00  0.00    +0.000 A 
ATOM     27  C   LIG    1        1.569  -9.024   1.262  0.00  0.00    +0.000 A 
ATOM     28  C   LIG    1        0.515  -8.136   1.367  0.00  0.00    +0.010 A 
ENDBRANCH  22  23
ENDBRANCH  21  22
ENDBRANCH  20  21
ENDBRANCH   3  16
TORSDOF 6
