REMARK  Name = ZINCrD00000l2e4Y.0
REMARK                            x       y       z     vdW  Elec       q    Type
REMARK                         _______ _______ _______ _____ _____    ______ ____
ROOT
ATOM      1  N   LIG    1       -4.135   2.483   2.173  0.00  0.00    -0.710 N 
ATOM      2  H   LIG    1       -4.514   2.771   3.018  0.00  0.00    +0.410 HD
ENDROOT
BRANCH   1  13
ATOM      3  C   LIG    1       -0.227   1.269  -0.540  0.00  0.00    +0.130 C 
ATOM      4  C   LIG    1       -0.826   1.715   0.768  0.00  0.00    +0.200 A 
ATOM      5  N   LIG    1       -0.034   1.928   1.793  0.00  0.00    -0.510 NA
ATOM      6  C   LIG    1       -0.510   2.325   2.978  0.00  0.00    +0.140 A 
ATOM      7  C   LIG    1        0.353   2.550   4.067  0.00  0.00    +0.120 A 
ATOM      8  C   LIG    1       -0.160   2.955   5.264  0.00  0.00    +0.010 A 
ATOM      9  C   LIG    1       -1.529   3.151   5.428  0.00  0.00    +0.040 A 
ATOM     10  C   LIG    1       -2.393   2.944   4.394  0.00  0.00    +0.020 A 
ATOM     11  F   LIG    1        1.684   2.364   3.928  0.00  0.00    -0.120 F 
ATOM     12  C   LIG    1       -1.900   2.526   3.151  0.00  0.00    -0.130 A 
ATOM     13  C   LIG    1       -2.765   2.300   2.053  0.00  0.00    +0.260 A 
ATOM     14  C   LIG    1       -2.200   1.895   0.855  0.00  0.00    -0.100 A 
ENDBRANCH   1  13
BRANCH   1  15
ATOM     15  C   LIG    1       -5.009   2.243   1.022  0.00  0.00    +0.270 C 
ATOM     16  C   LIG    1       -6.290   3.066   1.176  0.00  0.00    +0.050 C 
ATOM     17  C   LIG    1       -7.130   2.449   2.301  0.00  0.00    +0.030 C 
ATOM     18  C   LIG    1       -7.625   1.075   1.846  0.00  0.00    +0.270 C 
ATOM     19  N   LIG    1       -6.516   0.275   1.342  0.00  0.00    -0.540 N 
ATOM     20  C   LIG    1       -5.346   0.781   0.949  0.00  0.00    +0.500 C 
ATOM     21  O   LIG    1       -4.510   0.020   0.509  0.00  0.00    -0.500 OA
BRANCH  19  22
ATOM     22  C   LIG    1       -6.688  -1.107   1.267  0.00  0.00    +0.290 A 
ATOM     23  C   LIG    1       -7.175  -1.800   0.202  0.00  0.00    -0.090 A 
ATOM     24  C   LIG    1       -7.183  -3.156   0.541  0.00  0.00    +0.080 A 
ATOM     25  N   LIG    1       -6.721  -3.278   1.759  0.00  0.00    -0.280 NA
ATOM     26  C   LIG    1       -7.646  -4.284  -0.345  0.00  0.00    +0.160 C 
ATOM     27  N   LIG    1       -6.396  -2.003   2.238  0.00  0.00    -0.370 N 
ATOM     28  C   LIG    1       -5.841  -1.694   3.558  0.00  0.00    +0.350 C 
ENDBRANCH  19  22
ENDBRANCH   1  15
TORSDOF 3
