REMARK  Name = ZINCpk00000eaPCi.0
REMARK                            x       y       z     vdW  Elec       q    Type
REMARK                         _______ _______ _______ _____ _____    ______ ____
ROOT
ATOM      1  N   LIG    1        0.443   4.094  -1.032  0.00  0.00    -0.710 N 
ATOM      2  H   LIG    1        1.215   3.526  -1.182  0.00  0.00    +0.400 HD
ATOM      3  C   LIG    1        0.606   5.418  -0.845  0.00  0.00    +0.590 C 
ATOM      4  O   LIG    1       -0.362   6.130  -0.657  0.00  0.00    -0.540 OA
ENDROOT
BRANCH   3   5
ATOM      5  C   LIG    1        1.955   6.003  -0.869  0.00  0.00    -0.290 A 
ATOM      6  C   LIG    1        2.277   7.344  -0.693  0.00  0.00    +0.360 A 
ATOM      7  N   LIG    1        3.617   7.447  -0.788  0.00  0.00    -0.360 N 
ATOM      8  N   LIG    1        4.144   6.172  -1.025  0.00  0.00    -0.270 NA
ATOM      9  C   LIG    1        4.392   8.684  -0.665  0.00  0.00    +0.360 C 
ATOM     10  C   LIG    1        3.169   5.308  -1.069  0.00  0.00    +0.300 A 
BRANCH   6  11
ATOM     11  N   LIG    1        1.385   8.384  -0.462  0.00  0.00    -0.390 N 
ATOM     12  C   LIG    1        0.213   8.594  -1.135  0.00  0.00    +0.230 A 
ATOM     13  C   LIG    1       -0.374   9.695  -0.624  0.00  0.00    -0.060 A 
ATOM     14  C   LIG    1        0.467  10.191   0.393  0.00  0.00    -0.030 A 
ATOM     15  C   LIG    1        1.535   9.371   0.472  0.00  0.00    +0.120 A 
ENDBRANCH   6  11
ENDBRANCH   3   5
BRANCH   1  16
ATOM     16  C   LIG    1       -0.901   3.510  -1.008  0.00  0.00    +0.270 C 
BRANCH  16  17
ATOM     17  C   LIG    1       -0.798   1.988  -1.118  0.00  0.00    +0.160 C 
ATOM     18  C   LIG    1       -2.190   1.371  -0.970  0.00  0.00    +0.000 C 
BRANCH  17  22
ATOM     19  C   LIG    1        1.677  -1.894   0.623  0.00  0.00    +0.050 C 
ATOM     20  C   LIG    1        1.380  -0.405   0.810  0.00  0.00    +0.160 C 
ATOM     21  C   LIG    1        0.420   0.067  -0.285  0.00  0.00    +0.160 C 
ATOM     22  N   LIG    1        0.079   1.478  -0.055  0.00  0.00    -0.530 NA
ATOM     23  C   LIG    1       -0.538   1.657   1.267  0.00  0.00    +0.160 C 
ATOM     24  C   LIG    1        0.432   1.169   2.347  0.00  0.00    +0.150 C 
ATOM     25  C   LIG    1       -0.234   1.277   3.720  0.00  0.00    +0.050 C 
ATOM     26  O   LIG    1        0.777  -0.195   2.089  0.00  0.00    -0.380 OA
ENDBRANCH  17  22
ENDBRANCH  16  17
ENDBRANCH   1  16
TORSDOF 5
