REMARK  Name = ZINCpk000004ANNj.0
REMARK                            x       y       z     vdW  Elec       q    Type
REMARK                         _______ _______ _______ _____ _____    ______ ____
ROOT
ATOM      1  C   LIG    1       -0.026   1.503   0.016  0.00  0.00    +0.520 C 
ATOM      2  N   LIG    1       -1.204   2.158   0.023  0.00  0.00    -0.730 N 
ATOM      3  H   LIG    1       -2.036   1.660   0.021  0.00  0.00    +0.400 HD
ATOM      4  O   LIG    1        1.015   2.127   0.014  0.00  0.00    -0.530 OA
ENDROOT
BRANCH   1   9
ATOM      5  C   LIG    1        1.196  -3.430   1.928  0.00  0.00    +0.550 C 
ATOM      6  N   LIG    1        0.671  -2.539   1.064  0.00  0.00    -0.610 N 
ATOM      7  C   LIG    1        1.470  -2.021  -0.055  0.00  0.00    +0.270 C 
ATOM      8  C   LIG    1        1.450  -0.490  -0.009  0.00  0.00    +0.050 C 
ATOM      9  C   LIG    1       -0.001  -0.004   0.005  0.00  0.00    -0.010 C 
ATOM     10  C   LIG    1       -0.707  -0.534   1.255  0.00  0.00    +0.030 C 
ATOM     11  C   LIG    1       -0.711  -2.066   1.223  0.00  0.00    +0.280 C 
ATOM     12  O   LIG    1        0.559  -3.779   2.903  0.00  0.00    -0.540 OA
BRANCH   5  14
ATOM     13  C   LIG    1        3.017  -4.934   2.487  0.00  0.00    +0.140 C 
ATOM     14  C   LIG    1        2.539  -3.981   1.691  0.00  0.00    -0.090 C 
ENDBRANCH   5  14
ENDBRANCH   1   9
BRANCH   2  15
ATOM     15  C   LIG    1       -1.227   3.623   0.034  0.00  0.00    +0.230 C 
ATOM     16  C   LIG    1       -1.107   4.124   1.474  0.00  0.00    +0.010 C 
ATOM     17  C   LIG    1       -1.132   5.654   1.486  0.00  0.00    +0.020 C 
ATOM     18  C   LIG    1       -2.448   6.147   0.882  0.00  0.00    +0.250 C 
ATOM     19  C   LIG    1       -2.568   5.646  -0.558  0.00  0.00    +0.020 C 
ATOM     20  C   LIG    1       -2.544   4.116  -0.570  0.00  0.00    +0.020 C 
BRANCH  18  21
ATOM     21  N   LIG    1       -2.472   7.612   0.893  0.00  0.00    -0.620 N 
ATOM     22  C   LIG    1       -3.476   8.419   1.596  0.00  0.00    +0.250 C 
ATOM     23  C   LIG    1       -3.371   9.833   0.984  0.00  0.00    +0.040 C 
ATOM     24  C   LIG    1       -1.910   9.849   0.477  0.00  0.00    +0.040 C 
ATOM     25  C   LIG    1       -1.573   8.390   0.265  0.00  0.00    +0.520 C 
ATOM     26  O   LIG    1       -0.631   7.981  -0.380  0.00  0.00    -0.530 OA
ENDBRANCH  18  21
ENDBRANCH   2  15
TORSDOF 4
