REMARK  Name = ZINCpk00000xI6zc.0
REMARK                            x       y       z     vdW  Elec       q    Type
REMARK                         _______ _______ _______ _____ _____    ______ ____
ROOT
ATOM      1  S   LIG    1        1.994  -2.444  -2.461  0.00  0.00    +2.720 S 
ATOM      2  O   LIG    1        1.469  -3.494  -1.661  0.00  0.00    -0.940 OA
ATOM      3  O   LIG    1        3.318  -2.448  -2.977  0.00  0.00    -0.930 OA
ENDROOT
BRANCH   1   4
ATOM      4  C   LIG    1        0.919  -2.289  -3.848  0.00  0.00    -0.700 A 
ATOM      5  C   LIG    1        1.444  -2.059  -5.103  0.00  0.00    +0.210 A 
ATOM      6  C   LIG    1        0.591  -1.941  -6.202  0.00  0.00    -0.150 A 
ATOM      7  C   LIG    1       -0.790  -2.048  -6.021  0.00  0.00    +0.150 A 
ATOM      8  C   LIG    1       -1.301  -2.273  -4.759  0.00  0.00    +0.000 A 
ATOM      9  C   LIG    1       -0.450  -2.394  -3.675  0.00  0.00    +0.060 A 
ATOM     10  C   LIG    1       -1.016  -2.640  -2.301  0.00  0.00    +0.110 C 
BRANCH   6  11
ATOM     11  C   LIG    1        1.145  -1.700  -7.549  0.00  0.00    +0.510 C 
ATOM     12  O   LIG    1        2.347  -1.607  -7.704  0.00  0.00    -0.500 OA
BRANCH  11  13
ATOM     13  O   LIG    1        0.319  -1.581  -8.607  0.00  0.00    -0.360 OA
ATOM     14  C   LIG    1        0.934  -1.345  -9.901  0.00  0.00    +0.290 C 
ENDBRANCH  11  13
ENDBRANCH   6  11
ENDBRANCH   1   4
BRANCH   1  19
ATOM     15  C   LIG    1        2.898  -0.042  -1.376  0.00  0.00    +0.230 C 
ATOM     16  C   LIG    1        2.527   0.666  -0.049  0.00  0.00    +0.060 C 
ATOM     17  C   LIG    1        0.979   0.700  -0.135  0.00  0.00    +0.040 C 
ATOM     18  C   LIG    1        0.643  -0.633  -0.837  0.00  0.00    +0.260 C 
ATOM     19  N   LIG    1        1.846  -1.056  -1.568  0.00  0.00    -0.990 NA
BRANCH  15  22
ATOM     20  N   LIG    1        5.352  -0.055  -1.680  0.00  0.00    -0.720 N 
ATOM     21  H   LIG    1        5.279   0.835  -2.058  0.00  0.00    +0.400 HD
ATOM     22  C   LIG    1        4.248  -0.702  -1.259  0.00  0.00    +0.510 C 
ATOM     23  O   LIG    1        4.340  -1.815  -0.786  0.00  0.00    -0.520 OA
BRANCH  20  24
ATOM     24  C   LIG    1        6.665  -0.696  -1.567  0.00  0.00    +0.260 C 
BRANCH  24  26
ATOM     25  C   LIG    1        9.111  -0.425  -1.994  0.00  0.00    +0.030 C 
ATOM     26  C   LIG    1        7.741   0.244  -2.112  0.00  0.00    +0.000 C 
ENDBRANCH  24  26
ENDBRANCH  20  24
ENDBRANCH  15  22
ENDBRANCH   1  19
TORSDOF 7
