REMARK  Name = ZINCrg000000oy2C.0
REMARK                            x       y       z     vdW  Elec       q    Type
REMARK                         _______ _______ _______ _____ _____    ______ ____
ROOT
ATOM      1  C   LIG    1        1.694   3.243  -0.023  0.00  0.00    +0.150 A 
ATOM      2  C   LIG    1        0.769   4.274  -0.123  0.00  0.00    +0.010 A 
ATOM      3  C   LIG    1        1.194   5.589  -0.110  0.00  0.00    +0.060 A 
ATOM      4  C   LIG    1        2.539   5.882  -0.007  0.00  0.00    +0.020 A 
ATOM      5  C   LIG    1        3.470   4.855   0.087  0.00  0.00    +0.180 A 
ATOM      6  C   LIG    1        3.046   3.534   0.080  0.00  0.00    -0.020 A 
ENDROOT
BRANCH   1  11
ATOM      7  C   LIG    1        1.188  -0.374  -0.059  0.00  0.00    +0.240 C 
ATOM      8  N   LIG    1       -0.169   0.198  -0.025  0.00  0.00    -0.720 N 
ATOM      9  H   LIG    1       -1.005  -0.293  -0.015  0.00  0.00    +0.440 HD
ATOM     10  C   LIG    1       -0.023   1.536  -0.011  0.00  0.00    +0.700 C 
ATOM     11  N   LIG    1        1.261   1.909  -0.032  0.00  0.00    -0.520 N 
ATOM     12  O   LIG    1       -0.954   2.317   0.017  0.00  0.00    -0.520 OA
ATOM     13  C   LIG    1        2.088   0.846  -0.062  0.00  0.00    +0.520 C 
ATOM     14  O   LIG    1        3.300   0.861  -0.081  0.00  0.00    -0.450 OA
BRANCH   7  16
ATOM     15  C   LIG    1        0.614  -2.511   1.100  0.00  0.00    +0.040 C 
ATOM     16  C   LIG    1        1.443  -1.228   1.184  0.00  0.00    +0.050 C 
ENDBRANCH   7  16
ENDBRANCH   1  11
BRANCH   5  17
ATOM     17  N   LIG    1        4.834   5.152   0.191  0.00  0.00    -0.680 N 
ATOM     18  H   LIG    1        5.490   4.571  -0.225  0.00  0.00    +0.410 HD
ATOM     19  C   LIG    1        5.235   6.246   0.867  0.00  0.00    +0.710 C 
ATOM     20  N   LIG    1        6.537   6.595   0.873  0.00  0.00    -0.740 N 
ATOM     21  H   LIG    1        7.185   6.058   0.390  0.00  0.00    +0.400 HD
ATOM     22  O   LIG    1        4.423   6.919   1.472  0.00  0.00    -0.560 OA
BRANCH  20  23
ATOM     23  CA  LIG    1        6.974   7.784   1.609  0.00  0.00    +0.390 C 
BRANCH  23  24
ATOM     24  C   LIG    1        8.251   8.308   1.004  0.00  0.00    +0.210 A 
ATOM     25  N   LIG    1        8.962   9.299   1.468  0.00  0.00    -0.480 NA
ATOM     26  C   LIG    1       10.029   9.487   0.677  0.00  0.00    +0.150 A 
ATOM     27  C   LIG    1        9.976   8.579  -0.316  0.00  0.00    +0.130 A 
ATOM     28  N   LIG    1        8.852   7.827  -0.106  0.00  0.00    -0.560 N 
ATOM     29  H   LIG    1        8.543   7.088  -0.653  0.00  0.00    +0.410 HD
ENDBRANCH  23  24
BRANCH  23  30
ATOM     30  C   LIG    1        7.217   7.417   3.074  0.00  0.00    +0.200 C 
BRANCH  30  31
ATOM     31  O   LIG    1        8.308   6.497   3.160  0.00  0.00    -0.570 OA
ATOM     32  H   LIG    1        8.518   6.221   4.062  0.00  0.00    +0.380 HD
ENDBRANCH  30  31
ENDBRANCH  23  30
ENDBRANCH  20  23
ENDBRANCH   5  17
TORSDOF 7
