REMARK  Name = ZINCpk000005fkO5.0
REMARK                            x       y       z     vdW  Elec       q    Type
REMARK                         _______ _______ _______ _____ _____    ______ ____
ROOT
ATOM      1  C   LIG    1       -1.339  -4.176  -2.990  0.00  0.00    +0.410 A 
ATOM      2  N   LIG    1       -2.285  -4.110  -3.900  0.00  0.00    -0.350 NA
ATOM      3  N   LIG    1       -1.834  -4.473  -5.046  0.00  0.00    -0.030 NA
ATOM      4  N   LIG    1       -0.588  -4.792  -4.955  0.00  0.00    -0.070 NA
ATOM      5  N   LIG    1       -0.216  -4.605  -3.612  0.00  0.00    -0.370 N 
ENDROOT
BRANCH   1   8
ATOM      6  C   LIG    1       -1.244  -2.135   0.003  0.00  0.00    +0.050 C 
ATOM      7  C   LIG    1       -0.617  -2.690  -1.294  0.00  0.00    +0.220 C 
ATOM      8  N   LIG    1       -1.464  -3.859  -1.649  0.00  0.00    -0.420 N 
ATOM      9  C   LIG    1       -2.848  -3.418  -1.333  0.00  0.00    +0.240 C 
ATOM     10  C   LIG    1       -2.710  -2.615  -0.022  0.00  0.00    +0.020 C 
ATOM     11  C   LIG    1       -2.996  -3.512   1.184  0.00  0.00    +0.060 C 
BRANCH   6  12
ATOM     12  C   LIG    1       -1.185  -0.630   0.010  0.00  0.00    +0.470 C 
ATOM     13  O   LIG    1       -2.208   0.015   0.023  0.00  0.00    -0.490 OA
BRANCH  12  15
ATOM     14  C   LIG    1       -0.018   1.448   0.010  0.00  0.00    +0.270 C 
ATOM     15  O   LIG    1        0.002  -0.004   0.002  0.00  0.00    -0.360 OA
ENDBRANCH  12  15
ENDBRANCH   6  12
ENDBRANCH   1   8
BRANCH   5  16
ATOM     16  C   LIG    1        1.102  -4.829  -3.015  0.00  0.00    +0.390 C 
BRANCH  16  17
ATOM     17  C   LIG    1        1.197  -6.251  -2.526  0.00  0.00    -0.080 A 
ATOM     18  C   LIG    1        1.565  -7.271  -3.405  0.00  0.00    -0.080 A 
ATOM     19  C   LIG    1        1.919  -7.312  -4.826  0.00  0.00    -0.050 A 
ATOM     20  C   LIG    1        2.186  -8.592  -5.128  0.00  0.00    +0.230 A 
ATOM     21  N   LIG    1        2.043  -9.374  -4.013  0.00  0.00    -0.600 N 
ATOM     22  H   LIG    1        2.182 -10.333  -3.984  0.00  0.00    +0.420 HD
ATOM     23  C   LIG    1        1.657  -8.597  -2.943  0.00  0.00    +0.090 A 
ATOM     24  C   LIG    1        1.369  -8.876  -1.612  0.00  0.00    +0.010 A 
ATOM     25  C   LIG    1        1.002  -7.855  -0.762  0.00  0.00    +0.020 A 
ATOM     26  C   LIG    1        0.917  -6.548  -1.222  0.00  0.00    +0.020 A 
ENDBRANCH  16  17
ENDBRANCH   5  16
TORSDOF 5
