REMARK  Name = ZINCnE000008J995.0
REMARK                            x       y       z     vdW  Elec       q    Type
REMARK                         _______ _______ _______ _____ _____    ______ ____
ROOT
ATOM      1  S   LIG    1       -1.903   2.590  -1.404  0.00  0.00    +2.680 S 
ATOM      2  O   LIG    1       -0.832   2.711  -2.329  0.00  0.00    -0.950 OA
ATOM      3  O   LIG    1       -2.767   3.668  -1.070  0.00  0.00    -0.940 OA
ENDROOT
BRANCH   1   4
ATOM      4  C   LIG    1       -2.935   1.293  -2.002  0.00  0.00    -0.690 A 
ATOM      5  C   LIG    1       -2.412   0.329  -2.846  0.00  0.00    +0.100 A 
ATOM      6  C   LIG    1       -3.213  -0.697  -3.316  0.00  0.00    -0.030 A 
ATOM      7  C   LIG    1       -4.543  -0.758  -2.956  0.00  0.00    +0.110 A 
ATOM      8  C   LIG    1       -5.079   0.216  -2.110  0.00  0.00    -0.150 A 
ATOM      9  C   LIG    1       -4.263   1.245  -1.634  0.00  0.00    +0.150 A 
BRANCH   8  10
ATOM     10  C   LIG    1       -6.501   0.157  -1.720  0.00  0.00    +0.520 C 
ATOM     11  O   LIG    1       -7.213  -0.745  -2.139  0.00  0.00    -0.680 OA
ATOM     12  O   LIG    1       -6.968   1.011  -0.979  0.00  0.00    -0.680 OA
ENDBRANCH   8  10
ENDBRANCH   1   4
BRANCH   1  13
ATOM     13  N   LIG    1       -1.235   2.068   0.019  0.00  0.00    -0.950 N 
BRANCH  13  14
ATOM     14  C   LIG    1       -0.017   1.384   0.010  0.00  0.00    +0.150 A 
ATOM     15  C   LIG    1        0.002  -0.004   0.002  0.00  0.00    +0.040 A 
ATOM     16  C   LIG    1        1.208  -0.677  -0.013  0.00  0.00    +0.020 A 
ATOM     17  C   LIG    1        2.397   0.030  -0.020  0.00  0.00    +0.030 A 
ATOM     18  C   LIG    1        2.382   1.413  -0.012  0.00  0.00    +0.030 A 
ATOM     19  C   LIG    1        1.180   2.092   0.002  0.00  0.00    -0.020 A 
ATOM     20 CL   LIG    1        1.162   3.828   0.011  0.00  0.00    -0.060 Cl
ENDBRANCH  13  14
BRANCH  13  21
ATOM     21  C   LIG    1       -1.922   2.323   1.288  0.00  0.00    +0.340 C 
BRANCH  21  23
ATOM     22  C   LIG    1       -2.188   4.558   2.235  0.00  0.00    +0.040 C 
ATOM     23  C   LIG    1       -1.376   3.582   1.910  0.00  0.00    -0.080 C 
ENDBRANCH  21  23
ENDBRANCH  13  21
ENDBRANCH   1  13
TORSDOF 6
