REMARK  Name = ZINCAx0000000b1Y.0
REMARK                            x       y       z     vdW  Elec       q    Type
REMARK                         _______ _______ _______ _____ _____    ______ ____
ROOT
ATOM      1  C   LIG    1        0.739  -6.378   2.461  0.00  0.00    +0.030 A 
ATOM      2  C   LIG    1        0.416  -5.629   3.593  0.00  0.00    +0.030 A 
ATOM      3  C   LIG    1        0.405  -4.254   3.534  0.00  0.00    +0.100 A 
ATOM      4  C   LIG    1        0.717  -3.604   2.336  0.00  0.00    -0.150 A 
ATOM      5  C   LIG    1        0.786  -2.177   1.973  0.00  0.00    +0.570 C 
ATOM      6  N   LIG    1        1.134  -2.040   0.682  0.00  0.00    -0.600 N 
ATOM      7  C   LIG    1        1.314  -3.373   0.097  0.00  0.00    +0.340 C 
ATOM      8  O   LIG    1        0.562  -1.256   2.733  0.00  0.00    -0.520 OA
ATOM      9  C   LIG    1        1.040  -4.360   1.204  0.00  0.00    -0.080 A 
ATOM     10  C   LIG    1        1.051  -5.731   1.264  0.00  0.00    +0.060 A 
ENDROOT
BRANCH   6  11
ATOM     11  C   LIG    1        1.299  -0.768  -0.026  0.00  0.00    +0.290 C 
ATOM     12  C   LIG    1        2.388   0.063   0.661  0.00  0.00    +0.060 C 
ATOM     13  C   LIG    1        2.465   1.430  -0.026  0.00  0.00    +0.100 C 
ATOM     14  C   LIG    1        1.104   2.075   0.003  0.00  0.00    +0.520 C 
ATOM     15  N   LIG    1       -0.016   1.337   0.009  0.00  0.00    -0.670 N 
ATOM     16  H   LIG    1       -0.873   1.792   0.016  0.00  0.00    +0.420 HD
ATOM     17  O   LIG    1        1.020   3.284   0.020  0.00  0.00    -0.500 OA
ATOM     18  C   LIG    1        0.002  -0.004   0.002  0.00  0.00    +0.510 C 
ATOM     19  O   LIG    1       -1.046  -0.613   0.019  0.00  0.00    -0.480 OA
ENDBRANCH   6  11
BRANCH   1  22
ATOM     20  N   LIG    1        0.553  -9.915   3.198  0.00  0.00    -0.290 N 
ATOM     21  C   LIG    1        0.377  -8.634   3.591  0.00  0.00    +0.170 A 
ATOM     22  C   LIG    1        0.749  -7.859   2.530  0.00  0.00    +0.010 A 
ATOM     23  N   LIG    1        1.121  -8.710   1.556  0.00  0.00    -0.250 NA
ATOM     24  N   LIG    1        0.996  -9.915   1.990  0.00  0.00    -0.060 NA
BRANCH  20  25
ATOM     25  C   LIG    1        0.282 -11.104   4.010  0.00  0.00    +0.450 C 
BRANCH  25  28
ATOM     26  C   LIG    1       -2.839 -11.051   4.180  0.00  0.00    +0.200 C 
ATOM     27  C   LIG    1       -2.007 -11.989   3.344  0.00  0.00    -0.010 A 
ATOM     28  C   LIG    1       -0.664 -12.013   3.270  0.00  0.00    -0.040 A 
ATOM     29  N   LIG    1       -0.317 -12.995   2.424  0.00  0.00    -0.440 NA
ATOM     30  C   LIG    1       -1.409 -13.567   1.975  0.00  0.00    +0.240 A 
ATOM     31  O   LIG    1       -2.471 -12.957   2.529  0.00  0.00    -0.190 OA
BRANCH  30  32
ATOM     32  C   LIG    1       -1.463 -14.694   1.018  0.00  0.00    -0.020 A 
ATOM     33  C   LIG    1       -0.283 -15.236   0.508  0.00  0.00    +0.070 A 
ATOM     34  C   LIG    1       -0.340 -16.290  -0.381  0.00  0.00    +0.010 A 
ATOM     35  C   LIG    1       -1.564 -16.802  -0.773  0.00  0.00    +0.030 A 
ATOM     36  C   LIG    1       -2.737 -16.265  -0.275  0.00  0.00    +0.010 A 
ATOM     37  C   LIG    1       -2.694 -15.215   0.618  0.00  0.00    +0.040 A 
ENDBRANCH  30  32
ENDBRANCH  25  28
ENDBRANCH  20  25
ENDBRANCH   1  22
TORSDOF 5
