REMARK  Name = ZINCrg000000sE6r.0
REMARK                            x       y       z     vdW  Elec       q    Type
REMARK                         _______ _______ _______ _____ _____    ______ ____
ROOT
ATOM      1  N   LIG    1        2.155   1.431   1.165  0.00  0.00    -0.510 NA
ATOM      2  C   LIG    1        1.433   1.936  -0.011  0.00  0.00    +0.190 C 
ATOM      3  C   LIG    1        0.005   1.386  -0.005  0.00  0.00    +0.210 C 
ATOM      4  N   LIG    1        0.049  -0.083  -0.009  0.00  0.00    -0.490 N 
ATOM      5  C   LIG    1        0.771  -0.589   1.167  0.00  0.00    +0.210 C 
ATOM      6  C   LIG    1        2.199  -0.038   1.161  0.00  0.00    +0.210 C 
ENDROOT
BRANCH   1  11
ATOM      7  N   LIG    1        4.981   2.657  -0.673  0.00  0.00    -0.520 N 
ATOM      8  C   LIG    1        5.173   4.018  -0.190  0.00  0.00    +0.260 C 
ATOM      9  C   LIG    1        4.806   4.117   1.291  0.00  0.00    +0.030 C 
ATOM     10  C   LIG    1        3.415   3.505   1.492  0.00  0.00    +0.050 C 
ATOM     11  C   LIG    1        3.508   1.998   1.236  0.00  0.00    +0.200 C 
ATOM     12  C   LIG    1        4.223   1.746  -0.060  0.00  0.00    +0.490 C 
ATOM     13  O   LIG    1        4.105   0.655  -0.578  0.00  0.00    -0.530 OA
BRANCH   7  17
ATOM     14  C   LIG    1        7.880   2.733  -4.656  0.00  0.00    +0.360 C 
ATOM     15  N   LIG    1        6.922   2.306  -3.634  0.00  0.00    -0.380 N 
ATOM     16  C   LIG    1        6.524   3.033  -2.558  0.00  0.00    +0.200 A 
ATOM     17  C   LIG    1        5.636   2.279  -1.860  0.00  0.00    -0.010 A 
ATOM     18  C   LIG    1        5.483   1.060  -2.537  0.00  0.00    +0.270 A 
ATOM     19  N   LIG    1        6.251   1.077  -3.595  0.00  0.00    -0.290 NA
ENDBRANCH   7  17
ENDBRANCH   1  11
BRANCH   4  20
ATOM     20  C   LIG    1       -1.226  -0.618  -0.075  0.00  0.00    +0.340 A 
ATOM     21  N   LIG    1       -2.072  -0.428   0.925  0.00  0.00    -0.500 NA
ATOM     22  C   LIG    1       -3.296  -0.919   0.901  0.00  0.00    +0.310 A 
ATOM     23  C   LIG    1       -3.751  -1.659  -0.175  0.00  0.00    -0.020 A 
ATOM     24  C   LIG    1       -2.909  -1.889  -1.249  0.00  0.00    +0.130 A 
ATOM     25  C   LIG    1       -1.617  -1.355  -1.206  0.00  0.00    -0.050 A 
BRANCH  25  26
ATOM     26  C   LIG    1       -0.707  -1.559  -2.294  0.00  0.00    +0.260 C 
ATOM     27  N   LIG    1        0.014  -1.721  -3.156  0.00  0.00    -0.400 NA
ENDBRANCH  25  26
ENDBRANCH   4  20
TORSDOF 4
