REMARK  Name = ZINCpe000000Uydq.0
REMARK                            x       y       z     vdW  Elec       q    Type
REMARK                         _______ _______ _______ _____ _____    ______ ____
ROOT
ATOM      1  C   LIG    1        2.987  -3.873  -2.905  0.00  0.00    +0.520 C 
ATOM      2  N   LIG    1        3.732  -4.959  -3.192  0.00  0.00    -0.600 N 
ATOM      3  O   LIG    1        2.594  -3.154  -3.799  0.00  0.00    -0.510 OA
ENDROOT
BRANCH   2   4
ATOM      4  C   LIG    1        4.172  -5.203  -4.568  0.00  0.00    +0.270 C 
ATOM      5  C   LIG    1        4.993  -4.006  -5.079  0.00  0.00    +0.070 C 
ATOM      6  C   LIG    1        5.147  -4.129  -6.608  0.00  0.00    -0.310 C 
ATOM      7  S   LIG    1        3.674  -5.060  -7.162  0.00  0.00    +2.390 S 
ATOM      8  O   LIG    1        2.828  -4.202  -7.916  0.00  0.00    -0.930 OA
ATOM      9  O   LIG    1        4.082  -6.308  -7.706  0.00  0.00    -0.940 OA
ATOM     10  C   LIG    1        2.942  -5.330  -5.504  0.00  0.00    -0.310 C 
ENDBRANCH   2   4
BRANCH   2  11
ATOM     11  C   LIG    1        4.102  -5.896  -2.128  0.00  0.00    +0.230 C 
ATOM     12  C   LIG    1        5.637  -5.945  -1.978  0.00  0.00    +0.020 C 
ATOM     13  C   LIG    1        5.939  -7.432  -1.663  0.00  0.00    +0.020 C 
ATOM     14  C   LIG    1        4.925  -8.185  -2.560  0.00  0.00    +0.010 C 
ATOM     15  C   LIG    1        3.649  -7.319  -2.497  0.00  0.00    +0.020 C 
ENDBRANCH   2  11
BRANCH   1  16
ATOM     16  C   LIG    1        2.641  -3.554  -1.474  0.00  0.00    +0.220 C 
BRANCH  16  18
ATOM     17  C   LIG    1        0.414  -2.787  -2.035  0.00  0.00    +0.200 C 
ATOM     18  N   LIG    1        1.706  -2.422  -1.437  0.00  0.00    -0.510 NA
BRANCH  18  19
ATOM     19  C   LIG    1        1.530  -1.929  -0.064  0.00  0.00    +0.300 C 
BRANCH  19  20
ATOM     20  C   LIG    1        0.767  -0.629  -0.091  0.00  0.00    +0.210 A 
ATOM     21  N   LIG    1        1.295   0.561  -0.180  0.00  0.00    -0.470 NA
ATOM     22  C   LIG    1        0.318   1.480  -0.176  0.00  0.00    +0.140 A 
ATOM     23  C   LIG    1       -0.860   0.835  -0.082  0.00  0.00    +0.130 A 
ATOM     24  N   LIG    1       -0.576  -0.503  -0.028  0.00  0.00    -0.460 N 
ATOM     25  C   LIG    1       -1.548  -1.594   0.078  0.00  0.00    +0.320 C 
ENDBRANCH  19  20
ENDBRANCH  18  19
ENDBRANCH  16  18
ENDBRANCH   1  16
TORSDOF 6
