REMARK  Name = ZINCrg00000BBu7u.0
REMARK                            x       y       z     vdW  Elec       q    Type
REMARK                         _______ _______ _______ _____ _____    ______ ____
ROOT
ATOM      1  C   LIG    1        9.438  -1.984  -0.170  0.00  0.00    -0.110 A 
ATOM      2  C   LIG    1       10.017  -0.771   0.204  0.00  0.00    +0.050 A 
ATOM      3  C   LIG    1        9.229   0.354   0.346  0.00  0.00    +0.060 A 
ATOM      4  C   LIG    1        7.868   0.284   0.118  0.00  0.00    +0.040 A 
ATOM      5  C   LIG    1        7.282  -0.920  -0.255  0.00  0.00    +0.140 A 
ATOM      6  C   LIG    1        8.063  -2.056  -0.395  0.00  0.00    +0.100 A 
ENDROOT
BRANCH   1  14
ATOM      7  O   LIG    1       12.874  -5.450  -3.213  0.00  0.00    -0.480 OA
ATOM      8  C   LIG    1       12.606  -4.381  -2.708  0.00  0.00    +0.520 C 
ATOM      9  C   LIG    1       12.259  -4.322  -1.242  0.00  0.00    +0.380 C 
ATOM     10  N   LIG    1       11.437  -3.123  -1.008  0.00  0.00    -0.620 N 
ATOM     11  C   LIG    1       11.928  -1.849  -1.557  0.00  0.00    +0.350 C 
ATOM     12  C   LIG    1       12.299  -2.059  -2.999  0.00  0.00    +0.520 C 
ATOM     13  O   LIG    1       12.300  -1.112  -3.756  0.00  0.00    -0.480 OA
ATOM     14  C   LIG    1       10.278  -3.191  -0.322  0.00  0.00    +0.580 C 
ATOM     15  O   LIG    1        9.925  -4.244   0.171  0.00  0.00    -0.500 OA
ATOM     16  N   LIG    1       12.624  -3.273  -3.464  0.00  0.00    -0.670 N 
ATOM     17  H   LIG    1       12.886  -3.355  -4.395  0.00  0.00    +0.420 HD
ENDBRANCH   1  14
BRANCH   5  18
ATOM     18  N   LIG    1        5.901  -0.986  -0.484  0.00  0.00    -0.320 N 
ATOM     19  C   LIG    1        5.024   0.055  -0.480  0.00  0.00    +0.240 A 
ATOM     20  C   LIG    1        3.795  -0.468  -0.745  0.00  0.00    +0.010 A 
ATOM     21  N   LIG    1        3.920  -1.792  -0.916  0.00  0.00    -0.210 NA
ATOM     22  N   LIG    1        5.151  -2.137  -0.769  0.00  0.00    -0.050 NA
BRANCH  20  23
ATOM     23  C   LIG    1        2.528   0.301  -0.836  0.00  0.00    -0.010 A 
ATOM     24  C   LIG    1        1.332  -0.354  -1.121  0.00  0.00    +0.040 A 
ATOM     25  C   LIG    1        0.157   0.366  -1.204  0.00  0.00    +0.010 A 
ATOM     26  C   LIG    1        0.166   1.734  -1.005  0.00  0.00    +0.020 A 
ATOM     27  C   LIG    1        1.351   2.390  -0.722  0.00  0.00    +0.010 A 
ATOM     28  C   LIG    1        2.532   1.680  -0.637  0.00  0.00    +0.010 A 
ENDBRANCH  20  23
ENDBRANCH   5  18
TORSDOF 3
