REMARK  Name = ZINCrD0000075l7G.1
REMARK                            x       y       z     vdW  Elec       q    Type
REMARK                         _______ _______ _______ _____ _____    ______ ____
ROOT
ATOM      1  C   LIG    1       -0.529   4.624  -2.885  0.00  0.00    +0.180 A 
ATOM      2  C   LIG    1       -0.886   5.190  -4.099  0.00  0.00    +0.020 A 
ATOM      3  C   LIG    1       -2.038   4.777  -4.743  0.00  0.00    +0.030 A 
ATOM      4  C   LIG    1       -2.834   3.796  -4.182  0.00  0.00    -0.010 A 
ATOM      5  C   LIG    1       -2.483   3.222  -2.974  0.00  0.00    -0.010 A 
ATOM      6  C   LIG    1       -1.330   3.630  -2.322  0.00  0.00    +0.050 A 
ENDROOT
BRANCH   6   7
ATOM      7  N   LIG    1       -0.973   3.051  -1.099  0.00  0.00    -0.490 N 
ATOM      8  C   LIG    1       -0.775   1.599  -1.241  0.00  0.00    +0.190 C 
ATOM      9  C   LIG    1       -0.043   1.086  -0.001  0.00  0.00    +0.090 C 
ATOM     10  C   LIG    1       -0.740   1.573   1.244  0.00  0.00    -0.070 A 
ATOM     11  C   LIG    1       -0.455   0.945   2.448  0.00  0.00    +0.000 A 
ATOM     12  C   LIG    1       -1.067   1.362   3.613  0.00  0.00    +0.000 A 
ATOM     13  C   LIG    1       -1.967   2.410   3.580  0.00  0.00    +0.000 A 
ATOM     14  C   LIG    1       -2.251   3.035   2.382  0.00  0.00    +0.010 A 
ATOM     15  C   LIG    1       -1.637   2.617   1.210  0.00  0.00    -0.080 A 
ATOM     16  C   LIG    1       -1.982   3.328  -0.072  0.00  0.00    +0.240 C 
ENDBRANCH   6   7
BRANCH   1  18
ATOM     17  C   LIG    1        1.720   5.402  -2.943  0.00  0.00    +0.520 C 
ATOM     18  N   LIG    1        0.635   5.045  -2.228  0.00  0.00    -0.660 N 
ATOM     19  H   LIG    1        0.660   5.079  -1.259  0.00  0.00    +0.420 HD
ATOM     20  O   LIG    1        1.664   5.437  -4.154  0.00  0.00    -0.500 OA
BRANCH  17  21
ATOM     21  C   LIG    1        3.003   5.759  -2.238  0.00  0.00    +0.160 C 
BRANCH  21  24
ATOM     22  C   LIG    1        5.306   5.733  -5.055  0.00  0.00    +0.050 A 
ATOM     23  N   LIG    1        4.394   5.315  -4.244  0.00  0.00    -0.430 NA
ATOM     24  C   LIG    1        4.054   6.119  -3.257  0.00  0.00    +0.080 A 
ATOM     25  C   LIG    1        4.712   7.282  -3.237  0.00  0.00    -0.070 A 
ATOM     26  S   LIG    1        5.838   7.290  -4.592  0.00  0.00    +0.120 S 
BRANCH  22  27
ATOM     27  C   LIG    1        5.827   4.961  -6.240  0.00  0.00    +0.290 C 
BRANCH  27  28
ATOM     28  N   LIG    1        5.022   5.281  -7.426  0.00  0.00    -0.840 NA
ATOM     29  H   LIG    1        5.352   4.775  -8.234  0.00  0.00    +0.350 HD
ATOM     30  H   LIG    1        5.014   6.275  -7.600  0.00  0.00    +0.340 HD
ENDBRANCH  27  28
ENDBRANCH  22  27
ENDBRANCH  21  24
ENDBRANCH  17  21
ENDBRANCH   1  18
TORSDOF 6
