REMARK  Name = ZINCpk00000jUXmQ.0
REMARK                            x       y       z     vdW  Elec       q    Type
REMARK                         _______ _______ _______ _____ _____    ______ ____
ROOT
ATOM      1  C   LIG    1       -1.283   0.817  -2.152  0.00  0.00    +0.360 A 
ATOM      2  N   LIG    1       -1.820   1.630  -3.038  0.00  0.00    -0.470 NA
ATOM      3  C   LIG    1       -1.622   2.898  -2.664  0.00  0.00    +0.320 A 
ATOM      4  N   LIG    1       -0.957   2.910  -1.528  0.00  0.00    -0.240 NA
ATOM      5  N   LIG    1       -0.721   1.571  -1.179  0.00  0.00    -0.360 N 
ENDROOT
BRANCH   1   8
ATOM      6  N   LIG    1       -0.697  -2.642  -1.263  0.00  0.00    -0.330 N 
ATOM      7  N   LIG    1       -0.716  -1.358  -1.258  0.00  0.00    -0.210 NA
ATOM      8  C   LIG    1       -1.292  -0.661  -2.211  0.00  0.00    +0.130 A 
ATOM      9  C   LIG    1       -1.925  -1.321  -3.292  0.00  0.00    +0.130 A 
ATOM     10  C   LIG    1       -1.909  -2.684  -3.315  0.00  0.00    +0.010 A 
ATOM     11  C   LIG    1       -1.268  -3.356  -2.251  0.00  0.00    +0.480 A 
ATOM     12  O   LIG    1       -1.234  -4.575  -2.226  0.00  0.00    -0.510 OA
BRANCH   6  14
ATOM     13  C   LIG    1        1.438  -3.573  -0.515  0.00  0.00    +0.050 C 
ATOM     14  C   LIG    1       -0.035  -3.349  -0.164  0.00  0.00    +0.310 C 
ENDBRANCH   6  14
ENDBRANCH   1   8
BRANCH   3  15
ATOM     15  C   LIG    1       -2.081   4.098  -3.408  0.00  0.00    +0.310 A 
ATOM     16  N   LIG    1       -1.891   5.346  -3.040  0.00  0.00    -0.270 NA
ATOM     17  N   LIG    1       -2.481   6.152  -4.028  0.00  0.00    -0.470 N 
ATOM     18  H   LIG    1       -2.509   7.121  -4.046  0.00  0.00    +0.450 HD
ATOM     19  C   LIG    1       -3.006   5.315  -4.941  0.00  0.00    +0.500 A 
ATOM     20  N   LIG    1       -2.762   4.088  -4.561  0.00  0.00    -0.510 NA
ENDBRANCH   3  15
BRANCH   5  21
ATOM     21  C   LIG    1       -0.013   1.086   0.008  0.00  0.00    +0.280 C 
ATOM     22  C   LIG    1       -0.729   1.579   1.267  0.00  0.00    +0.110 C 
BRANCH  21  23
ATOM     23  C   LIG    1        1.423   1.615  -0.003  0.00  0.00    +0.450 C 
ATOM     24  F   LIG    1        1.404   3.014   0.005  0.00  0.00    -0.160 F 
ATOM     25  F   LIG    1        2.078   1.164  -1.154  0.00  0.00    -0.180 F 
ATOM     26  F   LIG    1        2.099   1.152   1.131  0.00  0.00    -0.170 F 
ENDBRANCH  21  23
ENDBRANCH   5  21
TORSDOF 5
