REMARK  Name = ZINCrg00001Jdv7m.0
REMARK                            x       y       z     vdW  Elec       q    Type
REMARK                         _______ _______ _______ _____ _____    ______ ____
ROOT
ATOM      1  C   LIG    1       -0.311   7.421   2.165  0.00  0.00    +0.340 A 
ATOM      2  N   LIG    1       -1.471   8.072   2.102  0.00  0.00    -0.540 NA
ATOM      3  C   LIG    1       -1.536   9.365   2.349  0.00  0.00    +0.500 A 
ATOM      4  N   LIG    1       -0.466  10.069   2.656  0.00  0.00    -0.540 NA
ATOM      5  C   LIG    1        0.733   9.494   2.734  0.00  0.00    +0.340 A 
ATOM      6  C   LIG    1        0.844   8.129   2.486  0.00  0.00    -0.130 A 
ATOM      7  C   LIG    1        2.179   7.435   2.563  0.00  0.00    +0.140 C 
ENDROOT
BRANCH   1  11
ATOM      8  N   LIG    1       -1.330   3.514   1.231  0.00  0.00    -0.540 NA
ATOM      9  C   LIG    1       -0.518   4.266   0.265  0.00  0.00    +0.190 C 
ATOM     10  C   LIG    1       -0.671   5.765   0.532  0.00  0.00    +0.200 C 
ATOM     11  N   LIG    1       -0.253   6.060   1.909  0.00  0.00    -0.480 N 
ATOM     12  C   LIG    1       -1.065   5.308   2.876  0.00  0.00    +0.200 C 
ATOM     13  C   LIG    1       -0.912   3.808   2.609  0.00  0.00    +0.200 C 
BRANCH   8  14
ATOM     14  C   LIG    1       -1.269   2.071   0.960  0.00  0.00    +0.180 C 
BRANCH  14  15
ATOM     15  C   LIG    1       -1.941   1.776  -0.383  0.00  0.00    +0.180 C 
BRANCH  15  17
ATOM     16  C   LIG    1       -1.831  -0.822  -0.872  0.00  0.00    +0.020 C 
ATOM     17  C   LIG    1       -1.879   0.331  -0.655  0.00  0.00    -0.190 C 
ENDBRANCH  15  17
ENDBRANCH  14  15
ENDBRANCH   8  14
ENDBRANCH   1  11
BRANCH   5  18
ATOM     18  N   LIG    1        1.853  10.243   3.058  0.00  0.00    -0.480 N 
ATOM     19  C   LIG    1        1.721  10.835   4.397  0.00  0.00    +0.200 C 
ATOM     20  C   LIG    1        3.008  11.586   4.748  0.00  0.00    +0.190 C 
ATOM     21  N   LIG    1        3.258  12.624   3.738  0.00  0.00    -0.540 NA
ATOM     22  C   LIG    1        3.389  12.032   2.400  0.00  0.00    +0.200 C 
ATOM     23  C   LIG    1        2.103  11.281   2.049  0.00  0.00    +0.200 C 
BRANCH  21  24
ATOM     24  C   LIG    1        4.445  13.418   4.082  0.00  0.00    +0.180 C 
BRANCH  24  25
ATOM     25  C   LIG    1        4.387  13.809   5.560  0.00  0.00    +0.170 C 
BRANCH  25  26
ATOM     26  C   LIG    1        5.577  14.604   5.904  0.00  0.00    -0.190 C 
ATOM     27  C   LIG    1        6.525  15.239   6.179  0.00  0.00    +0.020 C 
ENDBRANCH  25  26
ENDBRANCH  24  25
ENDBRANCH  21  24
ENDBRANCH   5  18
TORSDOF 8
