REMARK  Name = ZINCrg000000tT4b.0
REMARK                            x       y       z     vdW  Elec       q    Type
REMARK                         _______ _______ _______ _____ _____    ______ ____
ROOT
ATOM      1  O   LIG    1        0.047   4.432  -0.698  0.00  0.00    -0.540 OA
ATOM      2  C   LIG    1       -1.077   4.029  -0.925  0.00  0.00    +0.710 C 
ATOM      3  N   LIG    1       -2.012   4.748  -1.557  0.00  0.00    -0.680 N 
ATOM      4  H   LIG    1       -1.875   5.649  -1.889  0.00  0.00    +0.430 HD
ATOM      5  C   LIG    1       -3.169   4.064  -1.677  0.00  0.00    +0.530 C 
ATOM      6  C   LIG    1       -2.913   2.723  -1.028  0.00  0.00    +0.120 C 
ATOM      7  C   LIG    1       -3.854   2.518   0.154  0.00  0.00    +0.060 C 
ATOM      8  C   LIG    1       -3.529   1.185   0.838  0.00  0.00    +0.290 C 
ATOM      9  N   LIG    1       -3.561   0.117  -0.171  0.00  0.00    -0.610 N 
ATOM     10  C   LIG    1       -2.738   0.259  -1.379  0.00  0.00    +0.300 C 
ATOM     11  C   LIG    1       -4.333  -0.973   0.010  0.00  0.00    +0.570 C 
ATOM     12  O   LIG    1       -4.433  -1.799  -0.876  0.00  0.00    -0.530 OA
ATOM     13  C   LIG    1       -3.069   1.598  -2.046  0.00  0.00    +0.060 C 
ATOM     14  O   LIG    1       -4.195   4.443  -2.198  0.00  0.00    -0.460 OA
ATOM     15  N   LIG    1       -1.521   2.809  -0.567  0.00  0.00    -0.720 N 
ATOM     16  H   LIG    1       -1.020   2.122  -0.101  0.00  0.00    +0.440 HD
ENDROOT
BRANCH  11  17
ATOM     17  C   LIG    1       -5.058  -1.163   1.284  0.00  0.00    -0.110 A 
ATOM     18  C   LIG    1       -4.473  -0.767   2.488  0.00  0.00    +0.010 A 
ATOM     19  C   LIG    1       -5.153  -0.942   3.676  0.00  0.00    +0.040 A 
ATOM     20  C   LIG    1       -6.409  -1.518   3.681  0.00  0.00    +0.010 A 
ATOM     21  C   LIG    1       -6.998  -1.921   2.487  0.00  0.00    +0.160 A 
ATOM     22  C   LIG    1       -6.326  -1.745   1.288  0.00  0.00    +0.080 A 
BRANCH  21  23
ATOM     23  N   LIG    1       -8.270  -2.503   2.497  0.00  0.00    -0.640 N 
ATOM     24  H   LIG    1       -8.544  -3.056   3.245  0.00  0.00    +0.430 HD
BRANCH  23  25
ATOM     25  C   LIG    1       -9.138  -2.289   1.439  0.00  0.00    +0.550 A 
ATOM     26  N   LIG    1       -8.794  -1.438   0.483  0.00  0.00    -0.560 NA
ATOM     27  C   LIG    1       -9.598  -1.214  -0.544  0.00  0.00    +0.360 A 
ATOM     28  C   LIG    1      -10.815  -1.874  -0.606  0.00  0.00    -0.130 A 
ATOM     29  C   LIG    1      -11.145  -2.754   0.413  0.00  0.00    +0.360 A 
ATOM     30  N   LIG    1      -10.294  -2.936   1.409  0.00  0.00    -0.560 NA
ENDBRANCH  23  25
ENDBRANCH  21  23
ENDBRANCH  11  17
TORSDOF 3
