REMARK  Name = ZINCrg000000sur8.0
REMARK                            x       y       z     vdW  Elec       q    Type
REMARK                         _______ _______ _______ _____ _____    ______ ____
ROOT
ATOM      1  C   LIG    1       -7.346   4.940  -1.646  0.00  0.00    +0.520 C 
ATOM      2  N   LIG    1       -8.685   4.866  -1.512  0.00  0.00    -0.610 N 
ATOM      3  C   LIG    1       -9.316   3.660  -0.958  0.00  0.00    +0.270 C 
ATOM      4  C   LIG    1      -10.190   4.075   0.238  0.00  0.00    +0.280 C 
ATOM      5  N   LIG    1      -11.046   5.196  -0.174  0.00  0.00    -1.010 NA
ATOM      6  C   LIG    1      -10.415   6.400  -0.734  0.00  0.00    +0.290 C 
ATOM      7  C   LIG    1       -9.541   5.987  -1.925  0.00  0.00    +0.280 C 
ATOM      8  O   LIG    1       -6.838   5.938  -2.110  0.00  0.00    -0.530 OA
ENDROOT
BRANCH   5   9
ATOM      9  S   LIG    1      -12.691   5.105  -0.010  0.00  0.00    +2.780 S 
ATOM     10  O   LIG    1      -13.163   6.444   0.050  0.00  0.00    -0.970 OA
ATOM     11  O   LIG    1      -12.940   4.147   1.010  0.00  0.00    -0.970 OA
BRANCH   9  12
ATOM     12  N   LIG    1      -13.289   4.461  -1.413  0.00  0.00    -1.010 NA
ATOM     13  C   LIG    1      -13.666   5.342  -2.522  0.00  0.00    +0.290 C 
ATOM     14  C   LIG    1      -13.440   3.010  -1.547  0.00  0.00    +0.300 C 
ENDBRANCH   9  12
ENDBRANCH   5   9
BRANCH   1  15
ATOM     15  C   LIG    1       -6.481   3.782  -1.219  0.00  0.00    +0.050 C 
BRANCH  15  16
ATOM     16  C   LIG    1       -5.012   4.121  -1.475  0.00  0.00    +0.130 C 
BRANCH  16  23
ATOM     17  C   LIG    1       -4.122   1.688  -3.300  0.00  0.00    +0.150 C 
ATOM     18  C   LIG    1       -3.754   1.889  -1.853  0.00  0.00    +0.080 A 
ATOM     19  N   LIG    1       -3.011   1.089  -1.132  0.00  0.00    -0.290 NA
ATOM     20  N   LIG    1       -2.907   1.630   0.156  0.00  0.00    -0.360 N 
ATOM     21  C   LIG    1       -3.618   2.777   0.184  0.00  0.00    +0.090 A 
ATOM     22  C   LIG    1       -3.788   3.688   1.371  0.00  0.00    +0.140 C 
ATOM     23  C   LIG    1       -4.147   2.964  -1.048  0.00  0.00    -0.240 A 
BRANCH  20  24
ATOM     24  C   LIG    1       -2.164   1.050   1.278  0.00  0.00    +0.320 C 
BRANCH  24  25
ATOM     25  C   LIG    1       -0.729   1.579   1.267  0.00  0.00    -0.040 C 
ATOM     26  C   LIG    1        0.011   1.072   2.506  0.00  0.00    +0.030 C 
ATOM     27  C   LIG    1       -0.013   1.086   0.008  0.00  0.00    +0.020 C 
ENDBRANCH  24  25
ENDBRANCH  20  24
ENDBRANCH  16  23
ENDBRANCH  15  16
ENDBRANCH   1  15
TORSDOF 7
