REMARK  Name = ZINCpe000000Y8YW.1
REMARK                            x       y       z     vdW  Elec       q    Type
REMARK                         _______ _______ _______ _____ _____    ______ ____
ROOT
ATOM      1  N   LIG    1       -0.005   3.810   0.022  0.00  0.00    -0.540 N 
ATOM      2  C   LIG    1       -1.183   3.154   0.030  0.00  0.00    +0.550 A 
ATOM      3  C   LIG    1       -1.189   1.738   0.017  0.00  0.00    -0.120 A 
ATOM      4  C   LIG    1       -0.013   1.076   0.008  0.00  0.00    +0.360 A 
ATOM      5  N   LIG    1        1.161   1.779   0.001  0.00  0.00    -0.530 N 
ATOM      6  O   LIG    1       -2.231   3.773   0.043  0.00  0.00    -0.510 OA
ATOM      7  C   LIG    1        1.154   3.125   0.007  0.00  0.00    +0.700 A 
ATOM      8  O   LIG    1        2.208   3.730   0.000  0.00  0.00    -0.530 OA
ENDROOT
BRANCH   1   9
ATOM      9  C   LIG    1        0.015   5.275   0.028  0.00  0.00    +0.380 C 
BRANCH   9  12
ATOM     10  N   LIG    1        0.022   7.109  -1.631  0.00  0.00    -0.630 N 
ATOM     11  H   LIG    1        0.038   7.737  -0.891  0.00  0.00    +0.430 HD
ATOM     12  C   LIG    1        0.007   5.784  -1.391  0.00  0.00    +0.500 C 
ATOM     13  O   LIG    1       -0.012   5.000  -2.316  0.00  0.00    -0.450 OA
BRANCH  10  18
ATOM     14  C   LIG    1        0.008   9.636  -6.300  0.00  0.00    +0.210 C 
ATOM     15  C   LIG    1        0.008   8.723  -5.101  0.00  0.00    +0.010 A 
ATOM     16  N   LIG    1       -0.009   7.428  -5.127  0.00  0.00    -0.230 NA
ATOM     17  N   LIG    1       -0.005   6.841  -4.009  0.00  0.00    -0.270 NA
ATOM     18  C   LIG    1        0.015   7.579  -2.940  0.00  0.00    +0.230 A 
ATOM     19  S   LIG    1        0.025   9.226  -3.410  0.00  0.00    +0.110 S 
ENDBRANCH  10  18
ENDBRANCH   9  12
ENDBRANCH   1   9
BRANCH   5  20
ATOM     20  C   LIG    1        2.438   1.061  -0.016  0.00  0.00    +0.370 C 
BRANCH  20  21
ATOM     21  C   LIG    1        2.862   0.822  -1.442  0.00  0.00    -0.130 A 
ATOM     22  C   LIG    1        2.474  -0.333  -2.094  0.00  0.00    +0.020 A 
ATOM     23  C   LIG    1        2.859  -0.550  -3.404  0.00  0.00    +0.010 A 
ATOM     24  C   LIG    1        3.641   0.384  -4.058  0.00  0.00    +0.010 A 
ATOM     25  C   LIG    1        4.033   1.537  -3.404  0.00  0.00    +0.000 A 
ATOM     26  C   LIG    1        3.643   1.756  -2.096  0.00  0.00    +0.040 A 
ENDBRANCH  20  21
ENDBRANCH   5  20
TORSDOF 5
