REMARK  Name = ZINCrH000004tLuo.0
REMARK                            x       y       z     vdW  Elec       q    Type
REMARK                         _______ _______ _______ _____ _____    ______ ____
ROOT
ATOM      1  O   LIG    1       -1.736   2.269  -1.089  0.00  0.00    -0.510 OA
ATOM      2  C   LIG    1       -0.739   1.590  -1.213  0.00  0.00    +0.500 C 
ATOM      3  N   LIG    1       -0.288   1.272  -2.443  0.00  0.00    -0.650 N 
ATOM      4  H   LIG    1        0.544   0.784  -2.544  0.00  0.00    +0.420 HD
ENDROOT
BRANCH   3   5
ATOM      5  C   LIG    1       -1.020   1.646  -3.573  0.00  0.00    +0.160 A 
ATOM      6  C   LIG    1       -1.717   2.834  -3.587  0.00  0.00    +0.040 A 
ATOM      7  C   LIG    1       -2.447   3.220  -4.707  0.00  0.00    +0.040 A 
ATOM      8  C   LIG    1       -2.500   2.430  -5.816  0.00  0.00    +0.020 A 
ATOM      9  C   LIG    1       -1.807   1.209  -5.838  0.00  0.00    -0.090 A 
ATOM     10  C   LIG    1       -1.842   0.369  -6.968  0.00  0.00    +0.090 A 
ATOM     11  C   LIG    1       -1.145  -0.804  -6.921  0.00  0.00    -0.030 A 
ATOM     12  C   LIG    1       -0.427  -1.141  -5.776  0.00  0.00    +0.290 A 
ATOM     13  N   LIG    1       -0.397  -0.356  -4.725  0.00  0.00    -0.480 NA
ATOM     14  C   LIG    1       -1.056   0.805  -4.707  0.00  0.00    +0.110 A 
ENDBRANCH   3   5
BRANCH   2  15
ATOM     15  C   LIG    1       -0.004   1.100   0.008  0.00  0.00    +0.380 C 
BRANCH  15  16
ATOM     16  N   LIG    1       -0.688   1.576   1.213  0.00  0.00    -0.560 N 
ATOM     17  C   LIG    1       -0.415   2.738   1.834  0.00  0.00    +0.590 C 
ATOM     18  C   LIG    1       -1.308   2.868   3.004  0.00  0.00    -0.120 A 
ATOM     19  C   LIG    1       -1.480   3.827   3.988  0.00  0.00    +0.150 A 
ATOM     20  C   LIG    1       -2.433   3.635   4.978  0.00  0.00    -0.010 A 
ATOM     21  C   LIG    1       -3.212   2.491   4.988  0.00  0.00    -0.010 A 
ATOM     22  C   LIG    1       -3.050   1.522   4.008  0.00  0.00    +0.150 A 
ATOM     23 CL   LIG    1       -4.400   2.267   6.234  0.00  0.00    -0.020 Cl
ATOM     24 CL   LIG    1       -2.650   4.837   6.212  0.00  0.00    -0.020 Cl
ATOM     25  C   LIG    1       -2.102   1.702   3.014  0.00  0.00    -0.120 A 
ATOM     26  O   LIG    1        0.425   3.546   1.490  0.00  0.00    -0.450 OA
ATOM     27  C   LIG    1       -1.667   0.907   1.847  0.00  0.00    +0.580 C 
ATOM     28  O   LIG    1       -2.118  -0.172   1.516  0.00  0.00    -0.450 OA
ENDBRANCH  15  16
ENDBRANCH   2  15
TORSDOF 3
