REMARK  Name = ZINCrg00000SjSBw.0
REMARK                            x       y       z     vdW  Elec       q    Type
REMARK                         _______ _______ _______ _____ _____    ______ ____
ROOT
ATOM      1  C   LIG    1        1.222   2.072  -0.026  0.00  0.00    +0.230 C 
ENDROOT
BRANCH   1   2
ATOM      2  C   LIG    1        0.190   1.000   0.208  0.00  0.00    +0.530 C 
ATOM      3  N   LIG    1       -1.115   1.326   0.282  0.00  0.00    -0.610 N 
ATOM      4  C   LIG    1       -1.567   2.704   0.032  0.00  0.00    +0.240 C 
ATOM      5  C   LIG    1       -2.713   2.654  -0.991  0.00  0.00    +0.220 C 
ATOM      6  O   LIG    1       -3.708   1.733  -0.537  0.00  0.00    -0.380 OA
ATOM      7  C   LIG    1       -3.249   0.384  -0.425  0.00  0.00    +0.220 C 
ATOM      8  C   LIG    1       -2.131   0.316   0.621  0.00  0.00    +0.270 C 
ATOM      9  O   LIG    1        0.534  -0.157   0.325  0.00  0.00    -0.510 OA
ENDBRANCH   1   2
BRANCH   1  10
ATOM     10  C   LIG    1        1.384   2.897   1.225  0.00  0.00    -0.120 A 
ATOM     11  C   LIG    1        2.086   2.389   2.301  0.00  0.00    +0.040 A 
ATOM     12  C   LIG    1        2.238   3.147   3.447  0.00  0.00    +0.010 A 
ATOM     13  C   LIG    1        1.679   4.409   3.520  0.00  0.00    +0.020 A 
ATOM     14  C   LIG    1        0.973   4.915   2.445  0.00  0.00    +0.010 A 
ATOM     15  C   LIG    1        0.825   4.159   1.298  0.00  0.00    +0.020 A 
ENDBRANCH   1  10
BRANCH   1  16
ATOM     16  O   LIG    1        2.492   1.456  -0.367  0.00  0.00    -0.320 OA
BRANCH  16  17
ATOM     17  C   LIG    1        3.310   2.150  -1.174  0.00  0.00    +0.440 C 
ATOM     18  O   LIG    1        2.976   3.236  -1.583  0.00  0.00    -0.490 OA
BRANCH  17  19
ATOM     19  C   LIG    1        4.645   1.573  -1.571  0.00  0.00    +0.410 C 
BRANCH  19  21
ATOM     20  C   LIG    1        5.155   2.442  -3.900  0.00  0.00    +0.320 C 
ATOM     21  N   LIG    1        5.342   2.516  -2.448  0.00  0.00    -0.570 N 
BRANCH  21  22
ATOM     22  C   LIG    1        6.178   3.477  -1.907  0.00  0.00    +0.570 A 
ATOM     23  N   LIG    1        6.332   3.534  -0.592  0.00  0.00    -0.570 NA
ATOM     24  C   LIG    1        7.128   4.436  -0.043  0.00  0.00    +0.360 A 
ATOM     25  C   LIG    1        7.796   5.335  -0.859  0.00  0.00    -0.140 A 
ATOM     26  C   LIG    1        7.608   5.252  -2.230  0.00  0.00    +0.360 A 
ATOM     27  N   LIG    1        6.802   4.322  -2.715  0.00  0.00    -0.560 NA
ENDBRANCH  21  22
ENDBRANCH  19  21
ENDBRANCH  17  19
ENDBRANCH  16  17
ENDBRANCH   1  16
TORSDOF 7
