REMARK  Name = ZINCb70000002ERu.0
REMARK                            x       y       z     vdW  Elec       q    Type
REMARK                         _______ _______ _______ _____ _____    ______ ____
ROOT
ATOM      1  C   LIG    1       -1.413  -2.063   0.004  0.00  0.00    +0.190 C 
ENDROOT
BRANCH   1   2
ATOM      2  C   LIG    1       -2.844  -2.592  -0.110  0.00  0.00    +0.010 C 
ATOM      3  C   LIG    1       -3.666  -2.110   1.088  0.00  0.00    +0.000 C 
ATOM      4  C   LIG    1       -5.073  -2.707   1.006  0.00  0.00    +0.230 C 
ATOM      5  O   LIG    1       -4.982  -4.133   0.970  0.00  0.00    -0.370 OA
ATOM      6  C   LIG    1       -4.264  -4.644  -0.155  0.00  0.00    +0.230 C 
ATOM      7  C   LIG    1       -2.825  -4.124  -0.119  0.00  0.00    -0.010 C 
ENDBRANCH   1   2
BRANCH   1   8
ATOM      8  N   LIG    1       -0.809  -2.552   1.251  0.00  0.00    -0.640 N 
ATOM      9  H   LIG    1       -0.795  -3.561   1.246  0.00  0.00    +0.440 HD
ATOM     10  H   LIG    1       -1.351  -2.227   2.038  0.00  0.00    +0.430 HD
ATOM     11  H   LIG    1        0.135  -2.203   1.327  0.00  0.00    +0.430 HD
ENDBRANCH   1   8
BRANCH   1  12
ATOM     12  C   LIG    1       -1.433  -0.534   0.013  0.00  0.00    +0.070 C 
BRANCH  12  13
ATOM     13  C   LIG    1        0.002  -0.004   0.002  0.00  0.00    +0.160 C 
BRANCH  13  14
ATOM     14  O   LIG    1       -0.017   1.425   0.010  0.00  0.00    -0.560 OA
ATOM     15  H   LIG    1        0.861   1.830   0.004  0.00  0.00    +0.400 HD
ENDBRANCH  13  14
ENDBRANCH  12  13
ENDBRANCH   1  12
TORSDOF 5
