REMARK  Name = ZINCrg00000AaMeh.0
REMARK                            x       y       z     vdW  Elec       q    Type
REMARK                         _______ _______ _______ _____ _____    ______ ____
ROOT
ATOM      1  N   LIG    1       -1.067  -0.773   0.587  0.00  0.00    -0.440 N 
ATOM      2  C   LIG    1       -1.494  -1.993   0.155  0.00  0.00    +0.480 A 
ATOM      3  N   LIG    1       -2.505  -2.390   0.872  0.00  0.00    -0.460 NA
ATOM      4  C   LIG    1       -2.789  -1.453   1.808  0.00  0.00    -0.060 A 
ATOM      5  C   LIG    1       -3.745  -1.336   2.832  0.00  0.00    +0.420 A 
ATOM      6  N   LIG    1       -3.724  -0.249   3.597  0.00  0.00    -0.520 NA
ATOM      7  C   LIG    1       -2.838   0.710   3.398  0.00  0.00    +0.540 A 
ATOM      8  N   LIG    1       -1.928   0.646   2.449  0.00  0.00    -0.540 NA
ATOM      9  C   LIG    1       -1.866  -0.406   1.640  0.00  0.00    +0.290 A 
ENDROOT
BRANCH   5  10
ATOM     10  N   LIG    1       -4.675  -2.337   3.049  0.00  0.00    -0.440 N 
ATOM     11  C   LIG    1       -4.007  -3.625   3.372  0.00  0.00    +0.210 C 
ATOM     12  C   LIG    1       -5.086  -4.446   4.100  0.00  0.00    -0.060 C 
ATOM     13  C   LIG    1       -6.072  -3.415   4.674  0.00  0.00    +0.050 C 
ATOM     14  C   LIG    1       -4.456  -5.260   5.227  0.00  0.00    +0.010 C 
ATOM     15  C   LIG    1       -3.523  -6.316   4.626  0.00  0.00    +0.210 C 
ATOM     16  O   LIG    1       -4.259  -7.132   3.712  0.00  0.00    -0.380 OA
ATOM     17  C   LIG    1       -4.810  -6.420   2.603  0.00  0.00    +0.210 C 
ATOM     18  C   LIG    1       -5.799  -5.368   3.115  0.00  0.00    +0.020 C 
ATOM     19  C   LIG    1       -5.504  -2.043   4.246  0.00  0.00    +0.160 C 
BRANCH  19  20
ATOM     20  C   LIG    1       -6.641  -1.085   3.886  0.00  0.00    +0.190 C 
BRANCH  20  21
ATOM     21  O   LIG    1       -6.097   0.188   3.531  0.00  0.00    -0.550 OA
ATOM     22  H   LIG    1       -6.762   0.847   3.290  0.00  0.00    +0.370 HD
ENDBRANCH  20  21
ENDBRANCH  19  20
ENDBRANCH   5  10
BRANCH   1  23
ATOM     23  C   LIG    1        0.046   0.002   0.033  0.00  0.00    +0.040 C 
ATOM     24  C   LIG    1        0.334  -0.145  -1.463  0.00  0.00    +0.080 C 
ATOM     25  C   LIG    1       -0.297   1.142  -0.928  0.00  0.00    +0.070 C 
BRANCH  23  27
ATOM     26  C   LIG    1        1.347  -0.991   1.920  0.00  0.00    +0.010 C 
ATOM     27  C   LIG    1        1.242   0.200   0.966  0.00  0.00    +0.260 C 
BRANCH  27  28
ATOM     28  O   LIG    1        1.063   1.401   1.721  0.00  0.00    -0.560 OA
ATOM     29  H   LIG    1        0.268   1.404   2.271  0.00  0.00    +0.390 HD
ENDBRANCH  27  28
ENDBRANCH  23  27
ENDBRANCH   1  23
TORSDOF 6
