REMARK  Name = ZINCrD000000fU0R.0
REMARK                            x       y       z     vdW  Elec       q    Type
REMARK                         _______ _______ _______ _____ _____    ______ ____
ROOT
ATOM      1  C   LIG    1       -2.903   6.839  -3.974  0.00  0.00    -0.130 A 
ATOM      2  C   LIG    1       -4.124   6.415  -3.642  0.00  0.00    -0.010 A 
ATOM      3  C   LIG    1       -4.247   5.952  -2.343  0.00  0.00    +0.180 A 
ATOM      4  C   LIG    1       -3.129   6.008  -1.618  0.00  0.00    -0.800 A 
ATOM      5  S   LIG    1       -1.824   6.665  -2.596  0.00  0.00    +0.230 S 
ENDROOT
BRANCH   4   6
ATOM      6  S   LIG    1       -2.981   5.495   0.061  0.00  0.00    +2.720 S 
ATOM      7  O   LIG    1       -1.867   6.195   0.598  0.00  0.00    -0.930 OA
ATOM      8  O   LIG    1       -4.286   5.565   0.619  0.00  0.00    -0.930 OA
BRANCH   6   9
ATOM      9  N   LIG    1       -2.564   3.892   0.049  0.00  0.00    -0.940 N 
ATOM     10  C   LIG    1       -3.514   2.777   0.053  0.00  0.00    +0.300 C 
ATOM     11  C   LIG    1       -2.647   1.508   0.037  0.00  0.00    +0.110 C 
ATOM     12  C   LIG    1       -1.224   2.021   0.019  0.00  0.00    -0.170 A 
ATOM     13  C   LIG    1       -0.016   1.347   0.009  0.00  0.00    +0.140 A 
ATOM     14  C   LIG    1        1.174   2.055   0.002  0.00  0.00    -0.030 A 
ATOM     15  C   LIG    1        1.152   3.437   0.009  0.00  0.00    +0.090 A 
ATOM     16  C   LIG    1       -0.050   4.112   0.025  0.00  0.00    -0.010 A 
ATOM     17  F   LIG    1        0.002  -0.004   0.002  0.00  0.00    -0.130 F 
ATOM     18  C   LIG    1       -1.255   3.407   0.033  0.00  0.00    +0.190 A 
ENDBRANCH   6   9
ENDBRANCH   4   6
BRANCH   1  19
ATOM     19  C   LIG    1       -2.509   7.382  -5.323  0.00  0.00    +0.120 C 
BRANCH  19  20
ATOM     20  C   LIG    1       -2.719   8.898  -5.344  0.00  0.00    +0.270 C 
BRANCH  20  22
ATOM     21  C   LIG    1       -2.438  10.746  -6.906  0.00  0.00    +0.520 C 
ATOM     22  N   LIG    1       -2.336   9.426  -6.655  0.00  0.00    -0.730 N 
ATOM     23  H   LIG    1       -2.010   8.825  -7.344  0.00  0.00    +0.400 HD
ATOM     24  O   LIG    1       -2.846  11.497  -6.046  0.00  0.00    -0.530 OA
BRANCH  21  26
ATOM     25  C   LIG    1       -2.254  12.805  -8.276  0.00  0.00    +0.050 C 
ATOM     26  C   LIG    1       -2.044  11.290  -8.255  0.00  0.00    -0.090 C 
ATOM     27  C   LIG    1       -2.908  10.640  -9.338  0.00  0.00    +0.050 C 
ATOM     28  C   LIG    1       -0.571  10.975  -8.521  0.00  0.00    +0.050 C 
ENDBRANCH  21  26
ENDBRANCH  20  22
ENDBRANCH  19  20
ENDBRANCH   1  19
TORSDOF 6
