REMARK  Name = ZINCbu0000000prJ.0
REMARK                            x       y       z     vdW  Elec       q    Type
REMARK                         _______ _______ _______ _____ _____    ______ ____
ROOT
ATOM      1  C   LIG    1       -1.431   3.954   2.467  0.00  0.00    -0.160 A 
ATOM      2  C   LIG    1       -2.796   4.172   2.445  0.00  0.00    +0.050 A 
ATOM      3  C   LIG    1       -3.445   4.612   3.584  0.00  0.00    +0.050 A 
ATOM      4  C   LIG    1       -2.727   4.846   4.742  0.00  0.00    +0.070 A 
ATOM      5  C   LIG    1       -1.360   4.634   4.762  0.00  0.00    -0.040 A 
ATOM      6 CL   LIG    1       -0.458   4.928   6.216  0.00  0.00    -0.040 Cl
ATOM      7  C   LIG    1       -0.713   4.188   3.624  0.00  0.00    +0.050 A 
ENDROOT
BRANCH   1   8
ATOM      8  C   LIG    1       -0.726   3.468   1.227  0.00  0.00    +0.330 C 
BRANCH   8   9
ATOM      9  N   LIG    1       -0.706   2.000   1.219  0.00  0.00    -0.510 N 
ATOM     10  H   LIG    1       -0.218   1.665   2.037  0.00  0.00    +0.430 HD
ATOM     11  H   LIG    1       -1.653   1.650   1.226  0.00  0.00    +0.430 HD
BRANCH   9  13
ATOM     12  C   LIG    1        0.002  -0.004   0.002  0.00  0.00    +0.080 C 
ATOM     13  C   LIG    1       -0.019   1.526   0.010  0.00  0.00    +0.250 C 
ENDBRANCH   9  13
ENDBRANCH   8   9
ENDBRANCH   1   8
TORSDOF 3
