REMARK  Name = ZINCqH0000005q1M.0
REMARK                            x       y       z     vdW  Elec       q    Type
REMARK                         _______ _______ _______ _____ _____    ______ ____
ROOT
ATOM      1  C   LIG    1        1.006  -2.024   0.685  0.00  0.00    -0.010 A 
ATOM      2  C   LIG    1        2.048  -2.860   0.859  0.00  0.00    -0.020 A 
ATOM      3  C   LIG    1        1.563  -4.169   0.669  0.00  0.00    +0.000 A 
ATOM      4  C   LIG    1        0.240  -4.058   0.378  0.00  0.00    +0.010 A 
ATOM      5  O   LIG    1       -0.084  -2.751   0.391  0.00  0.00    -0.150 OA
ENDROOT
BRANCH   1  18
ATOM      6  C   LIG    1       -1.346  -0.396   0.560  0.00  0.00    +0.250 C 
ATOM      7  N   LIG    1       -0.052   0.053   0.030  0.00  0.00    -0.500 N 
ATOM      8  C   LIG    1        0.007   1.436  -0.029  0.00  0.00    +0.150 A 
ATOM      9  C   LIG    1       -1.148   2.204  -0.009  0.00  0.00    -0.030 A 
ATOM     10  C   LIG    1       -1.060   3.580  -0.070  0.00  0.00    +0.070 A 
ATOM     11  C   LIG    1        0.172   4.207  -0.161  0.00  0.00    -0.030 A 
ATOM     12  C   LIG    1        1.333   3.460  -0.185  0.00  0.00    +0.110 A 
ATOM     13  C   LIG    1        1.258   2.072  -0.116  0.00  0.00    -0.190 A 
ATOM     14  C   LIG    1        2.472   1.232  -0.129  0.00  0.00    +0.580 C 
ATOM     15  N   LIG    1        2.347  -0.048   0.296  0.00  0.00    -0.720 N 
ATOM     16  H   LIG    1        3.109  -0.647   0.269  0.00  0.00    +0.410 HD
ATOM     17  O   LIG    1        3.542   1.672  -0.506  0.00  0.00    -0.510 OA
ATOM     18  C   LIG    1        1.056  -0.522   0.795  0.00  0.00    +0.500 C 
ENDBRANCH   1  18
BRANCH   4  19
ATOM     19  C   LIG    1       -0.683  -5.178   0.095  0.00  0.00    +0.040 A 
ATOM     20  C   LIG    1       -0.214  -6.493   0.108  0.00  0.00    +0.050 A 
ATOM     21  C   LIG    1       -1.082  -7.533  -0.151  0.00  0.00    +0.110 A 
ATOM     22  C   LIG    1       -2.412  -7.275  -0.434  0.00  0.00    -0.040 A 
ATOM     23  C   LIG    1       -2.881  -5.974  -0.453  0.00  0.00    +0.110 A 
ATOM     24  C   LIG    1       -2.026  -4.925  -0.191  0.00  0.00    +0.050 A 
BRANCH  22  25
ATOM     25  N   LIG    1       -3.336  -8.397  -0.717  0.00  0.00    +0.030 N 
ATOM     26  O   LIG    1       -2.925  -9.543  -0.701  0.00  0.00    -0.150 OA
ATOM     27  O   LIG    1       -4.507  -8.172  -0.967  0.00  0.00    -0.150 OA
ENDBRANCH  22  25
ENDBRANCH   4  19
TORSDOF 3
