REMARK  Name = ZINCkj00000y7LRi.0
REMARK                            x       y       z     vdW  Elec       q    Type
REMARK                         _______ _______ _______ _____ _____    ______ ____
ROOT
ATOM      1  N   LIG    1       -0.729   1.958   6.289  0.00  0.00    -0.380 N 
ATOM      2  C   LIG    1       -0.564   3.220   7.042  0.00  0.00    +0.300 C 
ATOM      3  C   LIG    1       -1.053   2.893   8.474  0.00  0.00    +0.200 C 
ATOM      4  C   LIG    1       -0.543   1.439   8.655  0.00  0.00    +0.060 C 
ATOM      5  C   LIG    1       -0.706   0.836   7.244  0.00  0.00    +0.230 C 
ATOM      6  H   LIG    1       -1.611   1.970   5.800  0.00  0.00    +0.430 HD
ENDROOT
BRANCH   5   7
ATOM      7  C   LIG    1        0.455  -0.075   6.938  0.00  0.00    -0.110 A 
ATOM      8  C   LIG    1        1.749   0.358   7.160  0.00  0.00    +0.010 A 
ATOM      9  C   LIG    1        2.816  -0.476   6.880  0.00  0.00    +0.070 A 
ATOM     10  C   LIG    1        2.589  -1.743   6.378  0.00  0.00    +0.030 A 
ATOM     11  C   LIG    1        1.293  -2.178   6.156  0.00  0.00    +0.120 A 
ATOM     12  F   LIG    1        1.071  -3.417   5.666  0.00  0.00    -0.120 F 
ATOM     13  C   LIG    1        0.226  -1.344   6.441  0.00  0.00    +0.020 A 
ENDBRANCH   5   7
BRANCH   3  14
ATOM     14  O   LIG    1       -2.478   2.950   8.554  0.00  0.00    -0.560 OA
ATOM     15  H   LIG    1       -2.837   2.660   9.404  0.00  0.00    +0.400 HD
ENDBRANCH   3  14
BRANCH   1  16
ATOM     16  C   LIG    1        0.370   1.810   5.325  0.00  0.00    +0.230 C 
BRANCH  16  17
ATOM     17  C   LIG    1        0.238   2.873   4.233  0.00  0.00    +0.220 C 
BRANCH  17  18
ATOM     18  O   LIG    1        0.411   4.170   4.807  0.00  0.00    -0.540 OA
ATOM     19  H   LIG    1        1.270   4.301   5.230  0.00  0.00    +0.380 HD
ENDBRANCH  17  18
BRANCH  17  20
ATOM     20  C   LIG    1        1.307   2.641   3.164  0.00  0.00    +0.160 C 
BRANCH  20  21
ATOM     21  O   LIG    1        1.111   3.560   2.087  0.00  0.00    -0.380 OA
BRANCH  21  23
ATOM     22  C   LIG    1        1.759   4.455  -0.062  0.00  0.00    +0.060 C 
ATOM     23  C   LIG    1        2.063   3.428   1.029  0.00  0.00    +0.160 C 
ENDBRANCH  21  23
ENDBRANCH  20  21
ENDBRANCH  17  20
ENDBRANCH  16  17
ENDBRANCH   1  16
TORSDOF 8
