REMARK  Name = ZINCkj00000y7LRi.1
REMARK                            x       y       z     vdW  Elec       q    Type
REMARK                         _______ _______ _______ _____ _____    ______ ____
ROOT
ATOM      1  N   LIG    1       -3.515   3.441   0.931  0.00  0.00    -0.390 N 
ATOM      2  C   LIG    1       -4.846   3.605   0.293  0.00  0.00    +0.290 C 
ATOM      3  C   LIG    1       -4.537   3.451  -1.217  0.00  0.00    +0.190 C 
ATOM      4  C   LIG    1       -3.168   4.155  -1.364  0.00  0.00    +0.060 C 
ATOM      5  C   LIG    1       -2.556   4.142   0.049  0.00  0.00    +0.230 C 
ATOM      6  H   LIG    1       -3.278   2.462   0.995  0.00  0.00    +0.430 HD
ENDROOT
BRANCH   5   7
ATOM      7  C   LIG    1       -1.242   3.405   0.032  0.00  0.00    -0.110 A 
ATOM      8  C   LIG    1       -0.054   4.112   0.024  0.00  0.00    +0.040 A 
ATOM      9  C   LIG    1        1.153   3.438   0.009  0.00  0.00    +0.080 A 
ATOM     10  C   LIG    1        1.173   2.056   0.002  0.00  0.00    +0.020 A 
ATOM     11  C   LIG    1       -0.016   1.347   0.009  0.00  0.00    +0.120 A 
ATOM     12  F   LIG    1        0.002  -0.004   0.002  0.00  0.00    -0.120 F 
ATOM     13  C   LIG    1       -1.224   2.023   0.019  0.00  0.00    -0.030 A 
ENDBRANCH   5   7
BRANCH   3  14
ATOM     14  O   LIG    1       -5.530   4.105  -2.010  0.00  0.00    -0.540 OA
ATOM     15  H   LIG    1       -5.341   4.102  -2.958  0.00  0.00    +0.410 HD
ENDBRANCH   3  14
BRANCH   1  16
ATOM     16  C   LIG    1       -3.515   4.052   2.267  0.00  0.00    +0.250 C 
BRANCH  16  17
ATOM     17  C   LIG    1       -4.416   3.241   3.199  0.00  0.00    +0.220 C 
BRANCH  17  18
ATOM     18  O   LIG    1       -3.862   1.936   3.380  0.00  0.00    -0.540 OA
ATOM     19  H   LIG    1       -2.976   1.935   3.768  0.00  0.00    +0.390 HD
ENDBRANCH  17  18
BRANCH  17  20
ATOM     20  C   LIG    1       -4.515   3.946   4.554  0.00  0.00    +0.160 C 
BRANCH  20  21
ATOM     21  O   LIG    1       -5.447   3.251   5.385  0.00  0.00    -0.380 OA
BRANCH  21  23
ATOM     22  C   LIG    1       -6.630   3.010   7.479  0.00  0.00    +0.060 C 
ATOM     23  C   LIG    1       -5.615   3.831   6.680  0.00  0.00    +0.160 C 
ENDBRANCH  21  23
ENDBRANCH  20  21
ENDBRANCH  17  20
ENDBRANCH  16  17
ENDBRANCH   1  16
TORSDOF 8
