REMARK  Name = ZINCpe000000UUUj.0
REMARK                            x       y       z     vdW  Elec       q    Type
REMARK                         _______ _______ _______ _____ _____    ______ ____
ROOT
ATOM      1  C   LIG    1        5.879   2.527  -0.020  0.00  0.00    +0.020 A 
ATOM      2  N   LIG    1        5.613   3.735   0.426  0.00  0.00    -0.170 NA
ATOM      3  N   LIG    1        6.521   4.633   0.557  0.00  0.00    -0.290 N 
ATOM      4  C   LIG    1        7.806   4.394   0.234  0.00  0.00    +0.480 A 
ATOM      5  C   LIG    1        8.176   3.124  -0.259  0.00  0.00    +0.000 A 
ATOM      6  O   LIG    1        8.645   5.271   0.365  0.00  0.00    -0.500 OA
ATOM      7  C   LIG    1        7.201   2.180  -0.388  0.00  0.00    +0.140 A 
ENDROOT
BRANCH   3   8
ATOM      8  C   LIG    1        6.165   5.895   1.045  0.00  0.00    +0.080 A 
ATOM      9  C   LIG    1        5.875   6.926   0.161  0.00  0.00    +0.080 A 
ATOM     10  C   LIG    1        5.524   8.171   0.645  0.00  0.00    +0.020 A 
ATOM     11  C   LIG    1        5.461   8.393   2.009  0.00  0.00    +0.080 A 
ATOM     12  C   LIG    1        5.749   7.370   2.893  0.00  0.00    +0.000 A 
ATOM     13  C   LIG    1        6.096   6.119   2.416  0.00  0.00    +0.130 A 
ATOM     14  F   LIG    1        6.372   5.118   3.280  0.00  0.00    -0.130 F 
ENDBRANCH   3   8
BRANCH   1  17
ATOM     15  N   LIG    1        3.534   1.861   0.204  0.00  0.00    -0.700 N 
ATOM     16  H   LIG    1        3.340   2.751   0.537  0.00  0.00    +0.420 HD
ATOM     17  C   LIG    1        4.793   1.532  -0.145  0.00  0.00    +0.600 C 
ATOM     18  O   LIG    1        5.037   0.416  -0.562  0.00  0.00    -0.510 OA
BRANCH  15  19
ATOM     19  C   LIG    1        2.458   0.874   0.081  0.00  0.00    +0.240 C 
BRANCH  19  23
ATOM     20  C   LIG    1       -1.185   1.642  -0.807  0.00  0.00    +0.290 C 
ATOM     21  N   LIG    1        0.127   0.993  -0.739  0.00  0.00    -0.730 N 
ATOM     22  H   LIG    1        0.269   0.138  -1.175  0.00  0.00    +0.410 HD
ATOM     23  C   LIG    1        1.139   1.586  -0.075  0.00  0.00    +0.510 C 
ATOM     24  O   LIG    1        0.988   2.693   0.398  0.00  0.00    -0.530 OA
ENDBRANCH  19  23
BRANCH  19  25
ATOM     25  C   LIG    1        2.421   0.000   1.336  0.00  0.00    -0.020 C 
ATOM     26  C   LIG    1        3.777  -0.683   1.522  0.00  0.00    +0.040 C 
ATOM     27  C   LIG    1        1.331  -1.063   1.185  0.00  0.00    +0.040 C 
ENDBRANCH  19  25
ENDBRANCH  15  19
ENDBRANCH   1  17
TORSDOF 5
