REMARK  Name = ZINCpk00000eb9SW.0
REMARK                            x       y       z     vdW  Elec       q    Type
REMARK                         _______ _______ _______ _____ _____    ______ ____
ROOT
ATOM      1  N   LIG    1       -0.104   1.102  -6.250  0.00  0.00    -0.700 N 
ATOM      2  H   LIG    1       -0.119   2.063  -6.380  0.00  0.00    +0.410 HD
ENDROOT
BRANCH   1   6
ATOM      3  C   LIG    1       -0.028  -0.356  -2.436  0.00  0.00    +0.240 A 
ATOM      4  C   LIG    1       -0.031  -1.286  -3.475  0.00  0.00    +0.070 A 
ATOM      5  C   LIG    1       -0.056  -0.808  -4.774  0.00  0.00    +0.030 A 
ATOM      6  C   LIG    1       -0.077   0.574  -4.963  0.00  0.00    +0.340 A 
ATOM      7  N   LIG    1       -0.073   1.381  -3.914  0.00  0.00    -0.280 NA
ATOM      8  N   LIG    1       -0.055   0.937  -2.709  0.00  0.00    -0.210 NA
BRANCH   3  14
ATOM      9  C   LIG    1       -0.018   1.503   0.010  0.00  0.00    +0.190 C 
ATOM     10  C   LIG    1        0.002  -0.004   0.002  0.00  0.00    +0.240 A 
ATOM     11  N   LIG    1        0.022  -0.772   1.057  0.00  0.00    -0.490 NA
ATOM     12  C   LIG    1        0.035  -2.057   0.672  0.00  0.00    +0.170 A 
ATOM     13  C   LIG    1        0.023  -2.093  -0.673  0.00  0.00    +0.120 A 
ATOM     14  N   LIG    1       -0.003  -0.791  -1.105  0.00  0.00    -0.400 N 
ENDBRANCH   3  14
ENDBRANCH   1   6
BRANCH   1  15
ATOM     15  C   LIG    1       -0.109   0.206  -7.410  0.00  0.00    +0.260 C 
ATOM     16  C   LIG    1        0.477   0.924  -8.651  0.00  0.00    +0.050 C 
ATOM     17  C   LIG    1       -0.143   0.130  -9.828  0.00  0.00    +0.000 C 
ATOM     18  C   LIG    1       -1.577  -0.187  -9.357  0.00  0.00    +0.000 C 
ATOM     19  C   LIG    1       -1.555  -0.139  -7.819  0.00  0.00    +0.150 C 
BRANCH  19  20
ATOM     20  O   LIG    1       -1.925  -1.411  -7.284  0.00  0.00    -0.560 OA
ATOM     21  H   LIG    1       -2.825  -1.685  -7.507  0.00  0.00    +0.380 HD
ENDBRANCH  19  20
BRANCH  17  22
ATOM     22  C   LIG    1       -0.173   0.988 -11.095  0.00  0.00    +0.330 C 
BRANCH  22  23
ATOM     23  N   LIG    1       -0.652   0.180 -12.220  0.00  0.00    -0.370 N 
ATOM     24  C   LIG    1       -1.696   0.475 -13.022  0.00  0.00    +0.220 A 
ATOM     25  C   LIG    1       -1.807  -0.516 -13.936  0.00  0.00    -0.120 A 
ATOM     26  C   LIG    1       -0.803  -1.455 -13.678  0.00  0.00    +0.230 A 
ATOM     27  N   LIG    1       -0.110  -1.038 -12.649  0.00  0.00    -0.290 NA
ENDBRANCH  22  23
ENDBRANCH  17  22
ENDBRANCH   1  15
TORSDOF 6
