REMARK  Name = ZINCtV00000L6ld1.0
REMARK                            x       y       z     vdW  Elec       q    Type
REMARK                         _______ _______ _______ _____ _____    ______ ____
ROOT
ATOM      1  C   LIG    1        3.823   2.232   0.004  0.00  0.00    +0.060 C 
ENDROOT
BRANCH   1   2
ATOM      2  C   LIG    1        2.449   1.624   0.120  0.00  0.00    -0.100 A 
ATOM      3  C   LIG    1        1.339   2.441   0.224  0.00  0.00    +0.030 A 
ATOM      4  C   LIG    1        0.078   1.884   0.330  0.00  0.00    +0.010 A 
ATOM      5  C   LIG    1       -0.072   0.510   0.333  0.00  0.00    +0.020 A 
ATOM      6  C   LIG    1        1.038  -0.307   0.230  0.00  0.00    +0.010 A 
ATOM      7  C   LIG    1        2.299   0.250   0.124  0.00  0.00    +0.060 A 
ENDBRANCH   1   2
BRANCH   1   8
ATOM      8  C   LIG    1        3.890   3.093  -1.231  0.00  0.00    +0.550 C 
ATOM      9  N   LIG    1        4.076   2.525  -2.439  0.00  0.00    -0.660 N 
ATOM     10  H   LIG    1        4.244   1.571  -2.506  0.00  0.00    +0.420 HD
ATOM     11  O   LIG    1        3.776   4.296  -1.138  0.00  0.00    -0.490 OA
BRANCH   9  12
ATOM     12  C   LIG    1        4.028   3.310  -3.597  0.00  0.00    +0.150 A 
ATOM     13  C   LIG    1        3.173   4.402  -3.661  0.00  0.00    +0.070 A 
ATOM     14  C   LIG    1        3.131   5.178  -4.803  0.00  0.00    +0.060 A 
ATOM     15  C   LIG    1        3.933   4.863  -5.885  0.00  0.00    -0.010 A 
ATOM     16  C   LIG    1        4.782   3.771  -5.826  0.00  0.00    -0.160 A 
ATOM     17 CL   LIG    1        3.873   5.837  -7.321  0.00  0.00    -0.040 Cl
ATOM     18  C   LIG    1        4.831   2.995  -4.685  0.00  0.00    +0.060 A 
BRANCH  16  19
ATOM     19  C   LIG    1        5.654   3.431  -7.007  0.00  0.00    +0.510 C 
ATOM     20  F   LIG    1        6.504   4.506  -7.285  0.00  0.00    -0.170 F 
ATOM     21  F   LIG    1        4.849   3.172  -8.121  0.00  0.00    -0.170 F 
ATOM     22  F   LIG    1        6.418   2.297  -6.710  0.00  0.00    -0.170 F 
ENDBRANCH  16  19
ENDBRANCH   9  12
ENDBRANCH   1   8
BRANCH   1  23
ATOM     23  S   LIG    1        4.160   3.248   1.468  0.00  0.00    +0.110 S 
BRANCH  23  27
ATOM     24  C   LIG    1        4.305   0.724   4.878  0.00  0.00    +0.020 A 
ATOM     25  N   LIG    1        4.066   0.050   3.796  0.00  0.00    -0.280 NA
ATOM     26  N   LIG    1        3.996   0.791   2.637  0.00  0.00    -0.270 NA
ATOM     27  C   LIG    1        4.187   2.066   2.774  0.00  0.00    +0.010 A 
ATOM     28  S   LIG    1        4.471   2.429   4.473  0.00  0.00    +0.150 S 
BRANCH  24  30
ATOM     29  C   LIG    1        4.170  -1.731   6.216  0.00  0.00    +0.150 C 
ATOM     30  S   LIG    1        4.441   0.041   6.497  0.00  0.00    +0.030 S 
ENDBRANCH  24  30
ENDBRANCH  23  27
ENDBRANCH   1  23
TORSDOF 7
