REMARK  Name = ZINCrg000000nNrx.0
REMARK                            x       y       z     vdW  Elec       q    Type
REMARK                         _______ _______ _______ _____ _____    ______ ____
ROOT
ATOM      1  N   LIG    1       -2.883   2.946   1.699  0.00  0.00    -0.590 N 
ATOM      2  C   LIG    1       -1.727   2.301   1.444  0.00  0.00    +0.510 C 
ATOM      3  O   LIG    1       -1.035   1.912   2.360  0.00  0.00    -0.520 OA
ENDROOT
BRANCH   1   5
ATOM      4  C   LIG    1       -4.714   2.320   0.203  0.00  0.00    +0.010 C 
ATOM      5  C   LIG    1       -3.720   3.416   0.592  0.00  0.00    +0.270 C 
ENDBRANCH   1   5
BRANCH   2   6
ATOM      6  C   LIG    1       -1.295   2.064   0.019  0.00  0.00    +0.370 C 
BRANCH   6   7
ATOM      7  N   LIG    1       -0.016   1.350   0.009  0.00  0.00    -0.440 N 
ATOM      8  N   LIG    1        1.183   2.067   0.002  0.00  0.00    +0.100 NA
ATOM      9  N   LIG    1        2.335   1.501  -0.013  0.00  0.00    -0.190 NA
ATOM     10  C   LIG    1        2.472   0.151  -0.021  0.00  0.00    +0.060 A 
ATOM     11  C   LIG    1        3.732  -0.451  -0.036  0.00  0.00    +0.080 A 
ATOM     12  C   LIG    1        3.833  -1.824  -0.045  0.00  0.00    +0.060 A 
ATOM     13  C   LIG    1        2.696  -2.621  -0.039  0.00  0.00    +0.040 A 
ATOM     14  C   LIG    1        1.441  -2.050  -0.023  0.00  0.00    +0.100 A 
ATOM     15  C   LIG    1        1.317  -0.662  -0.014  0.00  0.00    -0.150 A 
ATOM     16  C   LIG    1        0.002  -0.004   0.002  0.00  0.00    +0.540 A 
ATOM     17  O   LIG    1       -1.029  -0.651   0.008  0.00  0.00    -0.500 OA
ENDBRANCH   6   7
ENDBRANCH   2   6
BRANCH   1  18
ATOM     18  C   LIG    1       -3.303   3.176   3.083  0.00  0.00    +0.330 C 
BRANCH  18  19
ATOM     19  C   LIG    1       -2.754   4.496   3.562  0.00  0.00    +0.500 C 
ATOM     20  N   LIG    1       -3.014   4.919   4.814  0.00  0.00    -0.730 N 
ATOM     21  H   LIG    1       -3.554   4.375   5.408  0.00  0.00    +0.400 HD
ATOM     22  O   LIG    1       -2.079   5.177   2.819  0.00  0.00    -0.520 OA
BRANCH  20  23
ATOM     23  C   LIG    1       -2.480   6.202   5.279  0.00  0.00    +0.370 C 
BRANCH  23  24
ATOM     24  C   LIG    1       -2.912   6.439   6.703  0.00  0.00    -0.210 A 
ATOM     25  C   LIG    1       -2.234   6.058   7.787  0.00  0.00    +0.030 A 
ATOM     26  C   LIG    1       -2.827   6.386   8.993  0.00  0.00    +0.000 A 
ATOM     27  C   LIG    1       -3.988   7.035   8.889  0.00  0.00    -0.030 A 
ATOM     28  S   LIG    1       -4.384   7.269   7.192  0.00  0.00    +0.120 S 
ENDBRANCH  23  24
ENDBRANCH  20  23
ENDBRANCH  18  19
ENDBRANCH   1  18
TORSDOF 7
