REMARK  Name = ZINCrg000000mWum.0
REMARK                            x       y       z     vdW  Elec       q    Type
REMARK                         _______ _______ _______ _____ _____    ______ ____
ROOT
ATOM      1  N   LIG    1       -2.420   1.041   0.019  0.00  0.00    -0.920 N 
ENDROOT
BRANCH   1   5
ATOM      2  C   LIG    1        1.141   3.175   0.008  0.00  0.00    -0.200 A 
ATOM      3  C   LIG    1        1.161   1.774   0.001  0.00  0.00    +0.120 A 
ATOM      4  C   LIG    1       -0.013   1.076   0.008  0.00  0.00    -0.040 A 
ATOM      5  C   LIG    1       -1.229   1.755   0.017  0.00  0.00    +0.210 A 
ATOM      6  C   LIG    1       -1.254   3.148   0.031  0.00  0.00    -0.020 A 
ATOM      7  C   LIG    1       -0.085   3.853   0.024  0.00  0.00    +0.100 A 
BRANCH   2   9
ATOM      8  C   LIG    1        2.376   5.435   0.009  0.00  0.00    +0.080 C 
ATOM      9  C   LIG    1        2.400   3.929   0.001  0.00  0.00    +0.400 C 
ATOM     10  O   LIG    1        3.460   3.339  -0.012  0.00  0.00    -0.460 OA
ENDBRANCH   2   9
ENDBRANCH   1   5
BRANCH   1  11
ATOM     11  S   LIG    1       -2.466  -0.496  -0.595  0.00  0.00    +2.590 S 
ATOM     12  O   LIG    1       -1.404  -0.528  -1.538  0.00  0.00    -0.930 OA
ATOM     13  O   LIG    1       -3.815  -0.670  -1.005  0.00  0.00    -0.930 OA
ATOM     14  C   LIG    1       -2.089  -1.562   0.824  0.00  0.00    -0.260 C 
ENDBRANCH   1  11
BRANCH   1  15
ATOM     15  C   LIG    1       -3.637   1.648   0.565  0.00  0.00    +0.330 C 
BRANCH  15  16
ATOM     16  C   LIG    1       -4.304   2.480  -0.501  0.00  0.00    +0.500 C 
ATOM     17  N   LIG    1       -5.448   3.137  -0.225  0.00  0.00    -0.610 N 
ATOM     18  C   LIG    1       -6.059   3.047   1.109  0.00  0.00    +0.290 C 
ATOM     19  C   LIG    1       -7.514   2.605   0.961  0.00  0.00    +0.040 C 
ATOM     20  C   LIG    1       -8.235   3.548  -0.004  0.00  0.00    +0.260 C 
ATOM     21  O   LIG    1       -9.610   3.160  -0.121  0.00  0.00    -0.380 OA
ATOM     22  C   LIG    1      -10.409   4.281   0.305  0.00  0.00    +0.200 C 
ATOM     23  C   LIG    1       -9.444   5.482   0.141  0.00  0.00    +0.210 C 
ATOM     24  C   LIG    1       -7.567   3.496  -1.380  0.00  0.00    +0.020 C 
ATOM     25  O   LIG    1       -8.174   4.891   0.505  0.00  0.00    -0.370 OA
ATOM     26  C   LIG    1       -6.110   3.951  -1.253  0.00  0.00    +0.300 C 
ATOM     27  O   LIG    1       -3.812   2.557  -1.606  0.00  0.00    -0.510 OA
ENDBRANCH  15  16
ENDBRANCH   1  15
TORSDOF 5
