REMARK  Name = ZINCpk00001AZj3z.0
REMARK                            x       y       z     vdW  Elec       q    Type
REMARK                         _______ _______ _______ _____ _____    ______ ____
ROOT
ATOM      1  N   LIG    1       -1.502  -2.757  -2.380  0.00  0.00    -0.460 N 
ATOM      2  C   LIG    1       -2.748  -2.579  -1.579  0.00  0.00    +0.230 C 
ATOM      3  C   LIG    1       -2.319  -2.980  -0.167  0.00  0.00    -0.010 C 
ATOM      4  C   LIG    1       -3.114  -2.435   1.003  0.00  0.00    +0.240 C 
ATOM      5  O   LIG    1       -2.434  -2.865   2.196  0.00  0.00    -0.380 OA
ATOM      6  C   LIG    1       -1.073  -2.472   2.341  0.00  0.00    +0.200 C 
ATOM      7  C   LIG    1       -0.237  -2.847   1.137  0.00  0.00    +0.040 C 
ATOM      8  C   LIG    1       -0.919  -2.297  -0.098  0.00  0.00    -0.110 C 
ATOM      9  C   LIG    1       -0.338  -2.642  -1.461  0.00  0.00    +0.250 C 
ENDROOT
BRANCH   8  10
ATOM     10  C   LIG    1       -1.082  -0.804   0.028  0.00  0.00    +0.550 C 
ATOM     11  N   LIG    1        0.005  -0.007   0.043  0.00  0.00    -0.600 N 
ATOM     12  C   LIG    1       -0.011   1.462   0.105  0.00  0.00    +0.270 C 
ATOM     13  C   LIG    1        1.458   1.935   0.126  0.00  0.00    +0.050 C 
ATOM     14  C   LIG    1        2.218   0.686   0.645  0.00  0.00    +0.270 C 
ATOM     15  F   LIG    1        3.542   0.681   0.193  0.00  0.00    -0.180 F 
ATOM     16  F   LIG    1        2.167   0.612   2.041  0.00  0.00    -0.180 F 
ATOM     17  C   LIG    1        1.406  -0.464  -0.002  0.00  0.00    +0.270 C 
ATOM     18  O   LIG    1       -2.191  -0.320   0.115  0.00  0.00    -0.520 OA
ENDBRANCH   8  10
BRANCH   1  23
ATOM     19  C   LIG    1       -1.022   1.095  -6.397  0.00  0.00    +0.140 C 
ATOM     20  C   LIG    1       -1.198   0.039  -5.337  0.00  0.00    +0.050 A 
ATOM     21  C   LIG    1       -2.301  -0.802  -5.371  0.00  0.00    +0.050 A 
ATOM     22  C   LIG    1       -2.419  -1.763  -4.379  0.00  0.00    +0.030 A 
ATOM     23  C   LIG    1       -1.427  -1.815  -3.400  0.00  0.00    +0.240 A 
ATOM     24  N   LIG    1       -0.410  -0.968  -3.450  0.00  0.00    -0.280 NA
ATOM     25  N   LIG    1       -0.304  -0.085  -4.376  0.00  0.00    -0.220 NA
ENDBRANCH   1  23
TORSDOF 2
