REMARK  Name = ZINCpk00000xImfH.1
REMARK                            x       y       z     vdW  Elec       q    Type
REMARK                         _______ _______ _______ _____ _____    ______ ____
ROOT
ATOM      1  N   LIG    1        1.398   3.429  -0.569  0.00  0.00    -0.370 N 
ATOM      2  C   LIG    1        0.996   3.365  -1.981  0.00  0.00    +0.270 C 
ATOM      3  C   LIG    1        0.969   4.777  -2.569  0.00  0.00    +0.230 C 
ATOM      4  N   LIG    1        2.304   5.380  -2.449  0.00  0.00    -0.490 N 
ATOM      5  C   LIG    1        2.731   5.429  -1.043  0.00  0.00    +0.230 C 
ATOM      6  C   LIG    1        2.743   4.011  -0.468  0.00  0.00    +0.290 C 
ATOM      7  H   LIG    1        0.744   4.005  -0.060  0.00  0.00    +0.420 HD
ENDROOT
BRANCH   1  13
ATOM      8  N   LIG    1        2.090   1.020   2.127  0.00  0.00    -0.540 N 
ATOM      9  C   LIG    1        2.029  -0.286   1.452  0.00  0.00    +0.280 C 
ATOM     10  C   LIG    1        0.562  -0.643   1.206  0.00  0.00    +0.020 C 
ATOM     11  C   LIG    1        0.072  -0.047  -0.101  0.00  0.00    +0.040 C 
ATOM     12  C   LIG    1        0.003   1.469  -0.095  0.00  0.00    +0.050 C 
ATOM     13  C   LIG    1        1.405   2.075  -0.000  0.00  0.00    +0.160 C 
ATOM     14  C   LIG    1        1.803   2.139   1.459  0.00  0.00    +0.500 C 
ATOM     15  O   LIG    1        1.861   3.211   2.024  0.00  0.00    -0.550 OA
BRANCH   8  16
ATOM     16  C   LIG    1        2.467   1.092   3.540  0.00  0.00    +0.220 C 
BRANCH  16  18
ATOM     17  O   LIG    1        4.649   1.290   2.647  0.00  0.00    -0.690 OA
ATOM     18  C   LIG    1        3.962   1.245   3.654  0.00  0.00    +0.490 C 
ATOM     19  O   LIG    1        4.485   1.324   4.753  0.00  0.00    -0.680 OA
ENDBRANCH  16  18
ENDBRANCH   8  16
ENDBRANCH   1  13
BRANCH   4  20
ATOM     20  C   LIG    1        2.333   6.652  -3.025  0.00  0.00    +0.120 A 
ATOM     21  C   LIG    1        1.964   6.823  -4.353  0.00  0.00    -0.010 A 
ATOM     22  C   LIG    1        1.993   8.082  -4.921  0.00  0.00    +0.080 A 
ATOM     23  C   LIG    1        2.389   9.173  -4.169  0.00  0.00    -0.030 A 
ATOM     24  C   LIG    1        2.757   9.007  -2.844  0.00  0.00    +0.130 A 
ATOM     25  F   LIG    1        3.142  10.075  -2.111  0.00  0.00    -0.130 F 
ATOM     26  C   LIG    1        2.725   7.750  -2.269  0.00  0.00    -0.060 A 
ENDBRANCH   4  20
TORSDOF 4
