REMARK  Name = ZINCrH000004v62c.0
REMARK                            x       y       z     vdW  Elec       q    Type
REMARK                         _______ _______ _______ _____ _____    ______ ____
ROOT
ATOM      1  C   LIG    1        0.251  -2.245  -2.225  0.00  0.00    +0.000 C 
ATOM      2  C   LIG    1       -1.046  -1.432  -2.228  0.00  0.00    +0.060 C 
ATOM      3  C   LIG    1       -1.248  -0.794  -0.850  0.00  0.00    +0.260 C 
ATOM      4  N   LIG    1       -0.049  -0.016  -0.509  0.00  0.00    -0.610 N 
ATOM      5  C   LIG    1        1.262  -0.677  -0.568  0.00  0.00    +0.290 C 
ATOM      6  C   LIG    1       -0.149   1.280  -0.155  0.00  0.00    +0.590 C 
ATOM      7  O   LIG    1        0.852   1.915   0.121  0.00  0.00    -0.520 OA
ATOM      8  C   LIG    1        1.435  -1.318  -1.944  0.00  0.00    +0.040 C 
ENDROOT
BRANCH   6   9
ATOM      9  C   LIG    1       -1.469   1.926  -0.095  0.00  0.00    +0.010 A 
ATOM     10  C   LIG    1       -1.701   3.258  -0.234  0.00  0.00    +0.060 A 
ATOM     11  C   LIG    1       -3.096   3.467  -0.115  0.00  0.00    -0.120 A 
ATOM     12  C   LIG    1       -3.906   4.608  -0.173  0.00  0.00    +0.070 A 
ATOM     13  C   LIG    1       -5.257   4.491  -0.013  0.00  0.00    -0.020 A 
ATOM     14  C   LIG    1       -5.838   3.248   0.207  0.00  0.00    +0.050 A 
ATOM     15  C   LIG    1       -5.062   2.112   0.268  0.00  0.00    -0.010 A 
ATOM     16  C   LIG    1       -3.683   2.206   0.108  0.00  0.00    +0.110 A 
ATOM     17  N   LIG    1       -2.669   1.277   0.117  0.00  0.00    -0.580 N 
ATOM     18  H   LIG    1       -2.779   0.322   0.250  0.00  0.00    +0.420 HD
ENDBRANCH   6   9
BRANCH   1  20
ATOM     19  O   LIG    1       -0.389  -2.736  -4.443  0.00  0.00    -0.510 OA
ATOM     20  C   LIG    1        0.435  -2.902  -3.568  0.00  0.00    +0.520 C 
ATOM     21  N   LIG    1        1.516  -3.673  -3.799  0.00  0.00    -0.670 N 
ATOM     22  H   LIG    1        2.135  -3.868  -3.078  0.00  0.00    +0.410 HD
BRANCH  21  23
ATOM     23  C   LIG    1        1.744  -4.194  -5.078  0.00  0.00    +0.140 A 
ATOM     24  C   LIG    1        2.470  -5.368  -5.232  0.00  0.00    +0.020 A 
ATOM     25  C   LIG    1        2.691  -5.882  -6.494  0.00  0.00    +0.010 A 
ATOM     26  C   LIG    1        2.197  -5.223  -7.607  0.00  0.00    +0.080 A 
ATOM     27  C   LIG    1        1.477  -4.050  -7.457  0.00  0.00    +0.010 A 
ATOM     28  F   LIG    1        2.418  -5.725  -8.842  0.00  0.00    -0.140 F 
ATOM     29  C   LIG    1        1.250  -3.535  -6.196  0.00  0.00    +0.050 A 
ENDBRANCH  21  23
ENDBRANCH   1  20
TORSDOF 3
