REMARK  Name = ZINCpe000000WXxq.2
REMARK                            x       y       z     vdW  Elec       q    Type
REMARK                         _______ _______ _______ _____ _____    ______ ____
ROOT
ATOM      1  C   LIG    1        3.611   1.930  -0.022  0.00  0.00    +0.180 C 
ENDROOT
BRANCH   1   2
ATOM      2  C   LIG    1        4.926   1.194  -0.039  0.00  0.00    +0.300 A 
ATOM      3  N   LIG    1        5.295   0.290   0.833  0.00  0.00    -0.490 NA
ATOM      4  C   LIG    1        6.513  -0.164   0.526  0.00  0.00    +0.330 A 
ATOM      5  C   LIG    1        6.931   0.514  -0.612  0.00  0.00    -0.150 A 
ATOM      6  C   LIG    1        8.202   0.229  -1.155  0.00  0.00    +0.600 A 
ATOM      7  N   LIG    1        8.981  -0.697  -0.556  0.00  0.00    -0.650 N 
ATOM      8  H   LIG    1        9.855  -0.896  -0.926  0.00  0.00    +0.440 HD
ATOM      9  C   LIG    1        8.564  -1.346   0.544  0.00  0.00    +0.710 A 
ATOM     10  O   LIG    1        9.293  -2.173   1.056  0.00  0.00    -0.530 OA
ATOM     11  O   LIG    1        8.591   0.810  -2.152  0.00  0.00    -0.510 OA
ATOM     12  N   LIG    1        7.359  -1.103   1.094  0.00  0.00    -0.510 N 
ATOM     13  C   LIG    1        6.942  -1.833   2.294  0.00  0.00    +0.340 C 
ATOM     14  N   LIG    1        5.903   1.372  -0.950  0.00  0.00    -0.510 N 
ATOM     15  H   LIG    1        5.887   1.986  -1.700  0.00  0.00    +0.440 HD
ENDBRANCH   1   2
BRANCH   1  16
ATOM     16  C   LIG    1        2.462   0.920  -0.017  0.00  0.00    +0.080 C 
BRANCH  16  19
ATOM     17  N   LIG    1       -0.011   0.966   0.007  0.00  0.00    -0.720 N 
ATOM     18  H   LIG    1        0.002  -0.004   0.002  0.00  0.00    +0.400 HD
ATOM     19  C   LIG    1        1.147   1.655   0.000  0.00  0.00    +0.520 C 
ATOM     20  O   LIG    1        1.130   2.868   0.007  0.00  0.00    -0.540 OA
BRANCH  17  28
ATOM     21  C   LIG    1       -1.794   0.747   2.279  0.00  0.00    +0.010 C 
ATOM     22  C   LIG    1       -1.667   2.032   1.458  0.00  0.00    -0.020 C 
ATOM     23  C   LIG    1       -3.002   2.779   1.468  0.00  0.00    +0.020 C 
ATOM     24  C   LIG    1       -4.088   1.890   0.859  0.00  0.00    +0.010 C 
ATOM     25  C   LIG    1       -3.711   1.539  -0.582  0.00  0.00    +0.020 C 
ATOM     26  C   LIG    1       -2.376   0.792  -0.592  0.00  0.00    -0.020 C 
ATOM     27  C   LIG    1       -1.999   0.442  -2.033  0.00  0.00    +0.020 C 
ATOM     28  C   LIG    1       -1.290   1.681   0.017  0.00  0.00    +0.250 C 
ENDBRANCH  17  28
ENDBRANCH  16  19
ENDBRANCH   1  16
TORSDOF 4
