REMARK  Name = ZINCqH00000032tJ.0
REMARK                            x       y       z     vdW  Elec       q    Type
REMARK                         _______ _______ _______ _____ _____    ______ ____
ROOT
ATOM      1  C   LIG    1        7.186   4.040   0.376  0.00  0.00    -0.720 A 
ATOM      2  C   LIG    1        6.012   3.324   0.285  0.00  0.00    +0.240 A 
ATOM      3  C   LIG    1        4.792   3.998   0.189  0.00  0.00    -0.170 A 
ATOM      4  C   LIG    1        4.769   5.394   0.197  0.00  0.00    +0.140 A 
ATOM      5  C   LIG    1        5.949   6.100   0.293  0.00  0.00    -0.010 A 
ATOM      6  C   LIG    1        7.157   5.426   0.383  0.00  0.00    +0.220 A 
ATOM      7  F   LIG    1        8.311   6.123   0.477  0.00  0.00    -0.110 F 
ENDROOT
BRANCH   3   8
ATOM      8  C   LIG    1        3.531   3.236   0.086  0.00  0.00    +0.560 C 
ATOM      9  N   LIG    1        2.355   3.888  -0.001  0.00  0.00    -0.670 N 
ATOM     10  H   LIG    1        2.341   4.856  -0.062  0.00  0.00    +0.410 HD
ATOM     11  O   LIG    1        3.554   2.021   0.080  0.00  0.00    -0.500 OA
BRANCH   9  12
ATOM     12  C   LIG    1        1.155   3.170  -0.003  0.00  0.00    +0.140 A 
ATOM     13  C   LIG    1        1.091   1.924  -0.614  0.00  0.00    +0.020 A 
ATOM     14  C   LIG    1       -0.095   1.217  -0.614  0.00  0.00    +0.030 A 
ATOM     15  C   LIG    1       -1.220   1.751  -0.012  0.00  0.00    -0.010 A 
ATOM     16  C   LIG    1       -1.158   2.989   0.602  0.00  0.00    -0.070 A 
ATOM     17  C   LIG    1       -2.385   3.563   1.262  0.00  0.00    +0.090 C 
ATOM     18  C   LIG    1        0.025   3.700   0.606  0.00  0.00    -0.110 A 
ATOM     19  C   LIG    1        0.090   5.051   1.270  0.00  0.00    +0.090 C 
ENDBRANCH   9  12
ENDBRANCH   3   8
BRANCH   1  20
ATOM     20  S   LIG    1        8.727   3.192   0.490  0.00  0.00    +2.690 S 
ATOM     21  O   LIG    1        8.427   1.804   0.423  0.00  0.00    -0.940 OA
ATOM     22  O   LIG    1        9.431   3.783   1.574  0.00  0.00    -0.940 OA
BRANCH  20  23
ATOM     23  N   LIG    1        9.587   3.551  -0.878  0.00  0.00    -0.990 NA
BRANCH  23  25
ATOM     24  C   LIG    1       11.902   4.273  -0.560  0.00  0.00    +0.020 C 
ATOM     25  C   LIG    1       10.477   4.715  -0.899  0.00  0.00    +0.280 C 
ENDBRANCH  23  25
BRANCH  23  26
ATOM     26  C   LIG    1        9.458   2.706  -2.068  0.00  0.00    +0.300 C 
ATOM     27  C   LIG    1        8.411   3.306  -3.009  0.00  0.00    +0.000 C 
ENDBRANCH  23  26
ENDBRANCH  20  23
ENDBRANCH   1  20
TORSDOF 6
