REMARK  Name = ZINCrH000004tKjL.0
REMARK                            x       y       z     vdW  Elec       q    Type
REMARK                         _______ _______ _______ _____ _____    ______ ____
ROOT
ATOM      1  O   LIG    1       -6.094  -1.814   0.053  0.00  0.00    -0.540 OA
ATOM      2  C   LIG    1       -6.123  -0.601   0.060  0.00  0.00    +0.520 C 
ATOM      3  N   LIG    1       -7.306   0.044   0.075  0.00  0.00    -0.720 N 
ATOM      4  H   LIG    1       -7.330   1.014   0.081  0.00  0.00    +0.400 HD
ENDROOT
BRANCH   3   5
ATOM      5  C   LIG    1       -8.557  -0.719   0.084  0.00  0.00    +0.320 C 
BRANCH   5   6
ATOM      6  C   LIG    1       -9.650   0.116   0.700  0.00  0.00    -0.090 A 
ATOM      7  C   LIG    1       -9.729   1.467   0.419  0.00  0.00    +0.030 A 
ATOM      8  C   LIG    1      -10.735   2.232   0.980  0.00  0.00    +0.030 A 
ATOM      9  C   LIG    1      -11.655   1.647   1.831  0.00  0.00    -0.030 A 
ATOM     10  C   LIG    1      -11.573   0.296   2.115  0.00  0.00    +0.030 A 
ATOM     11 CL   LIG    1      -12.914   2.609   2.542  0.00  0.00    -0.070 Cl
ATOM     12  C   LIG    1      -10.571  -0.469   1.549  0.00  0.00    +0.040 A 
ENDBRANCH   5   6
BRANCH   5  13
ATOM     13  C   LIG    1       -8.941  -1.084  -1.351  0.00  0.00    -0.060 C 
ATOM     14  C   LIG    1       -9.260  -2.551  -1.646  0.00  0.00    +0.020 C 
ATOM     15  C   LIG    1       -7.954  -1.935  -2.152  0.00  0.00    +0.030 C 
ENDBRANCH   5  13
ENDBRANCH   3   5
BRANCH   2  16
ATOM     16  C   LIG    1       -4.837   0.183   0.051  0.00  0.00    +0.100 C 
BRANCH  16  17
ATOM     17  C   LIG    1       -3.651  -0.783   0.034  0.00  0.00    +0.150 C 
BRANCH  17  18
ATOM     18  C   LIG    1       -2.364   0.002   0.026  0.00  0.00    +0.450 A 
ATOM     19  N   LIG    1       -2.434   1.304   0.034  0.00  0.00    -0.600 NA
ATOM     20  C   LIG    1       -1.329   2.074   0.032  0.00  0.00    +0.530 A 
ATOM     21  C   LIG    1       -0.017   1.403   0.010  0.00  0.00    -0.210 A 
ATOM     22  C   LIG    1        1.179   2.117   0.002  0.00  0.00    +0.110 A 
ATOM     23  C   LIG    1        2.376   1.433  -0.013  0.00  0.00    -0.010 A 
ATOM     24  C   LIG    1        2.394   0.046  -0.021  0.00  0.00    +0.080 A 
ATOM     25  C   LIG    1        1.218  -0.674  -0.013  0.00  0.00    -0.020 A 
ATOM     26  C   LIG    1        0.002  -0.004   0.002  0.00  0.00    +0.170 A 
ATOM     27  O   LIG    1       -1.412   3.290   0.040  0.00  0.00    -0.480 OA
ATOM     28  N   LIG    1       -1.204  -0.677   0.010  0.00  0.00    -0.620 N 
ATOM     29  H   LIG    1       -1.214  -1.647   0.005  0.00  0.00    +0.420 HD
ENDBRANCH  17  18
ENDBRANCH  16  17
ENDBRANCH   2  16
TORSDOF 6
