REMARK  Name = ZINCvU0000000JVD.0
REMARK                            x       y       z     vdW  Elec       q    Type
REMARK                         _______ _______ _______ _____ _____    ______ ____
ROOT
ATOM      1  C   LIG    1        3.179  -0.408  -0.432  0.00  0.00    -0.020 A 
ATOM      2  C   LIG    1        4.121   0.525  -0.314  0.00  0.00    -0.030 A 
ATOM      3  S   LIG    1        3.419   2.126  -0.178  0.00  0.00    +0.170 S 
ATOM      4  C   LIG    1        1.782   1.496  -0.287  0.00  0.00    +0.120 A 
ATOM      5  N   LIG    1        0.596   2.119  -0.261  0.00  0.00    -0.540 NA
ATOM      6  C   LIG    1       -0.525   1.444  -0.359  0.00  0.00    +0.560 A 
ATOM      7  N   LIG    1       -0.546   0.130  -0.488  0.00  0.00    -0.580 NA
ATOM      8  C   LIG    1        0.577  -0.573  -0.523  0.00  0.00    +0.490 A 
ATOM      9  C   LIG    1        1.816   0.108  -0.421  0.00  0.00    -0.230 A 
ENDROOT
BRANCH   1  13
ATOM     10  C   LIG    1        4.073  -4.549  -0.807  0.00  0.00    +0.140 A 
ATOM     11  C   LIG    1        4.517  -3.654  -1.771  0.00  0.00    +0.000 A 
ATOM     12  C   LIG    1        4.229  -2.311  -1.653  0.00  0.00    +0.080 A 
ATOM     13  C   LIG    1        3.490  -1.851  -0.563  0.00  0.00    -0.080 A 
ATOM     14  C   LIG    1        3.050  -2.752   0.406  0.00  0.00    +0.050 A 
ATOM     15  C   LIG    1        3.337  -4.095   0.279  0.00  0.00    -0.070 A 
BRANCH  10  17
ATOM     16  C   LIG    1        3.870  -6.737   0.100  0.00  0.00    +0.250 C 
ATOM     17  O   LIG    1        4.358  -5.872  -0.927  0.00  0.00    -0.310 OA
ENDBRANCH  10  17
ENDBRANCH   1  13
BRANCH   8  18
ATOM     18  N   LIG    1        0.541  -1.949  -0.659  0.00  0.00    -0.690 N 
ATOM     19  H   LIG    1        1.361  -2.464  -0.600  0.00  0.00    +0.410 HD
BRANCH  18  20
ATOM     20  C   LIG    1       -0.736  -2.628  -0.892  0.00  0.00    +0.340 C 
BRANCH  20  21
ATOM     21  C   LIG    1       -0.538  -4.119  -0.789  0.00  0.00    -0.090 A 
ATOM     22  C   LIG    1       -0.311  -4.867  -1.927  0.00  0.00    +0.040 A 
ATOM     23  C   LIG    1       -0.129  -6.234  -1.833  0.00  0.00    +0.010 A 
ATOM     24  C   LIG    1       -0.174  -6.858  -0.600  0.00  0.00    +0.020 A 
ATOM     25  C   LIG    1       -0.400  -6.116   0.543  0.00  0.00    -0.030 A 
ATOM     26  C   LIG    1       -0.578  -4.741   0.453  0.00  0.00    +0.110 A 
BRANCH  26  27
ATOM     27  N   LIG    1       -0.802  -3.987   1.607  0.00  0.00    -0.500 N 
ATOM     28  C   LIG    1        0.299  -4.152   2.565  0.00  0.00    +0.170 C 
ATOM     29  C   LIG    1        0.093  -3.204   3.748  0.00  0.00    +0.020 C 
ATOM     30  C   LIG    1       -1.246  -3.519   4.421  0.00  0.00    +0.010 C 
ATOM     31  C   LIG    1       -2.370  -3.388   3.390  0.00  0.00    +0.020 C 
ATOM     32  C   LIG    1       -2.092  -4.330   2.217  0.00  0.00    +0.180 C 
ENDBRANCH  26  27
ENDBRANCH  20  21
ENDBRANCH  18  20
ENDBRANCH   8  18
TORSDOF 6
