REMARK  Name = ZINCrH000004rZtT.0
REMARK                            x       y       z     vdW  Elec       q    Type
REMARK                         _______ _______ _______ _____ _____    ______ ____
ROOT
ATOM      1  C   LIG    1        3.688   3.457   0.470  0.00  0.00    +0.600 C 
ATOM      2  N   LIG    1        2.412   3.890   0.445  0.00  0.00    -0.520 N 
ATOM      3  O   LIG    1        3.924   2.264   0.509  0.00  0.00    -0.500 OA
ENDROOT
BRANCH   2   4
ATOM      4  C   LIG    1        1.363   2.981   0.579  0.00  0.00    +0.160 A 
ATOM      5  C   LIG    1        1.602   1.605   0.618  0.00  0.00    +0.030 A 
ATOM      6  C   LIG    1        0.513   0.763   0.753  0.00  0.00    +0.230 A 
ATOM      7  N   LIG    1       -0.704   1.268   0.834  0.00  0.00    -0.270 NA
ATOM      8  N   LIG    1       -0.928   2.531   0.804  0.00  0.00    -0.220 NA
ATOM      9  C   LIG    1        0.042   3.414   0.678  0.00  0.00    +0.200 A 
ENDBRANCH   2   4
BRANCH   1  12
ATOM     10  C   LIG    1        5.664   6.470   0.341  0.00  0.00    +0.100 A 
ATOM     11  N   LIG    1        4.596   5.733   0.341  0.00  0.00    -0.430 NA
ATOM     12  C   LIG    1        4.796   4.426   0.450  0.00  0.00    +0.000 A 
ATOM     13  C   LIG    1        6.092   4.049   0.536  0.00  0.00    -0.010 A 
ATOM     14  S   LIG    1        7.085   5.440   0.480  0.00  0.00    +0.210 S 
BRANCH  10  21
ATOM     15  C   LIG    1        7.259   8.017   2.195  0.00  0.00    +0.100 C 
ATOM     16  C   LIG    1        6.450   8.701   1.123  0.00  0.00    -0.060 A 
ATOM     17  C   LIG    1        6.469  10.077   1.016  0.00  0.00    +0.010 A 
ATOM     18  C   LIG    1        5.722  10.707   0.036  0.00  0.00    +0.040 A 
ATOM     19  C   LIG    1        4.958   9.964  -0.845  0.00  0.00    +0.010 A 
ATOM     20  C   LIG    1        4.935   8.587  -0.751  0.00  0.00    +0.060 A 
ATOM     21  C   LIG    1        5.685   7.946   0.234  0.00  0.00    -0.040 A 
ENDBRANCH  10  21
ENDBRANCH   1  12
BRANCH   2  22
ATOM     22  C   LIG    1        2.127   5.317   0.275  0.00  0.00    +0.320 C 
BRANCH  22  23
ATOM     23  C   LIG    1        2.207   6.018   1.633  0.00  0.00    +0.150 C 
ATOM     24  C   LIG    1        1.908   7.520   1.466  0.00  0.00    +0.020 C 
ATOM     25  C   LIG    1        0.688   7.769   2.385  0.00  0.00    +0.000 C 
ATOM     26  C   LIG    1        0.765   6.566   3.360  0.00  0.00    +0.200 C 
ATOM     27  O   LIG    1        1.212   5.480   2.520  0.00  0.00    -0.370 OA
ENDBRANCH  22  23
ENDBRANCH   2  22
TORSDOF 5
