REMARK  Name = ZINCpk00000y6vwp.0
REMARK                            x       y       z     vdW  Elec       q    Type
REMARK                         _______ _______ _______ _____ _____    ______ ____
ROOT
ATOM      1  C   LIG    1        8.265   2.260   0.780  0.00  0.00    +0.270 C 
ATOM      2  C   LIG    1        7.356   1.611  -0.262  0.00  0.00    +0.320 C 
ATOM      3  N   LIG    1        6.009   2.190  -0.142  0.00  0.00    -0.610 N 
ATOM      4  C   LIG    1        5.880   3.655  -0.135  0.00  0.00    +0.290 C 
ATOM      5  C   LIG    1        6.848   4.224   0.908  0.00  0.00    +0.190 C 
ATOM      6  C   LIG    1        4.923   1.400  -0.035  0.00  0.00    +0.570 C 
ATOM      7  O   LIG    1        5.055   0.196   0.064  0.00  0.00    -0.510 OA
ATOM      8  N   LIG    1        8.202   3.721   0.641  0.00  0.00    -0.530 NA
ATOM      9  C   LIG    1        9.189   4.376   1.510  0.00  0.00    +0.210 C 
ENDROOT
BRANCH   6  10
ATOM     10  C   LIG    1        3.570   1.998  -0.038  0.00  0.00    -0.170 A 
ATOM     11  C   LIG    1        3.279   3.067  -0.877  0.00  0.00    +0.140 A 
ATOM     12  C   LIG    1        1.978   3.594  -0.838  0.00  0.00    -0.080 A 
ATOM     13  C   LIG    1        1.584   4.674  -1.647  0.00  0.00    +0.010 A 
ATOM     14  C   LIG    1        0.303   5.132  -1.547  0.00  0.00    +0.240 A 
ATOM     15  N   LIG    1       -0.572   4.578  -0.721  0.00  0.00    -0.470 NA
ATOM     16  C   LIG    1       -0.273   3.568   0.061  0.00  0.00    +0.350 A 
ATOM     17  C   LIG    1        1.023   3.023   0.042  0.00  0.00    +0.080 A 
ATOM     18  N   LIG    1        1.362   1.995   0.825  0.00  0.00    -0.450 NA
ATOM     19  C   LIG    1        2.568   1.488   0.806  0.00  0.00    +0.350 A 
ENDBRANCH   6  10
BRANCH   1  24
ATOM     20  C   LIG    1       12.684  -0.052   1.225  0.00  0.00    +0.200 C 
ATOM     21  C   LIG    1       11.556   0.826   0.749  0.00  0.00    +0.170 A 
ATOM     22  N   LIG    1       11.583   1.625  -0.276  0.00  0.00    -0.380 NA
ATOM     23  O   LIG    1       10.515   2.188  -0.398  0.00  0.00    +0.100 OA
ATOM     24  C   LIG    1        9.684   1.796   0.572  0.00  0.00    +0.190 A 
ATOM     25  N   LIG    1       10.336   0.926   1.305  0.00  0.00    -0.470 NA
ENDBRANCH   1  24
TORSDOF 2
