REMARK  Name = ZINCrH000004sV8l.0
REMARK                            x       y       z     vdW  Elec       q    Type
REMARK                         _______ _______ _______ _____ _____    ______ ____
ROOT
ATOM      1  S   LIG    1       -0.308  -2.758   6.092  0.00  0.00    -0.050 S 
ENDROOT
BRANCH   1   2
ATOM      2  C   LIG    1       -0.026  -4.122   7.253  0.00  0.00    -0.020 C 
ATOM      3  C   LIG    1       -1.207  -5.093   7.196  0.00  0.00    +0.070 C 
BRANCH   2   4
ATOM      4  C   LIG    1        0.106  -3.574   8.650  0.00  0.00    +0.540 C 
ATOM      5  N   LIG    1        0.794  -4.262   9.583  0.00  0.00    -0.670 N 
ATOM      6  H   LIG    1        1.138  -5.145   9.377  0.00  0.00    +0.420 HD
ATOM      7  O   LIG    1       -0.407  -2.512   8.936  0.00  0.00    -0.490 OA
BRANCH   5   8
ATOM      8  C   LIG    1        1.010  -3.705  10.844  0.00  0.00    +0.180 A 
ATOM      9  C   LIG    1        1.186  -2.331  10.974  0.00  0.00    +0.030 A 
ATOM     10  C   LIG    1        1.394  -1.777  12.217  0.00  0.00    +0.090 A 
ATOM     11  C   LIG    1        1.440  -2.598  13.348  0.00  0.00    -0.040 A 
ATOM     12  C   LIG    1        1.269  -3.978  13.212  0.00  0.00    +0.090 A 
ATOM     13  C   LIG    1        1.055  -4.525  11.966  0.00  0.00    -0.010 A 
BRANCH  11  14
ATOM     14  C   LIG    1        1.663  -2.026  14.641  0.00  0.00    +0.250 C 
ATOM     15  N   LIG    1        1.841  -1.572  15.668  0.00  0.00    -0.410 NA
ENDBRANCH  11  14
ENDBRANCH   5   8
ENDBRANCH   2   4
ENDBRANCH   1   2
BRANCH   1  16
ATOM     16  C   LIG    1       -0.287  -3.585   4.477  0.00  0.00    +0.140 C 
BRANCH  16  24
ATOM     17  C   LIG    1       -1.278  -0.013  -2.312  0.00  0.00    +0.160 C 
ATOM     18  C   LIG    1       -1.090  -0.627  -0.949  0.00  0.00    -0.200 A 
ATOM     19  C   LIG    1       -1.115   0.049   0.185  0.00  0.00    -0.030 A 
ATOM     20  C   LIG    1       -0.916  -0.754   1.375  0.00  0.00    -0.220 A 
ATOM     21  C   LIG    1       -0.732  -2.094   1.079  0.00  0.00    +0.050 A 
ATOM     22  N   LIG    1       -0.531  -2.983   2.113  0.00  0.00    -0.580 N 
ATOM     23  H   LIG    1       -0.400  -3.923   1.915  0.00  0.00    +0.420 HD
ATOM     24  C   LIG    1       -0.511  -2.567   3.389  0.00  0.00    +0.460 A 
ATOM     25  N   LIG    1       -0.680  -1.319   3.724  0.00  0.00    -0.560 NA
ATOM     26  C   LIG    1       -0.884  -0.366   2.800  0.00  0.00    +0.550 A 
ATOM     27  O   LIG    1       -1.039   0.799   3.131  0.00  0.00    -0.470 OA
ATOM     28  C   LIG    1       -1.337   1.539   0.237  0.00  0.00    +0.130 C 
ATOM     29  S   LIG    1       -0.807  -2.334  -0.660  0.00  0.00    +0.170 S 
ENDBRANCH  16  24
ENDBRANCH   1  16
TORSDOF 6
