REMARK  Name = ZINCtV00001bB3h1.0
REMARK                            x       y       z     vdW  Elec       q    Type
REMARK                         _______ _______ _______ _____ _____    ______ ____
ROOT
ATOM      1  C   LIG    1        8.331   2.490   0.760  0.00  0.00    +0.130 A 
ATOM      2  C   LIG    1        7.965   3.679   1.375  0.00  0.00    -0.030 A 
ATOM      3  C   LIG    1        6.741   4.255   1.107  0.00  0.00    +0.040 A 
ATOM      4  C   LIG    1        5.854   3.652   0.217  0.00  0.00    +0.130 A 
ATOM      5  N   LIG    1        4.628   4.269  -0.015  0.00  0.00    -0.660 N 
ATOM      6  H   LIG    1        4.567   5.215   0.193  0.00  0.00    +0.410 HD
ATOM      7  C   LIG    1        3.526   3.685  -0.501  0.00  0.00    +0.560 A 
ATOM      8  C   LIG    1        3.565   2.274  -0.944  0.00  0.00    -0.220 A 
ATOM      9  S   LIG    1        5.125   1.675  -1.535  0.00  0.00    +0.040 S 
ATOM     10  C   LIG    1        2.465   1.483  -0.904  0.00  0.00    +0.180 C 
ATOM     11  O   LIG    1        2.488   4.314  -0.577  0.00  0.00    -0.490 OA
ATOM     12  C   LIG    1        6.229   2.457  -0.399  0.00  0.00    -0.100 A 
ATOM     13  C   LIG    1        7.460   1.879  -0.129  0.00  0.00    +0.060 A 
ENDROOT
BRANCH  10  14
ATOM     14  C   LIG    1        1.243   1.956  -0.237  0.00  0.00    -0.060 A 
ATOM     15  C   LIG    1        1.327   2.644   0.978  0.00  0.00    +0.060 A 
ATOM     16  C   LIG    1        0.177   3.087   1.599  0.00  0.00    +0.020 A 
ATOM     17  C   LIG    1       -1.059   2.852   1.026  0.00  0.00    +0.020 A 
ATOM     18  C   LIG    1       -1.153   2.176  -0.184  0.00  0.00    +0.080 A 
ATOM     19  C   LIG    1       -0.009   1.721  -0.815  0.00  0.00    +0.050 A 
BRANCH  18  20
ATOM     20  O   LIG    1       -2.371   1.955  -0.746  0.00  0.00    -0.250 OA
BRANCH  20  21
ATOM     21  C   LIG    1       -3.033   0.817  -0.407  0.00  0.00    +0.130 A 
ATOM     22  C   LIG    1       -2.469  -0.071   0.498  0.00  0.00    -0.040 A 
ATOM     23  C   LIG    1       -3.146  -1.224   0.845  0.00  0.00    +0.070 A 
ATOM     24  C   LIG    1       -4.380  -1.500   0.282  0.00  0.00    -0.070 A 
ATOM     25  C   LIG    1       -4.940  -0.618  -0.626  0.00  0.00    +0.070 A 
ATOM     26 CL   LIG    1       -5.225  -2.953   0.715  0.00  0.00    -0.070 Cl
ATOM     27  C   LIG    1       -4.269   0.539  -0.971  0.00  0.00    +0.010 A 
ENDBRANCH  20  21
ENDBRANCH  18  20
ENDBRANCH  10  14
BRANCH   1  28
ATOM     28  O   LIG    1        9.539   1.925   1.029  0.00  0.00    -0.310 OA
BRANCH  28  30
ATOM     29  C   LIG    1       11.688   1.831   2.129  0.00  0.00    +0.070 C 
ATOM     30  C   LIG    1       10.384   2.611   1.955  0.00  0.00    +0.170 C 
ENDBRANCH  28  30
ENDBRANCH   1  28
TORSDOF 5
