REMARK  Name = ZINCpk00000eaVmd.0
REMARK                            x       y       z     vdW  Elec       q    Type
REMARK                         _______ _______ _______ _____ _____    ______ ____
ROOT
ATOM      1  C   LIG    1       -1.462  -1.462  -1.361  0.00  0.00    +0.150 C 
ATOM      2  C   LIG    1       -2.762  -2.270  -1.396  0.00  0.00    +0.160 C 
ATOM      3  N   LIG    1       -3.241  -2.356  -2.783  0.00  0.00    -0.520 NA
ATOM      4  C   LIG    1       -2.231  -2.989  -3.645  0.00  0.00    +0.160 C 
ATOM      5  C   LIG    1       -0.936  -2.174  -3.587  0.00  0.00    +0.230 C 
ATOM      6  O   LIG    1       -0.503  -2.074  -2.227  0.00  0.00    -0.370 OA
ENDROOT
BRANCH   1   7
ATOM      7  C   LIG    1       -0.915  -1.436   0.068  0.00  0.00    +0.350 C 
BRANCH   7  14
ATOM      8  C   LIG    1       -0.956   1.606   0.665  0.00  0.00    +0.140 C 
ATOM      9  C   LIG    1        0.258   0.759   0.386  0.00  0.00    +0.080 A 
ATOM     10  C   LIG    1        1.540   1.190   0.346  0.00  0.00    -0.130 A 
ATOM     11  C   LIG    1        2.355   0.092   0.051  0.00  0.00    +0.070 A 
ATOM     12  N   LIG    1        1.590  -0.961  -0.082  0.00  0.00    -0.280 NA
ATOM     13  C   LIG    1        3.855   0.118  -0.090  0.00  0.00    +0.150 C 
ATOM     14  N   LIG    1        0.262  -0.566   0.125  0.00  0.00    -0.360 N 
ENDBRANCH   7  14
ENDBRANCH   1   7
BRANCH   3  15
ATOM     15  C   LIG    1       -4.519  -3.077  -2.855  0.00  0.00    +0.220 C 
BRANCH  15  16
ATOM     16  C   LIG    1       -5.589  -2.272  -2.163  0.00  0.00    +0.510 C 
ATOM     17  N   LIG    1       -6.820  -2.793  -1.991  0.00  0.00    -0.620 N 
ATOM     18  C   LIG    1       -7.118  -4.142  -2.478  0.00  0.00    +0.280 C 
ATOM     19  O   LIG    1       -5.342  -1.155  -1.760  0.00  0.00    -0.510 OA
BRANCH  17  20
ATOM     20  C   LIG    1       -7.860  -2.010  -1.319  0.00  0.00    +0.410 C 
BRANCH  20  21
ATOM     21  C   LIG    1       -8.619  -1.202  -2.339  0.00  0.00    -0.040 A 
ATOM     22  C   LIG    1       -9.716  -1.606  -3.005  0.00  0.00    -0.050 A 
ATOM     23  C   LIG    1      -10.096  -0.540  -3.852  0.00  0.00    -0.070 A 
ATOM     24  C   LIG    1       -9.204   0.448  -3.660  0.00  0.00    +0.170 A 
ATOM     25  O   LIG    1       -8.312   0.042  -2.742  0.00  0.00    -0.160 OA
ENDBRANCH  20  21
ENDBRANCH  17  20
ENDBRANCH  15  16
ENDBRANCH   3  15
TORSDOF 6
