REMARK  Name = ZINCpe000000YXJ2.0
REMARK                            x       y       z     vdW  Elec       q    Type
REMARK                         _______ _______ _______ _____ _____    ______ ____
ROOT
ATOM      1  C   LIG    1       -2.518   4.282   0.048  0.00  0.00    +0.140 C 
ENDROOT
BRANCH   1  13
ATOM      2  O   LIG    1        0.021   5.380   0.030  0.00  0.00    -0.530 OA
ATOM      3  C   LIG    1        0.005   4.161   0.024  0.00  0.00    +0.550 A 
ATOM      4  N   LIG    1        1.170   3.490   0.009  0.00  0.00    -0.630 N 
ATOM      5  H   LIG    1        2.006   3.983   0.004  0.00  0.00    +0.420 HD
ATOM      6  C   LIG    1        1.194   2.112   0.002  0.00  0.00    +0.190 A 
ATOM      7  C   LIG    1        2.399   1.417  -0.013  0.00  0.00    -0.030 A 
ATOM      8  C   LIG    1        2.394   0.039  -0.021  0.00  0.00    +0.070 A 
ATOM      9  C   LIG    1        1.198  -0.665  -0.013  0.00  0.00    -0.020 A 
ATOM     10  C   LIG    1        0.002  -0.004   0.002  0.00  0.00    +0.090 A 
ATOM     11  C   LIG    1       -0.017   1.394   0.010  0.00  0.00    -0.130 A 
ATOM     12  C   LIG    1       -1.280   2.134   0.032  0.00  0.00    +0.140 A 
ATOM     13  C   LIG    1       -1.236   3.490   0.032  0.00  0.00    -0.170 A 
ENDBRANCH   1  13
BRANCH   1  14
ATOM     14  C   LIG    1       -2.867   4.643   1.469  0.00  0.00    +0.550 C 
ATOM     15  N   LIG    1       -3.981   5.357   1.729  0.00  0.00    -0.650 N 
ATOM     16  C   LIG    1       -5.066   5.952   0.935  0.00  0.00    +0.280 C 
ATOM     17  C   LIG    1       -5.240   6.992   2.047  0.00  0.00    -0.010 C 
ATOM     18  C   LIG    1       -4.642   5.888   2.930  0.00  0.00    +0.280 C 
ATOM     19  O   LIG    1       -2.146   4.292   2.378  0.00  0.00    -0.530 OA
BRANCH  17  20
ATOM     20  C   LIG    1       -6.696   7.333   2.369  0.00  0.00    +0.200 C 
BRANCH  20  21
ATOM     21  N   LIG    1       -7.125   8.475   1.550  0.00  0.00    -0.540 NA
ATOM     22  C   LIG    1       -6.395   9.695   1.926  0.00  0.00    +0.140 C 
ATOM     23  C   LIG    1       -6.828  10.843   1.011  0.00  0.00    +0.220 C 
ATOM     24  O   LIG    1       -8.246  11.010   1.101  0.00  0.00    -0.390 OA
ATOM     25  C   LIG    1       -8.987   9.841   0.742  0.00  0.00    +0.220 C 
ATOM     26  C   LIG    1       -8.576   8.683   1.655  0.00  0.00    +0.150 C 
ENDBRANCH  20  21
ENDBRANCH  17  20
ENDBRANCH   1  14
TORSDOF 4
