REMARK  Name = ZINCqH0000051rBN.0
REMARK                            x       y       z     vdW  Elec       q    Type
REMARK                         _______ _______ _______ _____ _____    ______ ____
ROOT
ATOM      1  O   LIG    1       -1.117  -2.436  -0.324  0.00  0.00    -0.560 OA
ATOM      2  C   LIG    1       -1.575  -1.768   0.584  0.00  0.00    +0.710 C 
ATOM      3  N   LIG    1       -1.081  -0.539   0.831  0.00  0.00    -0.720 N 
ATOM      4  H   LIG    1       -1.446  -0.006   1.554  0.00  0.00    +0.400 HD
ATOM      5  N   LIG    1       -2.576  -2.258   1.342  0.00  0.00    -0.680 N 
ATOM      6  H   LIG    1       -2.895  -1.754   2.107  0.00  0.00    +0.410 HD
ENDROOT
BRANCH   3   7
ATOM      7  C   LIG    1        0.007  -0.007   0.007  0.00  0.00    +0.260 C 
ATOM      8  C   LIG    1       -0.009   1.539   0.022  0.00  0.00    +0.050 C 
ATOM      9  C   LIG    1        1.500   1.870   0.008  0.00  0.00    +0.270 C 
ATOM     10  N   LIG    1        2.163   0.700   0.596  0.00  0.00    -0.610 N 
ATOM     11  C   LIG    1        1.349  -0.370   0.603  0.00  0.00    +0.500 C 
ATOM     12  O   LIG    1        1.647  -1.467   1.027  0.00  0.00    -0.500 OA
BRANCH  10  13
ATOM     13  C   LIG    1        3.535   0.698   1.110  0.00  0.00    +0.240 C 
ATOM     14  C   LIG    1        4.297  -0.607   0.827  0.00  0.00    +0.020 C 
ATOM     15  C   LIG    1        4.884  -0.478   2.243  0.00  0.00    +0.010 C 
ATOM     16  C   LIG    1        3.633   0.340   2.602  0.00  0.00    +0.010 C 
ENDBRANCH  10  13
ENDBRANCH   3   7
BRANCH   5  17
ATOM     17  C   LIG    1       -3.154  -3.493   1.025  0.00  0.00    +0.120 A 
ATOM     18  C   LIG    1       -2.375  -4.522   0.499  0.00  0.00    +0.090 A 
ATOM     19  C   LIG    1       -2.986  -5.725   0.201  0.00  0.00    +0.000 A 
ATOM     20  C   LIG    1       -4.355  -5.868   0.435  0.00  0.00    +0.180 A 
ATOM     21  N   LIG    1       -5.065  -4.864   0.938  0.00  0.00    -0.450 NA
ATOM     22  C   LIG    1       -4.510  -3.707   1.237  0.00  0.00    +0.250 A 
BRANCH  20  23
ATOM     23  C   LIG    1       -5.020  -7.149   0.121  0.00  0.00    -0.140 A 
ATOM     24  C   LIG    1       -6.331  -7.410   0.301  0.00  0.00    +0.070 A 
ATOM     25  C   LIG    1       -6.722  -8.680  -0.066  0.00  0.00    +0.030 A 
ATOM     26  C   LIG    1       -5.743  -9.458  -0.544  0.00  0.00    -0.150 A 
ATOM     27 CL   LIG    1       -5.942 -11.096  -1.081  0.00  0.00    -0.010 Cl
ATOM     28  S   LIG    1       -4.227  -8.567  -0.553  0.00  0.00    +0.180 S 
ENDBRANCH  20  23
ENDBRANCH   5  17
TORSDOF 4
