REMARK  Name = ZINCnE000001Ty1n.0
REMARK                            x       y       z     vdW  Elec       q    Type
REMARK                         _______ _______ _______ _____ _____    ______ ____
ROOT
ATOM      1  C   LIG    1        2.118   0.850  -0.952  0.00  0.00    -0.040 C 
ATOM      2  C   LIG    1        1.734   2.179  -0.270  0.00  0.00    +0.060 C 
ATOM      3  C   LIG    1        0.185   2.166  -0.258  0.00  0.00    +0.020 C 
ATOM      4  C   LIG    1       -0.142   0.679   0.032  0.00  0.00    +0.020 C 
ATOM      5  C   LIG    1        0.926  -0.104  -0.759  0.00  0.00    +0.040 C 
ENDROOT
BRANCH   1  11
ATOM      6  C   LIG    1        2.309  -2.093  -5.034  0.00  0.00    -0.090 C 
ATOM      7  C   LIG    1        2.167  -0.642  -5.498  0.00  0.00    +0.030 C 
ATOM      8  C   LIG    1        3.047   0.258  -4.625  0.00  0.00    +0.260 C 
ATOM      9  N   LIG    1        2.696   0.038  -3.216  0.00  0.00    -0.600 N 
ATOM     10  C   LIG    1        2.718  -1.332  -2.688  0.00  0.00    +0.260 C 
ATOM     11  C   LIG    1        2.367   1.076  -2.421  0.00  0.00    +0.530 C 
ATOM     12  O   LIG    1        2.271   2.191  -2.887  0.00  0.00    -0.540 OA
ATOM     13  C   LIG    1        1.835  -2.215  -3.584  0.00  0.00    +0.030 C 
BRANCH   6  15
ATOM     14  O   LIG    1        1.897  -4.073  -6.260  0.00  0.00    -0.700 OA
ATOM     15  C   LIG    1        1.470  -2.986  -5.912  0.00  0.00    +0.500 C 
ATOM     16  O   LIG    1        0.365  -2.619  -6.275  0.00  0.00    -0.700 OA
ENDBRANCH   6  15
ENDBRANCH   1  11
BRANCH   1  17
ATOM     17  C   LIG    1        3.350   0.274  -0.301  0.00  0.00    -0.050 A 
ATOM     18  C   LIG    1        4.517   0.141  -1.029  0.00  0.00    +0.020 A 
ATOM     19  C   LIG    1        5.648  -0.387  -0.433  0.00  0.00    +0.030 A 
ATOM     20  C   LIG    1        5.611  -0.783   0.890  0.00  0.00    +0.020 A 
ATOM     21  C   LIG    1        4.442  -0.650   1.619  0.00  0.00    -0.030 A 
ATOM     22 CL   LIG    1        4.394  -1.147   3.282  0.00  0.00    -0.070 Cl
ATOM     23  C   LIG    1        3.313  -0.117   1.024  0.00  0.00    +0.040 A 
ENDBRANCH   1  17
TORSDOF 3
