REMARK  Name = ZINCrD000006VnqF.0
REMARK                            x       y       z     vdW  Elec       q    Type
REMARK                         _______ _______ _______ _____ _____    ______ ____
ROOT
ATOM      1  C   LIG    1       -0.007   1.069  -0.000  0.00  0.00    -0.010 C 
ATOM      2  C   LIG    1       -0.914   2.019   0.785  0.00  0.00    +0.040 C 
ATOM      3  C   LIG    1       -2.337   1.453   0.815  0.00  0.00    +0.300 C 
ATOM      4  N   LIG    1       -2.775   1.203  -0.565  0.00  0.00    -1.000 NA
ATOM      5  C   LIG    1       -1.929   0.376  -1.436  0.00  0.00    +0.290 C 
ATOM      6  C   LIG    1       -0.511   0.955  -1.441  0.00  0.00    +0.050 C 
ENDROOT
BRANCH   1   8
ATOM      7  O   LIG    1        1.803   2.252  -0.948  0.00  0.00    -0.530 OA
ATOM      8  C   LIG    1        1.401   1.607  -0.003  0.00  0.00    +0.520 C 
ATOM      9  N   LIG    1        2.214   1.372   1.046  0.00  0.00    -0.610 N 
ATOM     10  C   LIG    1        1.777   0.523   2.164  0.00  0.00    +0.290 C 
ATOM     11  C   LIG    1        2.666  -0.731   2.195  0.00  0.00    +0.100 C 
ATOM     12  C   LIG    1        4.112  -0.315   2.033  0.00  0.00    -0.180 A 
ATOM     13  C   LIG    1        4.527   0.871   1.548  0.00  0.00    -0.120 A 
ATOM     14  C   LIG    1        5.911   1.001   1.491  0.00  0.00    +0.020 A 
ATOM     15  C   LIG    1        6.606  -0.047   1.922  0.00  0.00    -0.040 A 
ATOM     16  S   LIG    1        5.502  -1.311   2.445  0.00  0.00    +0.100 S 
ATOM     17  C   LIG    1        3.559   1.962   1.105  0.00  0.00    +0.370 C 
ENDBRANCH   1   8
BRANCH   4  18
ATOM     18  S   LIG    1       -4.196   1.842  -1.127  0.00  0.00    +2.690 S 
ATOM     19  O   LIG    1       -4.073   1.910  -2.541  0.00  0.00    -0.950 OA
ATOM     20  O   LIG    1       -4.475   2.974  -0.316  0.00  0.00    -0.950 OA
BRANCH  18  21
ATOM     21  C   LIG    1       -5.464   0.665  -0.794  0.00  0.00    -0.680 A 
ATOM     22  C   LIG    1       -5.773  -0.302  -1.731  0.00  0.00    +0.140 A 
ATOM     23  C   LIG    1       -6.764  -1.229  -1.468  0.00  0.00    +0.020 A 
ATOM     24  C   LIG    1       -7.455  -1.180  -0.270  0.00  0.00    +0.020 A 
ATOM     25  C   LIG    1       -7.150  -0.208   0.665  0.00  0.00    +0.020 A 
ATOM     26 CL   LIG    1       -8.705  -2.340   0.059  0.00  0.00    -0.050 Cl
ATOM     27  C   LIG    1       -6.155   0.714   0.403  0.00  0.00    +0.140 A 
ENDBRANCH  18  21
ENDBRANCH   4  18
TORSDOF 3
