REMARK  Name = ZINCpk00000KfLx6.0
REMARK                            x       y       z     vdW  Elec       q    Type
REMARK                         _______ _______ _______ _____ _____    ______ ____
ROOT
ATOM      1  C   LIG    1       -5.035  10.000  -2.739  0.00  0.00    -0.020 C 
ATOM      2  C   LIG    1       -4.990   8.995  -1.558  0.00  0.00    +0.070 C 
ATOM      3  C   LIG    1       -3.635   8.284  -1.760  0.00  0.00    +0.240 C 
ATOM      4  N   LIG    1       -2.792   9.175  -2.570  0.00  0.00    -0.640 N 
ATOM      5  C   LIG    1       -1.537   8.908  -2.982  0.00  0.00    +0.720 C 
ATOM      6  N   LIG    1       -0.954   7.738  -2.653  0.00  0.00    -0.740 N 
ATOM      7  H   LIG    1       -1.438   7.088  -2.120  0.00  0.00    +0.400 HD
ATOM      8  O   LIG    1       -0.930   9.723  -3.651  0.00  0.00    -0.580 OA
ATOM      9  C   LIG    1       -3.544  10.412  -2.852  0.00  0.00    +0.300 C 
ENDROOT
BRANCH   1  13
ATOM     10  N   LIG    1       -6.064  12.177  -3.306  0.00  0.00    -0.850 N 
ATOM     11  H   LIG    1       -6.619  12.943  -3.090  0.00  0.00    +0.400 HD
ATOM     12  H   LIG    1       -5.628  12.123  -4.170  0.00  0.00    +0.400 HD
ATOM     13  C   LIG    1       -5.898  11.189  -2.404  0.00  0.00    +0.530 C 
ATOM     14  O   LIG    1       -6.443  11.258  -1.323  0.00  0.00    -0.540 OA
ENDBRANCH   1  13
BRANCH   6  15
ATOM     15  C   LIG    1        0.410   7.448  -3.101  0.00  0.00    +0.350 C 
BRANCH  15  16
ATOM     16  C   LIG    1        0.824   6.087  -2.603  0.00  0.00    -0.200 A 
ATOM     17  C   LIG    1        1.450   5.951  -1.372  0.00  0.00    +0.110 A 
ATOM     18  C   LIG    1        1.809   4.683  -0.950  0.00  0.00    -0.060 A 
ATOM     19  C   LIG    1        1.541   3.595  -1.774  0.00  0.00    +0.330 A 
ATOM     20  N   LIG    1        0.941   3.766  -2.942  0.00  0.00    -0.520 NA
ATOM     21  C   LIG    1        0.583   4.962  -3.368  0.00  0.00    +0.310 A 
BRANCH  19  22
ATOM     22  N   LIG    1        1.901   2.316  -1.365  0.00  0.00    -0.490 N 
ATOM     23  C   LIG    1        1.401   2.036  -0.000  0.00  0.00    +0.230 C 
ATOM     24  C   LIG    1       -0.019   1.539   0.011  0.00  0.00    -0.010 C 
ATOM     25  C   LIG    1        0.002  -0.004   0.002  0.00  0.00    +0.000 C 
ATOM     26  C   LIG    1        0.266  -0.544  -1.327  0.00  0.00    +0.000 C 
ATOM     27  C   LIG    1        1.640  -0.103  -1.873  0.00  0.00    +0.020 C 
ATOM     28  C   LIG    1        1.522   1.308  -2.380  0.00  0.00    +0.210 C 
ENDBRANCH  19  22
ENDBRANCH  15  16
ENDBRANCH   6  15
TORSDOF 4
