REMARK  Name = ZINCrH000004rj9O.0
REMARK                            x       y       z     vdW  Elec       q    Type
REMARK                         _______ _______ _______ _____ _____    ______ ____
ROOT
ATOM      1  N   LIG    1       -2.008   1.184   1.271  0.00  0.00    -0.990 NA
ATOM      2  C   LIG    1       -0.645   1.734   1.261  0.00  0.00    +0.300 C 
ATOM      3  C   LIG    1        0.077   1.238   0.004  0.00  0.00    +0.030 C 
ATOM      4  C   LIG    1       -0.754   1.593  -1.231  0.00  0.00    +0.180 C 
ATOM      5  C   LIG    1       -2.115   0.898  -1.150  0.00  0.00    -0.000 C 
ATOM      6  C   LIG    1       -2.862   1.390   0.094  0.00  0.00    +0.300 C 
ENDROOT
BRANCH   4   7
ATOM      7  N   LIG    1       -0.049   1.149  -2.440  0.00  0.00    -0.480 N 
ATOM      8  C   LIG    1       -0.081  -0.247  -2.555  0.00  0.00    +0.100 A 
ATOM      9  C   LIG    1        0.650  -1.218  -1.874  0.00  0.00    +0.010 A 
ATOM     10  C   LIG    1        0.450  -2.555  -2.147  0.00  0.00    +0.020 A 
ATOM     11  C   LIG    1       -0.475  -2.942  -3.099  0.00  0.00    -0.010 A 
ATOM     12  C   LIG    1       -1.203  -1.983  -3.782  0.00  0.00    +0.030 A 
ATOM     13  C   LIG    1       -1.006  -0.645  -3.514  0.00  0.00    -0.140 A 
ATOM     14  C   LIG    1       -1.640   0.602  -4.098  0.00  0.00    +0.060 C 
ATOM     15  C   LIG    1       -0.668   1.720  -3.655  0.00  0.00    +0.180 C 
ATOM     16  C   LIG    1       -1.432   3.003  -3.323  0.00  0.00    +0.050 C 
ENDBRANCH   4   7
BRANCH   1  17
ATOM     17  S   LIG    1       -2.570   0.347   2.585  0.00  0.00    +2.690 S 
ATOM     18  O   LIG    1       -3.988   0.438   2.542  0.00  0.00    -0.940 OA
ATOM     19  O   LIG    1       -1.797   0.778   3.696  0.00  0.00    -0.950 OA
BRANCH  17  25
ATOM     20  C   LIG    1        0.003  -4.010   3.895  0.00  0.00    +0.100 C 
ATOM     21  C   LIG    1       -0.970  -3.318   2.974  0.00  0.00    -0.110 A 
ATOM     22  C   LIG    1       -1.549  -4.016   1.932  0.00  0.00    +0.100 A 
ATOM     23  C   LIG    1       -2.441  -3.383   1.087  0.00  0.00    -0.020 A 
ATOM     24  C   LIG    1       -2.754  -2.049   1.285  0.00  0.00    +0.190 A 
ATOM     25  C   LIG    1       -2.173  -1.351   2.330  0.00  0.00    -0.710 A 
ATOM     26  F   LIG    1       -3.626  -1.429   0.460  0.00  0.00    -0.120 F 
ATOM     27  C   LIG    1       -1.278  -1.984   3.171  0.00  0.00    +0.150 A 
ENDBRANCH  17  25
ENDBRANCH   1  17
TORSDOF 3
