REMARK  Name = ZINCnE000001OwBz.1
REMARK                            x       y       z     vdW  Elec       q    Type
REMARK                         _______ _______ _______ _____ _____    ______ ____
ROOT
ATOM      1  N   LIG    1       -0.011   0.966   0.007  0.00  0.00    -0.710 N 
ATOM      2  H   LIG    1        0.002  -0.004   0.002  0.00  0.00    +0.400 HD
ENDROOT
BRANCH   1   3
ATOM      3  C   LIG    1       -1.213   1.638   0.017  0.00  0.00    +0.640 A 
ATOM      4  N   LIG    1       -1.190   2.960   0.029  0.00  0.00    -0.710 NA
ATOM      5  C   LIG    1       -2.329   3.668   0.034  0.00  0.00    +0.570 A 
ATOM      6  C   LIG    1       -3.594   2.920   0.036  0.00  0.00    -0.430 A 
ATOM      7  C   LIG    1       -4.929   3.272   0.044  0.00  0.00    +0.290 A 
ATOM      8  N   LIG    1       -5.668   2.148   0.042  0.00  0.00    -0.350 NA
ATOM      9  N   LIG    1       -4.813   1.038   0.031  0.00  0.00    -0.500 N 
ATOM     10  H   LIG    1       -5.086   0.107   0.027  0.00  0.00    +0.430 HD
ATOM     11  C   LIG    1       -3.522   1.500   0.027  0.00  0.00    +0.400 A 
ATOM     12  O   LIG    1       -2.315   4.890   0.041  0.00  0.00    -0.590 OA
ATOM     13  N   LIG    1       -2.333   0.923   0.018  0.00  0.00    -0.690 NA
ENDBRANCH   1   3
BRANCH   1  14
ATOM     14  C   LIG    1        1.248   1.716  -0.001  0.00  0.00    +0.390 C 
BRANCH  14  17
ATOM     15  C   LIG    1        2.498   0.669  -2.493  0.00  0.00    +0.130 C 
ATOM     16  C   LIG    1        2.967   0.283  -1.114  0.00  0.00    -0.070 A 
ATOM     17  C   LIG    1        2.406   0.752  -0.017  0.00  0.00    -0.170 A 
ATOM     18  S   LIG    1        3.184   0.118   1.421  0.00  0.00    +0.120 S 
ATOM     19  C   LIG    1        4.317  -0.834   0.470  0.00  0.00    -0.140 A 
ATOM     20  C   LIG    1        5.347  -1.689   0.874  0.00  0.00    +0.070 A 
ATOM     21  C   LIG    1        6.121  -2.334  -0.061  0.00  0.00    +0.040 A 
ATOM     22  C   LIG    1        5.885  -2.142  -1.416  0.00  0.00    -0.040 A 
ATOM     23  C   LIG    1        4.879  -1.308  -1.835  0.00  0.00    +0.070 A 
ATOM     24 CL   LIG    1        6.868  -2.962  -2.588  0.00  0.00    -0.070 Cl
ATOM     25  C   LIG    1        4.072  -0.635  -0.892  0.00  0.00    -0.060 A 
ENDBRANCH  14  17
ENDBRANCH   1  14
TORSDOF 3
