REMARK  Name = ZINCqH0000006lPJ.0
REMARK                            x       y       z     vdW  Elec       q    Type
REMARK                         _______ _______ _______ _____ _____    ______ ____
ROOT
ATOM      1  C   LIG    1       -2.850   4.093   0.049  0.00  0.00    +0.700 C 
ATOM      2  N   LIG    1       -3.664   5.168   0.062  0.00  0.00    -0.720 N 
ATOM      3  H   LIG    1       -3.286   6.061   0.064  0.00  0.00    +0.390 HD
ATOM      4  O   LIG    1       -3.324   2.970   0.047  0.00  0.00    -0.610 OA
ENDROOT
BRANCH   1   9
ATOM      5  N   LIG    1        1.087   1.884   0.002  0.00  0.00    -0.380 N 
ATOM      6  C   LIG    1       -0.013   1.076   0.008  0.00  0.00    +0.330 A 
ATOM      7  C   LIG    1       -1.121   1.845   0.017  0.00  0.00    -0.110 A 
ATOM      8  C   LIG    1       -0.720   3.199   0.025  0.00  0.00    +0.500 A 
ATOM      9  N   LIG    1       -1.522   4.259   0.038  0.00  0.00    -0.690 NA
ATOM     10  N   LIG    1        0.654   3.217   0.012  0.00  0.00    -0.460 N 
ATOM     11  H   LIG    1        1.219   4.005   0.011  0.00  0.00    +0.450 HD
BRANCH   5  12
ATOM     12  C   LIG    1        2.482   1.435  -0.012  0.00  0.00    +0.290 C 
ATOM     13  C   LIG    1        3.177   1.971  -1.265  0.00  0.00    +0.050 C 
BRANCH  12  14
ATOM     14  C   LIG    1        3.199   1.959   1.233  0.00  0.00    +0.180 C 
BRANCH  14  16
ATOM     15  C   LIG    1        3.915   3.980   2.305  0.00  0.00    +0.210 C 
ATOM     16  O   LIG    1        3.260   3.386   1.182  0.00  0.00    -0.390 OA
ENDBRANCH  14  16
ENDBRANCH  12  14
ENDBRANCH   5  12
ENDBRANCH   1   9
BRANCH   2  17
ATOM     17  C   LIG    1       -5.117   4.986   0.075  0.00  0.00    +0.270 C 
ATOM     18  C   LIG    1       -5.522   4.200   1.324  0.00  0.00    +0.060 C 
ATOM     19  C   LIG    1       -5.545   4.214  -1.175  0.00  0.00    +0.060 C 
BRANCH  17  20
ATOM     20  C   LIG    1       -5.792   6.334   0.088  0.00  0.00    +0.090 A 
ATOM     21  N   LIG    1       -7.060   6.504   0.095  0.00  0.00    -0.450 NA
ATOM     22  C   LIG    1       -7.525   7.768   0.111  0.00  0.00    +0.080 A 
ATOM     23  C   LIG    1       -8.853   8.238   0.126  0.00  0.00    +0.080 A 
ATOM     24  C   LIG    1       -9.111   9.575   0.135  0.00  0.00    +0.030 A 
ATOM     25  C   LIG    1       -8.076  10.498   0.130  0.00  0.00    +0.040 A 
ATOM     26  C   LIG    1       -6.768  10.068   0.117  0.00  0.00    +0.060 A 
ATOM     27  C   LIG    1       -6.485   8.704   0.107  0.00  0.00    -0.180 A 
ATOM     28  S   LIG    1       -4.960   7.824   0.089  0.00  0.00    +0.100 S 
ENDBRANCH  17  20
ENDBRANCH   2  17
TORSDOF 6
