REMARK  Name = ZINCrH000004kLlJ.0
REMARK                            x       y       z     vdW  Elec       q    Type
REMARK                         _______ _______ _______ _____ _____    ______ ____
ROOT
ATOM      1  C   LIG    1       -3.492   3.216   1.170  0.00  0.00    +0.420 C 
ATOM      2  O   LIG    1       -3.156   2.457   2.056  0.00  0.00    -0.420 OA
ENDROOT
BRANCH   1   7
ATOM      3  C   LIG    1       -7.102   3.403   1.033  0.00  0.00    -0.220 A 
ATOM      4  C   LIG    1       -6.722   4.260   0.015  0.00  0.00    +0.130 A 
ATOM      5  N   LIG    1       -5.383   4.291  -0.044  0.00  0.00    -0.510 N 
ATOM      6  H   LIG    1       -4.860   4.817  -0.669  0.00  0.00    +0.420 HD
ATOM      7  C   LIG    1       -4.865   3.452   0.923  0.00  0.00    -0.100 A 
ATOM      8  C   LIG    1       -7.658   5.036  -0.876  0.00  0.00    +0.160 C 
ATOM      9  C   LIG    1       -5.920   2.890   1.609  0.00  0.00    -0.010 A 
ATOM     10  C   LIG    1       -5.829   1.916   2.755  0.00  0.00    +0.140 C 
BRANCH   3  11
ATOM     11  C   LIG    1       -8.482   3.085   1.439  0.00  0.00    +0.550 C 
ATOM     12  O   LIG    1       -9.035   3.756   2.288  0.00  0.00    -0.490 OA
BRANCH  11  14
ATOM     13  C   LIG    1      -10.487   1.795   1.318  0.00  0.00    +0.260 C 
ATOM     14  O   LIG    1       -9.130   2.050   0.869  0.00  0.00    -0.350 OA
ENDBRANCH  11  14
ENDBRANCH   3  11
ENDBRANCH   1   7
BRANCH   1  15
ATOM     15  C   LIG    1       -2.446   3.906   0.333  0.00  0.00    +0.100 C 
ATOM     16  C   LIG    1       -2.251   5.337   0.837  0.00  0.00    +0.070 C 
BRANCH  15  17
ATOM     17  N   LIG    1       -1.176   3.174   0.434  0.00  0.00    -0.510 NA
ATOM     18  C   LIG    1       -1.342   1.774   0.018  0.00  0.00    +0.220 C 
ATOM     19  C   LIG    1       -0.013   1.076   0.008  0.00  0.00    -0.030 C 
ATOM     20  C   LIG    1        1.135   1.718   0.001  0.00  0.00    -0.080 C 
ATOM     21  C   LIG    1        1.225   3.219   0.014  0.00  0.00    +0.090 C 
ATOM     22  C   LIG    1       -0.129   3.821  -0.373  0.00  0.00    +0.180 C 
BRANCH  20  23
ATOM     23  C   LIG    1        2.387   0.933  -0.023  0.00  0.00    -0.050 A 
ATOM     24  C   LIG    1        3.267   0.986   1.058  0.00  0.00    +0.010 A 
ATOM     25  C   LIG    1        4.432   0.247   1.032  0.00  0.00    +0.000 A 
ATOM     26  C   LIG    1        4.732  -0.537  -0.067  0.00  0.00    +0.000 A 
ATOM     27  C   LIG    1        3.866  -0.591  -1.144  0.00  0.00    +0.000 A 
ATOM     28  C   LIG    1        2.696   0.140  -1.129  0.00  0.00    +0.010 A 
ENDBRANCH  20  23
ENDBRANCH  15  17
ENDBRANCH   1  15
TORSDOF 6
