REMARK  Name = ZINCrH00000tj1kR.0
REMARK                            x       y       z     vdW  Elec       q    Type
REMARK                         _______ _______ _______ _____ _____    ______ ____
ROOT
ATOM      1  C   LIG    1       -3.032  -2.054  -0.301  0.00  0.00    +0.520 C 
ATOM      2  N   LIG    1       -3.233  -0.742  -0.067  0.00  0.00    -0.660 N 
ATOM      3  H   LIG    1       -4.129  -0.411   0.103  0.00  0.00    +0.430 HD
ATOM      4  O   LIG    1       -1.903  -2.485  -0.408  0.00  0.00    -0.480 OA
ENDROOT
BRANCH   2   5
ATOM      5  C   LIG    1       -2.148   0.145  -0.070  0.00  0.00    +0.240 A 
ATOM      6  C   LIG    1       -1.005  -0.160  -0.794  0.00  0.00    +0.040 A 
ATOM      7  C   LIG    1        0.068   0.718  -0.798  0.00  0.00    +0.140 A 
ATOM      8  C   LIG    1       -0.004   1.903  -0.077  0.00  0.00    +0.040 A 
ATOM      9  O   LIG    1        1.037   2.781  -0.073  0.00  0.00    -0.300 OA
ATOM     10  C   LIG    1        2.306   2.277  -0.505  0.00  0.00    +0.240 C 
ATOM     11  C   LIG    1        2.089   1.476  -1.796  0.00  0.00    +0.240 C 
ATOM     12  C   LIG    1       -1.150   2.206   0.644  0.00  0.00    +0.140 A 
ATOM     13  O   LIG    1        1.184   0.403  -1.512  0.00  0.00    -0.290 OA
ATOM     14  C   LIG    1       -2.217   1.329   0.651  0.00  0.00    -0.080 A 
BRANCH  14  15
ATOM     15  N   LIG    1       -3.437   1.655   1.425  0.00  0.00    +0.050 N 
ATOM     16  O   LIG    1       -4.339   0.841   1.510  0.00  0.00    -0.190 OA
ATOM     17  O   LIG    1       -3.538   2.736   1.976  0.00  0.00    -0.140 OA
ENDBRANCH  14  15
ENDBRANCH   2   5
BRANCH   1  18
ATOM     18  C   LIG    1       -4.210  -2.986  -0.428  0.00  0.00    +0.180 C 
ATOM     19  C   LIG    1       -5.026  -2.610  -1.666  0.00  0.00    +0.070 C 
BRANCH  18  20
ATOM     20  O   LIG    1       -3.742  -4.330  -0.556  0.00  0.00    -0.280 OA
BRANCH  20  28
ATOM     21  C   LIG    1       -2.711  -6.960  -0.574  0.00  0.00    +0.110 C 
ATOM     22  C   LIG    1       -4.047  -6.615   0.032  0.00  0.00    -0.100 A 
ATOM     23  C   LIG    1       -4.820  -7.604   0.609  0.00  0.00    +0.070 A 
ATOM     24  C   LIG    1       -6.047  -7.288   1.165  0.00  0.00    -0.070 A 
ATOM     25  C   LIG    1       -6.501  -5.981   1.146  0.00  0.00    +0.070 A 
ATOM     26  C   LIG    1       -5.729  -4.989   0.574  0.00  0.00    -0.060 A 
ATOM     27 CL   LIG    1       -7.017  -8.532   1.889  0.00  0.00    -0.070 Cl
ATOM     28  C   LIG    1       -4.501  -5.304   0.011  0.00  0.00    +0.130 A 
ENDBRANCH  20  28
ENDBRANCH  18  20
ENDBRANCH   1  18
TORSDOF 5
