REMARK  Name = ZINCrD00000F5LBS.0
REMARK                            x       y       z     vdW  Elec       q    Type
REMARK                         _______ _______ _______ _____ _____    ______ ____
ROOT
ATOM      1  N   LIG    1       -0.721   1.571  -1.179  0.00  0.00    -0.980 NA
ENDROOT
BRANCH   1   2
ATOM      2  S   LIG    1       -1.847   0.610  -1.921  0.00  0.00    +2.670 S 
ATOM      3  O   LIG    1       -1.524  -0.729  -1.574  0.00  0.00    -0.950 OA
ATOM      4  O   LIG    1       -1.938   1.064  -3.265  0.00  0.00    -0.940 OA
BRANCH   2   6
ATOM      5  C   LIG    1       -4.403   1.384  -1.905  0.00  0.00    +0.250 C 
ATOM      6  C   LIG    1       -3.404   0.957  -1.172  0.00  0.00    -0.610 C 
ENDBRANCH   2   6
ENDBRANCH   1   2
BRANCH   1   7
ATOM      7  C   LIG    1       -0.434   2.906  -1.709  0.00  0.00    +0.270 C 
BRANCH   7   8
ATOM      8  C   LIG    1        0.777   2.835  -2.641  0.00  0.00    +0.120 C 
ATOM      9  C   LIG    1        1.957   2.207  -1.897  0.00  0.00    +0.060 C 
BRANCH   8  10
ATOM     10  C   LIG    1        1.154   4.246  -3.096  0.00  0.00    -0.030 C 
ATOM     11  C   LIG    1       -0.026   4.875  -3.840  0.00  0.00    +0.030 C 
ATOM     12  C   LIG    1        0.351   6.286  -4.295  0.00  0.00    +0.020 C 
ATOM     13  C   LIG    1        1.562   6.215  -5.227  0.00  0.00    +0.290 C 
ATOM     14  C   LIG    1        2.742   5.587  -4.484  0.00  0.00    +0.020 C 
ATOM     15  F   LIG    1        1.246   5.434  -6.344  0.00  0.00    -0.200 F 
ATOM     16  F   LIG    1        1.907   7.505  -5.644  0.00  0.00    -0.200 F 
ATOM     17  C   LIG    1        2.365   4.175  -4.029  0.00  0.00    +0.050 C 
ENDBRANCH   8  10
BRANCH   8  18
ATOM     18  O   LIG    1        0.454   2.037  -3.782  0.00  0.00    -0.550 OA
ATOM     19  H   LIG    1       -0.287   2.377  -4.302  0.00  0.00    +0.380 HD
ENDBRANCH   8  18
ENDBRANCH   7   8
ENDBRANCH   1   7
BRANCH   1  20
ATOM     20  C   LIG    1       -0.013   1.086   0.008  0.00  0.00    +0.410 C 
BRANCH  20  21
ATOM     21  C   LIG    1       -0.718   1.572   1.248  0.00  0.00    +0.090 A 
ATOM     22  C   LIG    1       -0.473   2.731   1.903  0.00  0.00    -0.220 A 
ATOM     23  C   LIG    1       -1.343   2.798   2.997  0.00  0.00    +0.110 A 
ATOM     24  N   LIG    1       -2.083   1.720   2.999  0.00  0.00    -0.270 NA
ATOM     25  C   LIG    1       -1.414   3.920   4.001  0.00  0.00    +0.160 C 
ATOM     26 BR   LIG    1        0.816   4.029   1.425  0.00  0.00    -0.010 Br
ATOM     27  N   LIG    1       -1.712   0.932   1.901  0.00  0.00    -0.360 N 
ATOM     28  C   LIG    1       -2.296  -0.359   1.529  0.00  0.00    +0.360 C 
ENDBRANCH  20  21
ENDBRANCH   1  20
TORSDOF 8
