REMARK  Name = ZINCpe00000bFplW.0
REMARK                            x       y       z     vdW  Elec       q    Type
REMARK                         _______ _______ _______ _____ _____    ______ ____
ROOT
ATOM      1  C   LIG    1        0.012   1.117  -2.509  0.00  0.00    +0.250 C 
ATOM      2  C   LIG    1        0.034  -0.413  -2.515  0.00  0.00    +0.020 C 
ATOM      3  C   LIG    1       -1.402  -0.943  -2.498  0.00  0.00    +0.000 C 
ATOM      4  C   LIG    1       -2.112  -0.448  -1.237  0.00  0.00    +0.010 C 
ATOM      5  C   LIG    1       -2.134   1.082  -1.231  0.00  0.00    +0.010 C 
ATOM      6  C   LIG    1       -0.699   1.613  -1.249  0.00  0.00    -0.060 C 
ATOM      7  C   LIG    1        0.047   1.110  -0.011  0.00  0.00    +0.030 C 
ATOM      8  C   LIG    1       -0.685   1.582   1.249  0.00  0.00    +0.270 C 
ATOM      9  N   LIG    1       -0.839   3.042   1.189  0.00  0.00    -0.600 N 
ATOM     10  C   LIG    1       -1.463   3.638  -0.001  0.00  0.00    +0.270 C 
ATOM     11  C   LIG    1       -0.415   3.819   2.204  0.00  0.00    +0.520 C 
ATOM     12  O   LIG    1       -0.458   5.027   2.102  0.00  0.00    -0.540 OA
ATOM     13  C   LIG    1       -0.722   3.143  -1.246  0.00  0.00    +0.030 C 
ENDROOT
BRANCH   1  15
ATOM     14  C   LIG    1       -0.046   1.741  -4.864  0.00  0.00    +0.510 C 
ATOM     15  N   LIG    1       -0.701   1.600  -3.695  0.00  0.00    -0.720 N 
ATOM     16  H   LIG    1       -1.644   1.817  -3.638  0.00  0.00    +0.400 HD
ATOM     17  O   LIG    1        1.134   1.469  -4.935  0.00  0.00    -0.510 OA
BRANCH  14  18
ATOM     18  C   LIG    1       -0.779   2.238  -6.083  0.00  0.00    +0.200 C 
BRANCH  18  20
ATOM     19  C   LIG    1       -0.474   2.764  -8.402  0.00  0.00    +0.200 C 
ATOM     20  O   LIG    1        0.124   2.302  -7.189  0.00  0.00    -0.370 OA
ENDBRANCH  18  20
ENDBRANCH  14  18
ENDBRANCH   1  15
BRANCH  11  21
ATOM     21  C   LIG    1        0.113   3.188   3.467  0.00  0.00    +0.230 C 
ATOM     22  C   LIG    1       -1.056   2.657   4.299  0.00  0.00    +0.060 C 
BRANCH  21  23
ATOM     23  N   LIG    1        0.848   4.190   4.243  0.00  0.00    -0.720 N 
ATOM     24  H   LIG    1        0.645   5.132   4.135  0.00  0.00    +0.410 HD
ATOM     25  C   LIG    1        1.807   3.802   5.107  0.00  0.00    +0.520 C 
ATOM     26  O   LIG    1        2.062   2.624   5.242  0.00  0.00    -0.550 OA
ATOM     27  C   LIG    1        2.564   4.832   5.905  0.00  0.00    +0.110 C 
ENDBRANCH  21  23
ENDBRANCH  11  21
TORSDOF 5
