REMARK  Name = ZINCrg00001JduYH.0
REMARK                            x       y       z     vdW  Elec       q    Type
REMARK                         _______ _______ _______ _____ _____    ______ ____
ROOT
ATOM      1  N   LIG    1       -0.453   1.393   3.718  0.00  0.00    -0.720 N 
ATOM      2  H   LIG    1       -1.248   1.939   3.817  0.00  0.00    +0.400 HD
ATOM      3  C   LIG    1        0.000   1.080   2.488  0.00  0.00    +0.520 C 
ATOM      4  O   LIG    1        0.994   0.397   2.363  0.00  0.00    -0.500 OA
ENDROOT
BRANCH   1   8
ATOM      5  C   LIG    1        1.169   1.287   7.662  0.00  0.00    -0.010 C 
ATOM      6  C   LIG    1        2.140   1.358   6.482  0.00  0.00    +0.030 C 
ATOM      7  C   LIG    1        1.400   1.865   5.243  0.00  0.00    +0.010 C 
ATOM      8  C   LIG    1        0.256   0.907   4.905  0.00  0.00    +0.240 C 
ATOM      9  C   LIG    1       -0.716   0.836   6.085  0.00  0.00    +0.020 C 
ATOM     10  C   LIG    1        0.024   0.330   7.324  0.00  0.00    +0.040 C 
BRANCH   5  11
ATOM     11  C   LIG    1        1.909   0.780   8.902  0.00  0.00    +0.280 C 
BRANCH  11  12
ATOM     12  N   LIG    1        2.927   1.757   9.296  0.00  0.00    -1.120 NA
ATOM     13  H   LIG    1        3.192   2.457   8.679  0.00  0.00    +0.420 HD
BRANCH  12  14
ATOM     14  S   LIG    1        3.625   1.666  10.795  0.00  0.00    +2.680 S 
ATOM     15  O   LIG    1        2.560   1.529  11.726  0.00  0.00    -0.960 OA
ATOM     16  O   LIG    1        4.581   2.716  10.857  0.00  0.00    -0.960 OA
BRANCH  14  18
ATOM     17  C   LIG    1        5.840   0.187  10.970  0.00  0.00    +0.240 C 
ATOM     18  C   LIG    1        4.536   0.159  10.856  0.00  0.00    -0.590 C 
ENDBRANCH  14  18
ENDBRANCH  12  14
ENDBRANCH  11  12
ENDBRANCH   5  11
ENDBRANCH   1   8
BRANCH   3  19
ATOM     19  C   LIG    1       -0.729   1.579   1.267  0.00  0.00    +0.160 C 
ATOM     20  C   LIG    1       -0.013   1.086   0.008  0.00  0.00    +0.090 C 
ATOM     21  C   LIG    1       -0.753   1.593  -1.232  0.00  0.00    +0.020 C 
ATOM     22  C   LIG    1       -2.188   1.063  -1.221  0.00  0.00    +0.010 C 
ATOM     23  C   LIG    1       -2.904   1.556   0.038  0.00  0.00    +0.020 C 
ATOM     24  C   LIG    1       -2.164   1.050   1.278  0.00  0.00    +0.060 C 
BRANCH  19  25
ATOM     25  N   LIG    1       -0.749   3.044   1.275  0.00  0.00    -0.300 N 
ATOM     26  C   LIG    1       -1.522   3.829   2.048  0.00  0.00    +0.380 A 
ATOM     27  N   LIG    1       -1.225   5.068   1.742  0.00  0.00    -0.290 NA
ATOM     28  N   LIG    1       -0.323   5.046   0.823  0.00  0.00    -0.070 NA
ATOM     29  N   LIG    1       -0.033   3.824   0.538  0.00  0.00    -0.070 NA
ENDBRANCH  19  25
ENDBRANCH   3  19
TORSDOF 7
