REMARK  Name = ZINCvU0000000InY.0
REMARK                            x       y       z     vdW  Elec       q    Type
REMARK                         _______ _______ _______ _____ _____    ______ ____
ROOT
ATOM      1  C   LIG    1       -0.779   4.935   2.349  0.00  0.00    -0.010 C 
ATOM      2  C   LIG    1       -0.054   4.410   3.590  0.00  0.00    +0.020 C 
ATOM      3  C   LIG    1       -1.000   4.453   4.792  0.00  0.00    +0.010 C 
ATOM      4  C   LIG    1       -1.421   5.902   5.055  0.00  0.00    +0.260 C 
ATOM      5  N   LIG    1       -1.988   6.461   3.820  0.00  0.00    -0.610 N 
ATOM      6  C   LIG    1       -3.211   7.028   3.821  0.00  0.00    +0.530 C 
ATOM      7  O   LIG    1       -3.626   7.577   2.822  0.00  0.00    -0.540 OA
ATOM      8  C   LIG    1       -1.198   6.390   2.583  0.00  0.00    +0.260 C 
ENDROOT
BRANCH   1  12
ATOM      9  N   LIG    1        0.721   3.846  -1.502  0.00  0.00    -0.440 N 
ATOM     10  C   LIG    1        1.459   3.332  -0.342  0.00  0.00    +0.210 C 
ATOM     11  C   LIG    1        0.572   3.407   0.903  0.00  0.00    +0.050 C 
ATOM     12  C   LIG    1        0.158   4.862   1.141  0.00  0.00    +0.000 C 
ATOM     13  C   LIG    1       -0.566   5.388  -0.101  0.00  0.00    +0.050 C 
ATOM     14  C   LIG    1        0.354   5.256  -1.316  0.00  0.00    +0.210 C 
BRANCH   9  19
ATOM     15  C   LIG    1        2.904   3.517  -6.359  0.00  0.00    +0.210 C 
ATOM     16  C   LIG    1        2.467   3.515  -4.917  0.00  0.00    +0.020 A 
ATOM     17  N   LIG    1        3.143   3.053  -3.917  0.00  0.00    -0.250 NA
ATOM     18  N   LIG    1        2.631   3.135  -2.768  0.00  0.00    -0.310 NA
ATOM     19  C   LIG    1        1.448   3.672  -2.671  0.00  0.00    +0.210 A 
ATOM     20  S   LIG    1        0.940   4.144  -4.294  0.00  0.00    +0.070 S 
ENDBRANCH   9  19
ENDBRANCH   1  12
BRANCH   6  21
ATOM     21  C   LIG    1       -4.062   6.981   5.063  0.00  0.00    -0.020 C 
BRANCH  21  22
ATOM     22  C   LIG    1       -3.894   8.284   5.847  0.00  0.00    +0.000 C 
ATOM     23  C   LIG    1       -4.351   9.461   4.983  0.00  0.00    +0.020 C 
ATOM     24  C   LIG    1       -2.422   8.467   6.222  0.00  0.00    +0.020 C 
ENDBRANCH  21  22
BRANCH  21  25
ATOM     25  C   LIG    1       -5.531   6.809   4.668  0.00  0.00    +0.040 C 
BRANCH  25  26
ATOM     26  C   LIG    1       -6.382   6.649   5.929  0.00  0.00    -0.020 C 
ATOM     27  C   LIG    1       -6.007   5.345   6.637  0.00  0.00    +0.000 C 
ATOM     28  C   LIG    1       -6.859   5.186   7.898  0.00  0.00    +0.000 C 
ATOM     29  C   LIG    1       -8.339   5.149   7.512  0.00  0.00    +0.000 C 
ATOM     30  C   LIG    1       -8.714   6.453   6.805  0.00  0.00    +0.000 C 
ATOM     31  C   LIG    1       -7.862   6.612   5.544  0.00  0.00    +0.010 C 
ENDBRANCH  25  26
ENDBRANCH  21  25
ENDBRANCH   6  21
TORSDOF 6
