REMARK  Name = ZINCpk00000FkC3b.0
REMARK                            x       y       z     vdW  Elec       q    Type
REMARK                         _______ _______ _______ _____ _____    ______ ____
ROOT
ATOM      1  C   LIG    1        5.966  -0.005  -6.593  0.00  0.00    +0.650 C 
ATOM      2  N   LIG    1        5.637   0.299  -5.322  0.00  0.00    -0.600 N 
ATOM      3  C   LIG    1        6.467  -0.167  -4.203  0.00  0.00    +0.300 C 
ATOM      4  C   LIG    1        5.578  -0.947  -3.226  0.00  0.00    +0.300 C 
ATOM      5  N   LIG    1        4.383  -0.144  -2.934  0.00  0.00    -0.630 N 
ATOM      6  C   LIG    1        3.549   0.317  -4.054  0.00  0.00    +0.270 C 
ATOM      7  C   LIG    1        4.053   0.159  -1.663  0.00  0.00    +0.710 C 
ATOM      8  N   LIG    1        2.899   0.805  -1.402  0.00  0.00    -0.740 N 
ATOM      9  H   LIG    1        2.342   1.116  -2.132  0.00  0.00    +0.400 HD
ATOM     10  O   LIG    1        4.796  -0.151  -0.752  0.00  0.00    -0.580 OA
ATOM     11  C   LIG    1        4.441   1.102  -5.031  0.00  0.00    +0.290 C 
ATOM     12  O   LIG    1        6.957  -0.670  -6.822  0.00  0.00    -0.570 OA
ENDROOT
BRANCH   1  13
ATOM     13  O   LIG    1        5.197   0.429  -7.610  0.00  0.00    -0.370 OA
BRANCH  13  15
ATOM     14  C   LIG    1        4.623   0.641  -9.967  0.00  0.00    +0.070 C 
ATOM     15  C   LIG    1        5.612   0.064  -8.953  0.00  0.00    +0.220 C 
ENDBRANCH  13  15
ENDBRANCH   1  13
BRANCH   8  16
ATOM     16  C   LIG    1        2.488   1.038  -0.016  0.00  0.00    +0.330 C 
BRANCH  16  17
ATOM     17  C   LIG    1        1.173   1.774   0.001  0.00  0.00    -0.080 A 
ATOM     18  C   LIG    1       -0.014   1.063   0.011  0.00  0.00    +0.030 A 
ATOM     19  C   LIG    1       -1.221   1.731   0.020  0.00  0.00    +0.080 A 
ATOM     20  C   LIG    1       -1.243   3.127   0.032  0.00  0.00    -0.120 A 
ATOM     21  C   LIG    1       -0.041   3.838   0.022  0.00  0.00    +0.080 A 
ATOM     22  C   LIG    1        1.159   3.158   0.007  0.00  0.00    +0.030 A 
BRANCH  20  23
ATOM     23  C   LIG    1       -2.532   3.849   0.048  0.00  0.00    +0.510 C 
ATOM     24  O   LIG    1       -2.548   5.063   0.053  0.00  0.00    -0.500 OA
BRANCH  23  25
ATOM     25  O   LIG    1       -3.690   3.160   0.057  0.00  0.00    -0.350 OA
ATOM     26  C   LIG    1       -4.918   3.935   0.072  0.00  0.00    +0.290 C 
ENDBRANCH  23  25
ENDBRANCH  20  23
ENDBRANCH  16  17
ENDBRANCH   8  16
TORSDOF 6
