REMARK  Name = ZINCpe00000gNhGY.0
REMARK                            x       y       z     vdW  Elec       q    Type
REMARK                         _______ _______ _______ _____ _____    ______ ____
ROOT
ATOM      1  O   LIG    1        0.268  -4.595   0.450  0.00  0.00    -0.570 OA
ATOM      2  C   LIG    1       -0.659  -3.899   0.816  0.00  0.00    +0.710 C 
ATOM      3  N   LIG    1       -0.422  -2.674   1.326  0.00  0.00    -0.720 N 
ATOM      4  H   LIG    1       -1.162  -2.119   1.618  0.00  0.00    +0.400 HD
ATOM      5  N   LIG    1       -1.924  -4.353   0.713  0.00  0.00    -0.670 N 
ATOM      6  H   LIG    1       -2.657  -3.831   1.075  0.00  0.00    +0.410 HD
ENDROOT
BRANCH   5   7
ATOM      7  C   LIG    1       -2.179  -5.575   0.084  0.00  0.00    +0.080 A 
ATOM      8  C   LIG    1       -3.231  -6.388   0.504  0.00  0.00    +0.300 A 
ATOM      9  N   LIG    1       -3.444  -7.533  -0.117  0.00  0.00    -0.450 NA
ATOM     10  C   LIG    1       -2.667  -7.918  -1.120  0.00  0.00    +0.340 A 
ATOM     11  N   LIG    1       -1.654  -7.174  -1.542  0.00  0.00    -0.450 NA
ATOM     12  C   LIG    1       -1.383  -6.013  -0.974  0.00  0.00    +0.340 A 
BRANCH  10  13
ATOM     13  C   LIG    1       -2.937  -9.216  -1.787  0.00  0.00    +0.370 A 
ATOM     14  N   LIG    1       -2.164  -9.599  -2.793  0.00  0.00    -0.480 NA
ATOM     15  C   LIG    1       -2.374 -10.751  -3.406  0.00  0.00    +0.330 A 
ATOM     16  C   LIG    1       -3.425 -11.556  -2.991  0.00  0.00    -0.070 A 
ATOM     17  C   LIG    1       -4.217 -11.122  -1.938  0.00  0.00    +0.330 A 
ATOM     18  N   LIG    1       -3.949  -9.961  -1.366  0.00  0.00    -0.480 NA
ENDBRANCH  10  13
ENDBRANCH   5   7
BRANCH   3  19
ATOM     19  CA  LIG    1        0.953  -2.180   1.438  0.00  0.00    +0.280 C 
BRANCH  19  20
ATOM     20  C   LIG    1        0.948  -0.651   1.431  0.00  0.00    +0.000 C 
ATOM     21  C   LIG    1        0.331  -0.146   0.122  0.00  0.00    -0.010 C 
ATOM     22  C   LIG    1        0.402   1.383   0.090  0.00  0.00    +0.200 C 
ATOM     23  O   LIG    1        1.763   1.798   0.224  0.00  0.00    -0.380 OA
ATOM     24  C   LIG    1        2.377   1.395   1.450  0.00  0.00    +0.210 C 
ATOM     25  C   LIG    1        2.385  -0.133   1.537  0.00  0.00    +0.000 C 
ENDBRANCH  19  20
BRANCH  19  26
ATOM     26  C   LIG    1        1.569  -2.682   2.745  0.00  0.00    +0.170 C 
BRANCH  26  27
ATOM     27  O   LIG    1        0.870  -2.109   3.852  0.00  0.00    -0.570 OA
ATOM     28  H   LIG    1        1.208  -2.384   4.716  0.00  0.00    +0.380 HD
ENDBRANCH  26  27
ENDBRANCH  19  26
ENDBRANCH   3  19
TORSDOF 6
