REMARK  Name = ZINCrD000000CFb1.0
REMARK                            x       y       z     vdW  Elec       q    Type
REMARK                         _______ _______ _______ _____ _____    ______ ____
ROOT
ATOM      1  C   LIG    1       -1.585   6.588  -0.903  0.00  0.00    -0.100 A 
ATOM      2  C   LIG    1       -2.765   5.864  -0.753  0.00  0.00    +0.050 A 
ATOM      3  C   LIG    1       -3.583   6.094   0.336  0.00  0.00    +0.040 A 
ATOM      4  C   LIG    1       -3.238   7.042   1.283  0.00  0.00    +0.030 A 
ATOM      5  C   LIG    1       -2.070   7.771   1.151  0.00  0.00    +0.040 A 
ATOM      6  C   LIG    1       -1.231   7.549   0.063  0.00  0.00    -0.100 A 
ENDROOT
BRANCH   6   7
ATOM      7  C   LIG    1        0.022   8.322  -0.079  0.00  0.00    +0.560 C 
ATOM      8  N   LIG    1       -0.007   9.668  -0.026  0.00  0.00    -0.610 N 
ATOM      9  C   LIG    1       -1.284  10.394   0.046  0.00  0.00    +0.290 C 
ATOM     10  C   LIG    1       -1.213  11.381   1.221  0.00  0.00    +0.200 C 
ATOM     11  N   LIG    1       -0.024  12.231   1.069  0.00  0.00    -0.450 N 
ATOM     12  C   LIG    1        1.210  11.437   1.129  0.00  0.00    +0.220 C 
ATOM     13  C   LIG    1        1.238  10.452  -0.044  0.00  0.00    +0.310 C 
ATOM     14  O   LIG    1        1.078   7.743  -0.245  0.00  0.00    -0.510 OA
BRANCH  11  15
ATOM     15  C   LIG    1       -0.012  13.242   2.016  0.00  0.00    +0.220 A 
ATOM     16  N   LIG    1        0.953  13.463   2.854  0.00  0.00    -0.520 NA
ATOM     17  C   LIG    1        0.799  14.476   3.688  0.00  0.00    +0.240 A 
ATOM     18  C   LIG    1       -0.352  15.135   3.555  0.00  0.00    -0.100 A 
ATOM     19  S   LIG    1       -1.269  14.376   2.256  0.00  0.00    +0.140 S 
ENDBRANCH  11  15
ENDBRANCH   6   7
BRANCH   1  21
ATOM     20  O   LIG    1       -0.003   5.355  -2.102  0.00  0.00    -0.420 OA
ATOM     21  C   LIG    1       -0.706   6.346  -2.067  0.00  0.00    +0.440 C 
BRANCH  21  22
ATOM     22  C   LIG    1       -0.683   7.308  -3.188  0.00  0.00    -0.160 A 
ATOM     23  C   LIG    1        0.228   7.144  -4.235  0.00  0.00    +0.070 A 
ATOM     24  C   LIG    1        0.245   8.046  -5.278  0.00  0.00    +0.000 A 
ATOM     25  C   LIG    1       -0.638   9.111  -5.289  0.00  0.00    +0.040 A 
ATOM     26  C   LIG    1       -1.540   9.283  -4.253  0.00  0.00    +0.000 A 
ATOM     27  C   LIG    1       -1.571   8.386  -3.207  0.00  0.00    +0.060 A 
ENDBRANCH  21  22
ENDBRANCH   1  21
TORSDOF 4
