REMARK  Name = ZINCqH0000008prb.0
REMARK                            x       y       z     vdW  Elec       q    Type
REMARK                         _______ _______ _______ _____ _____    ______ ____
ROOT
ATOM      1  N   LIG    1        0.145  -2.038   0.430  0.00  0.00    -0.730 N 
ATOM      2  H   LIG    1        0.694  -2.685  -0.040  0.00  0.00    +0.400 HD
ATOM      3  C   LIG    1       -0.462  -2.381   1.583  0.00  0.00    +0.530 C 
ATOM      4  O   LIG    1       -1.149  -1.572   2.171  0.00  0.00    -0.530 OA
ENDROOT
BRANCH   3   5
ATOM      5  C   LIG    1       -0.286  -3.769   2.144  0.00  0.00    -0.020 C 
ATOM      6  C   LIG    1       -1.077  -3.896   3.448  0.00  0.00    +0.060 C 
ATOM      7  C   LIG    1       -0.873  -5.295   4.035  0.00  0.00    +0.030 C 
ATOM      8  C   LIG    1       -1.398  -6.341   3.047  0.00  0.00    +0.260 C 
ATOM      9  N   LIG    1       -0.747  -6.132   1.747  0.00  0.00    -0.600 N 
ATOM     10  C   LIG    1       -0.109  -7.144   1.127  0.00  0.00    +0.600 C 
ATOM     11  O   LIG    1        0.370  -6.976   0.021  0.00  0.00    -0.520 OA
ATOM     12  C   LIG    1       -0.805  -4.797   1.134  0.00  0.00    +0.300 C 
BRANCH  10  13
ATOM     13  C   LIG    1        0.008  -8.449   1.786  0.00  0.00    -0.270 A 
ATOM     14  C   LIG    1        1.143  -9.208   1.845  0.00  0.00    +0.090 A 
ATOM     15  C   LIG    1        0.972 -10.388   2.529  0.00  0.00    +0.000 A 
ATOM     16  C   LIG    1       -0.261 -10.595   3.006  0.00  0.00    -0.070 A 
ATOM     17  S   LIG    1       -1.291  -9.291   2.620  0.00  0.00    +0.220 S 
ENDBRANCH  10  13
ENDBRANCH   3   5
BRANCH   1  19
ATOM     18  C   LIG    1       -1.310  -0.633  -0.945  0.00  0.00    +0.040 C 
ATOM     19  C   LIG    1       -0.026  -0.689  -0.115  0.00  0.00    +0.300 C 
BRANCH  19  20
ATOM     20  C   LIG    1        1.153  -0.348  -0.991  0.00  0.00    -0.140 A 
ATOM     21  C   LIG    1        1.885  -1.357  -1.587  0.00  0.00    +0.080 A 
ATOM     22  C   LIG    1        2.966  -1.046  -2.390  0.00  0.00    -0.010 A 
ATOM     23  C   LIG    1        3.316   0.277  -2.598  0.00  0.00    +0.130 A 
ATOM     24  C   LIG    1        2.584   1.289  -2.001  0.00  0.00    -0.040 A 
ATOM     25  F   LIG    1        4.372   0.581  -3.384  0.00  0.00    -0.130 F 
ATOM     26  C   LIG    1        1.501   0.976  -1.197  0.00  0.00    +0.140 A 
ATOM     27  F   LIG    1        0.782   1.962  -0.618  0.00  0.00    -0.120 F 
ENDBRANCH  19  20
ENDBRANCH   1  19
TORSDOF 4
