REMARK  Name = ZINCpk00000FT5G5.0
REMARK                            x       y       z     vdW  Elec       q    Type
REMARK                         _______ _______ _______ _____ _____    ______ ____
ROOT
ATOM      1  C   LIG    1        6.754   5.291   0.342  0.00  0.00    +0.610 C 
ATOM      2  N   LIG    1        5.880   4.270   0.245  0.00  0.00    -0.630 N 
ATOM      3  C   LIG    1        5.027   3.544   1.206  0.00  0.00    +0.330 C 
ATOM      4  C   LIG    1        4.136   3.204  -0.003  0.00  0.00    +0.070 C 
ATOM      5  C   LIG    1        5.391   3.429  -0.865  0.00  0.00    +0.350 C 
ATOM      6  O   LIG    1        6.967   5.809   1.422  0.00  0.00    -0.500 OA
ENDROOT
BRANCH   4   7
ATOM      7  C   LIG    1        3.642   1.780  -0.011  0.00  0.00    +0.160 A 
ATOM      8  N   LIG    1        4.387   0.703  -0.038  0.00  0.00    -0.230 NA
ATOM      9  N   LIG    1        3.647  -0.351  -0.037  0.00  0.00    -0.250 NA
ATOM     10  C   LIG    1        2.377   0.008  -0.009  0.00  0.00    +0.130 A 
ATOM     11  C   LIG    1        1.155  -0.692   0.006  0.00  0.00    +0.410 A 
ATOM     12  N   LIG    1        0.026  -0.025   0.036  0.00  0.00    -0.450 NA
ATOM     13  C   LIG    1        0.007   1.310   0.053  0.00  0.00    +0.240 A 
ATOM     14  C   LIG    1        1.149   2.029   0.040  0.00  0.00    +0.200 A 
ATOM     15  N   LIG    1        2.353   1.385   0.009  0.00  0.00    -0.370 N 
ENDBRANCH   4   7
BRANCH   1  18
ATOM     16  C   LIG    1        8.001   5.701  -3.030  0.00  0.00    +0.360 A 
ATOM     17  N   LIG    1        7.344   5.177  -2.046  0.00  0.00    -0.530 NA
ATOM     18  C   LIG    1        7.452   5.780  -0.858  0.00  0.00    +0.150 A 
ATOM     19  C   LIG    1        8.253   6.867  -0.839  0.00  0.00    -0.320 A 
ATOM     20  S   LIG    1        8.889   7.112  -2.464  0.00  0.00    +0.180 S 
BRANCH  19  21
ATOM     21  C   LIG    1        8.551   7.723   0.364  0.00  0.00    +0.560 C 
ATOM     22  F   LIG    1        7.352   8.187   0.915  0.00  0.00    -0.160 F 
ATOM     23  F   LIG    1        9.339   8.813  -0.022  0.00  0.00    -0.180 F 
ATOM     24  F   LIG    1        9.239   6.965   1.317  0.00  0.00    -0.160 F 
ENDBRANCH  19  21
BRANCH  16  25
ATOM     25  N   LIG    1        8.009   5.221  -4.329  0.00  0.00    -0.800 N 
ATOM     26  H   LIG    1        7.490   4.435  -4.559  0.00  0.00    +0.420 HD
ATOM     27  H   LIG    1        8.534   5.672  -5.009  0.00  0.00    +0.420 HD
ENDBRANCH  16  25
ENDBRANCH   1  18
TORSDOF 4
