REMARK  Name = ZINCrg000000qTQP.0
REMARK                            x       y       z     vdW  Elec       q    Type
REMARK                         _______ _______ _______ _____ _____    ______ ____
ROOT
ATOM      1  C   LIG    1       -3.481   7.519  -1.224  0.00  0.00    +0.110 A 
ATOM      2  C   LIG    1       -2.635   7.997  -0.234  0.00  0.00    -0.060 A 
ATOM      3  C   LIG    1       -1.438   7.355   0.015  0.00  0.00    +0.060 A 
ATOM      4  C   LIG    1       -1.082   6.233  -0.723  0.00  0.00    +0.110 A 
ATOM      5  C   LIG    1       -1.927   5.753  -1.711  0.00  0.00    -0.070 A 
ATOM      6  C   LIG    1       -1.574   4.536  -2.526  0.00  0.00    +0.090 C 
ATOM      7  C   LIG    1       -0.068   4.279  -2.480  0.00  0.00    +0.030 C 
ATOM      8  C   LIG    1        0.388   4.264  -1.015  0.00  0.00    +0.280 C 
ATOM      9  N   LIG    1        0.142   5.600  -0.454  0.00  0.00    -0.540 N 
ATOM     10  C   LIG    1        1.076   6.207   0.304  0.00  0.00    +0.530 C 
ATOM     11  O   LIG    1        0.910   7.352   0.670  0.00  0.00    -0.510 OA
ATOM     12  C   LIG    1       -3.128   6.396  -1.956  0.00  0.00    +0.000 A 
ENDROOT
BRANCH  10  13
ATOM     13  C   LIG    1        2.327   5.465   0.699  0.00  0.00    -0.010 C 
ATOM     14  C   LIG    1        2.121   4.701   2.027  0.00  0.00    +0.090 C 
ATOM     15  C   LIG    1        3.450   4.830   2.739  0.00  0.00    +0.520 C 
ATOM     16  N   LIG    1        4.180   5.810   2.180  0.00  0.00    -0.610 N 
ATOM     17  O   LIG    1        3.804   4.148   3.677  0.00  0.00    -0.510 OA
ATOM     18  C   LIG    1        3.459   6.447   1.072  0.00  0.00    +0.300 C 
BRANCH  16  19
ATOM     19  C   LIG    1        5.523   6.195   2.622  0.00  0.00    +0.290 C 
ATOM     20  C   LIG    1        5.478   6.630   4.097  0.00  0.00    +0.060 C 
ATOM     21  C   LIG    1        6.948   6.698   4.584  0.00  0.00    -0.300 C 
ATOM     22  S   LIG    1        7.682   5.186   3.852  0.00  0.00    +2.400 S 
ATOM     23  O   LIG    1        8.958   5.498   3.309  0.00  0.00    -0.930 OA
ATOM     24  O   LIG    1        7.543   4.106   4.764  0.00  0.00    -0.920 OA
ATOM     25  C   LIG    1        6.476   4.990   2.490  0.00  0.00    -0.330 C 
ENDBRANCH  16  19
ENDBRANCH  10  13
BRANCH   1  27
ATOM     26  C   LIG    1       -4.962   9.298  -0.678  0.00  0.00    +0.250 C 
ATOM     27  O   LIG    1       -4.659   8.150  -1.474  0.00  0.00    -0.320 OA
ENDBRANCH   1  27
TORSDOF 3
