REMARK  Name = ZINCrD00000725gS.0
REMARK                            x       y       z     vdW  Elec       q    Type
REMARK                         _______ _______ _______ _____ _____    ______ ____
ROOT
ATOM      1  C   LIG    1        2.388   0.109  -0.060  0.00  0.00    +0.320 A 
ATOM      2  C   LIG    1        1.228  -0.654  -0.051  0.00  0.00    -0.020 A 
ATOM      3  C   LIG    1        0.001  -0.014  -0.076  0.00  0.00    -0.030 A 
ATOM      4  C   LIG    1       -0.022   1.373  -0.110  0.00  0.00    -0.050 A 
ATOM      5  C   LIG    1        1.172   2.068  -0.117  0.00  0.00    +0.300 A 
ATOM      6  N   LIG    1        2.326   1.430  -0.093  0.00  0.00    -0.520 NA
ENDROOT
BRANCH   1   7
ATOM      7  O   LIG    1        3.597  -0.506  -0.035  0.00  0.00    -0.240 OA
BRANCH   7  11
ATOM      8  C   LIG    1        6.976   1.842  -0.372  0.00  0.00    +0.140 A 
ATOM      9  C   LIG    1        6.287   1.786   0.831  0.00  0.00    +0.000 A 
ATOM     10  C   LIG    1        5.156   1.001   0.944  0.00  0.00    +0.060 A 
ATOM     11  C   LIG    1        4.710   0.268  -0.146  0.00  0.00    +0.050 A 
ATOM     12  C   LIG    1        5.402   0.319  -1.347  0.00  0.00    +0.060 A 
ATOM     13  C   LIG    1        6.529   1.109  -1.461  0.00  0.00    -0.060 A 
BRANCH   8  14
ATOM     14  O   LIG    1        8.089   2.615  -0.483  0.00  0.00    -0.310 OA
BRANCH  14  16
ATOM     15  C   LIG    1        9.970   3.544  -1.683  0.00  0.00    +0.070 C 
ATOM     16  C   LIG    1        8.748   2.625  -1.750  0.00  0.00    +0.170 C 
ENDBRANCH  14  16
ENDBRANCH   8  14
ENDBRANCH   7  11
ENDBRANCH   1   7
BRANCH   3  17
ATOM     17  C   LIG    1       -1.282  -0.805  -0.068  0.00  0.00    +0.340 C 
BRANCH  17  18
ATOM     18  N   LIG    1       -1.685  -1.095  -1.446  0.00  0.00    -0.720 N 
ATOM     19  H   LIG    1       -1.143  -0.782  -2.186  0.00  0.00    +0.400 HD
ATOM     20  C   LIG    1       -2.811  -1.797  -1.685  0.00  0.00    +0.580 C 
ATOM     21  O   LIG    1       -3.491  -2.190  -0.756  0.00  0.00    -0.540 OA
BRANCH  20  22
ATOM     22  C   LIG    1       -3.217  -2.089  -3.072  0.00  0.00    -0.260 A 
ATOM     23  C   LIG    1       -4.366  -2.812  -3.322  0.00  0.00    +0.400 A 
ATOM     24  N   LIG    1       -4.744  -3.076  -4.587  0.00  0.00    -0.600 N 
ATOM     25  H   LIG    1       -5.556  -3.582  -4.747  0.00  0.00    +0.420 HD
ATOM     26  C   LIG    1       -4.010  -2.654  -5.633  0.00  0.00    +0.520 A 
ATOM     27  C   LIG    1       -2.828  -1.918  -5.426  0.00  0.00    -0.080 A 
ATOM     28  O   LIG    1       -4.372  -2.911  -6.769  0.00  0.00    -0.530 OA
ATOM     29  C   LIG    1       -2.429  -1.635  -4.157  0.00  0.00    +0.140 A 
ENDBRANCH  20  22
ENDBRANCH  17  18
ENDBRANCH   3  17
TORSDOF 7
