REMARK  Name = ZINCkj00000y7NvV.0
REMARK                            x       y       z     vdW  Elec       q    Type
REMARK                         _______ _______ _______ _____ _____    ______ ____
ROOT
ATOM      1  N   LIG    1        2.131   0.467  -1.607  0.00  0.00    -0.380 N 
ATOM      2  C   LIG    1        1.515   0.788  -2.901  0.00  0.00    +0.270 C 
ATOM      3  C   LIG    1        0.244  -0.045  -3.082  0.00  0.00    +0.240 C 
ATOM      4  N   LIG    1       -0.692   0.250  -1.988  0.00  0.00    -0.530 NA
ATOM      5  C   LIG    1       -0.079  -0.044  -0.684  0.00  0.00    +0.280 C 
ATOM      6  C   LIG    1       -1.949  -0.490  -2.157  0.00  0.00    +0.250 C 
ATOM      7  C   LIG    1        1.194   0.789  -0.523  0.00  0.00    +0.300 C 
ATOM      8  H   LIG    1        2.355  -0.517  -1.577  0.00  0.00    +0.430 HD
ENDROOT
BRANCH   5   9
ATOM      9  C   LIG    1       -1.049   0.302   0.416  0.00  0.00    +0.160 A 
ATOM     10  N   LIG    1       -1.327  -0.428   1.470  0.00  0.00    -0.450 NA
ATOM     11  C   LIG    1       -2.238   0.274   2.167  0.00  0.00    +0.180 A 
ATOM     12  N   LIG    1       -2.462   1.375   1.514  0.00  0.00    -0.360 NA
ATOM     13  C   LIG    1       -2.879  -0.139   3.466  0.00  0.00    +0.220 C 
ATOM     14  O   LIG    1       -1.785   1.413   0.509  0.00  0.00    +0.110 OA
ENDBRANCH   5   9
BRANCH   1  15
ATOM     15  C   LIG    1        3.361   1.253  -1.442  0.00  0.00    +0.280 C 
BRANCH  15  16
ATOM     16  C   LIG    1        4.384   0.828  -2.496  0.00  0.00    +0.160 C 
BRANCH  16  17
ATOM     17  C   LIG    1        5.665   1.647  -2.324  0.00  0.00    -0.020 C 
ATOM     18  C   LIG    1        6.215   1.443  -0.911  0.00  0.00    +0.030 C 
ATOM     19  C   LIG    1        5.355   3.129  -2.542  0.00  0.00    +0.030 C 
ENDBRANCH  16  17
BRANCH  16  21
ATOM     20  C   LIG    1        5.059  -1.217  -3.550  0.00  0.00    +0.230 C 
ATOM     21  O   LIG    1        4.682  -0.561  -2.338  0.00  0.00    -0.390 OA
ENDBRANCH  16  21
ENDBRANCH  15  16
ENDBRANCH   1  15
TORSDOF 5
