REMARK  Name = ZINCkj00000y7NvV.1
REMARK                            x       y       z     vdW  Elec       q    Type
REMARK                         _______ _______ _______ _____ _____    ______ ____
ROOT
ATOM      1  N   LIG    1       -1.806   0.521   3.631  0.00  0.00    -0.390 N 
ATOM      2  C   LIG    1       -0.432   1.039   3.574  0.00  0.00    +0.290 C 
ATOM      3  C   LIG    1        0.429   0.317   4.612  0.00  0.00    +0.230 C 
ATOM      4  N   LIG    1       -0.139   0.532   5.950  0.00  0.00    -0.510 NA
ATOM      5  C   LIG    1       -1.523   0.040   6.016  0.00  0.00    +0.330 C 
ATOM      6  C   LIG    1        0.693  -0.100   6.983  0.00  0.00    +0.240 C 
ATOM      7  C   LIG    1       -2.368   0.765   4.966  0.00  0.00    +0.300 C 
ATOM      8  H   LIG    1       -1.799  -0.471   3.445  0.00  0.00    +0.420 HD
ENDROOT
BRANCH   5   9
ATOM      9  C   LIG    1       -1.544  -1.442   5.742  0.00  0.00    +0.090 A 
ATOM     10  N   LIG    1       -2.212  -2.350   6.411  0.00  0.00    -0.440 NA
ATOM     11  C   LIG    1       -1.929  -3.521   5.814  0.00  0.00    +0.190 A 
ATOM     12  N   LIG    1       -1.118  -3.270   4.830  0.00  0.00    -0.360 NA
ATOM     13  C   LIG    1       -2.457  -4.875   6.211  0.00  0.00    +0.220 C 
ATOM     14  O   LIG    1       -0.888  -2.080   4.768  0.00  0.00    +0.060 OA
ENDBRANCH   5   9
BRANCH   1  15
ATOM     15  C   LIG    1       -2.628   1.202   2.622  0.00  0.00    +0.280 C 
BRANCH  15  16
ATOM     16  C   LIG    1       -4.016   0.560   2.576  0.00  0.00    +0.150 C 
BRANCH  16  17
ATOM     17  C   LIG    1       -4.913   1.351   1.622  0.00  0.00    -0.010 C 
ATOM     18  C   LIG    1       -6.316   0.740   1.617  0.00  0.00    +0.050 C 
ATOM     19  C   LIG    1       -4.328   1.296   0.209  0.00  0.00    +0.040 C 
ENDBRANCH  16  17
BRANCH  16  21
ATOM     20  C   LIG    1       -4.383  -1.762   3.045  0.00  0.00    +0.200 C 
ATOM     21  O   LIG    1       -3.902  -0.788   2.116  0.00  0.00    -0.370 OA
ENDBRANCH  16  21
ENDBRANCH  15  16
ENDBRANCH   1  15
TORSDOF 5
