REMARK  Name = ZINCvU0000000F1Q.0
REMARK                            x       y       z     vdW  Elec       q    Type
REMARK                         _______ _______ _______ _____ _____    ______ ____
ROOT
ATOM      1  N   LIG    1        0.241   4.466   0.273  0.00  0.00    -0.560 N 
ATOM      2  C   LIG    1        1.508   4.909   0.403  0.00  0.00    +0.560 C 
ATOM      3  O   LIG    1        1.771   6.075   0.179  0.00  0.00    -0.530 OA
ENDROOT
BRANCH   1  13
ATOM      4  C   LIG    1       -5.529   3.705  -1.152  0.00  0.00    +0.110 C 
ATOM      5  C   LIG    1       -4.639   3.638   0.063  0.00  0.00    +0.520 C 
ATOM      6  N   LIG    1       -3.349   4.015  -0.026  0.00  0.00    -0.560 N 
ATOM      7  C   LIG    1       -2.705   4.066  -1.270  0.00  0.00    +0.190 A 
ATOM      8  C   LIG    1       -3.308   3.467  -2.369  0.00  0.00    -0.040 A 
ATOM      9  C   LIG    1       -2.693   3.513  -3.605  0.00  0.00    +0.050 A 
ATOM     10  C   LIG    1       -1.477   4.156  -3.747  0.00  0.00    -0.020 A 
ATOM     11  C   LIG    1       -0.875   4.750  -2.654  0.00  0.00    +0.060 A 
ATOM     12  C   LIG    1       -1.484   4.707  -1.411  0.00  0.00    -0.140 A 
ATOM     13  C   LIG    1       -0.798   5.362  -0.241  0.00  0.00    +0.310 C 
ATOM     14  C   LIG    1       -1.805   5.658   0.871  0.00  0.00    +0.040 C 
ATOM     15  C   LIG    1       -2.593   4.380   1.181  0.00  0.00    +0.220 C 
ATOM     16  C   LIG    1       -3.558   4.634   2.340  0.00  0.00    +0.050 C 
ATOM     17  O   LIG    1       -5.085   3.244   1.119  0.00  0.00    -0.510 OA
ENDBRANCH   1  13
BRANCH   1  18
ATOM     18  C   LIG    1       -0.081   3.154   0.629  0.00  0.00    +0.140 A 
ATOM     19  C   LIG    1       -0.499   2.252  -0.341  0.00  0.00    +0.010 A 
ATOM     20  C   LIG    1       -0.817   0.955   0.015  0.00  0.00    +0.030 A 
ATOM     21  C   LIG    1       -0.718   0.555   1.335  0.00  0.00    +0.010 A 
ATOM     22  C   LIG    1       -0.307   1.452   2.304  0.00  0.00    +0.020 A 
ATOM     23  C   LIG    1        0.017   2.748   1.954  0.00  0.00    +0.000 A 
ENDBRANCH   1  18
BRANCH   2  24
ATOM     24  C   LIG    1        2.567   3.985   0.813  0.00  0.00    -0.090 C 
ATOM     25  C   LIG    1        3.811   4.448   1.048  0.00  0.00    +0.130 C 
BRANCH  25  26
ATOM     26  C   LIG    1        4.876   3.519   1.461  0.00  0.00    -0.080 A 
ATOM     27  C   LIG    1        4.600   2.157   1.615  0.00  0.00    +0.030 A 
ATOM     28  C   LIG    1        5.604   1.293   1.997  0.00  0.00    +0.010 A 
ATOM     29  C   LIG    1        6.880   1.772   2.237  0.00  0.00    +0.020 A 
ATOM     30  C   LIG    1        7.160   3.119   2.091  0.00  0.00    +0.010 A 
ATOM     31  C   LIG    1        6.168   3.995   1.705  0.00  0.00    +0.040 A 
ENDBRANCH  25  26
ENDBRANCH   2  24
TORSDOF 4
