REMARK  Name = ZINCpk00001AZiJY.0
REMARK                            x       y       z     vdW  Elec       q    Type
REMARK                         _______ _______ _______ _____ _____    ______ ____
ROOT
ATOM      1  C   LIG    1       -1.486   4.612  -2.956  0.00  0.00    +0.510 C 
ATOM      2  N   LIG    1       -0.956   3.375  -2.878  0.00  0.00    -0.610 N 
ATOM      3  C   LIG    1       -1.093   2.428  -3.993  0.00  0.00    +0.270 C 
ATOM      4  C   LIG    1       -1.709   1.128  -3.466  0.00  0.00    +0.010 C 
ATOM      5  C   LIG    1       -0.855   0.597  -2.310  0.00  0.00    +0.050 C 
ATOM      6  C   LIG    1       -0.811   1.625  -1.190  0.00  0.00    -0.090 C 
ATOM      7  C   LIG    1       -2.210   1.839  -0.588  0.00  0.00    +0.270 C 
ATOM      8  N   LIG    1       -1.989   2.024   0.853  0.00  0.00    -0.730 N 
ATOM      9  H   LIG    1       -2.643   2.399   1.463  0.00  0.00    +0.410 HD
ATOM     10  C   LIG    1       -0.760   1.606   1.219  0.00  0.00    +0.520 C 
ATOM     11  O   LIG    1       -0.320   1.639   2.348  0.00  0.00    -0.530 OA
ATOM     12  C   LIG    1       -0.010   1.087   0.010  0.00  0.00    +0.070 C 
ATOM     13  C   LIG    1       -0.226   2.945  -1.675  0.00  0.00    +0.300 C 
ATOM     14  O   LIG    1       -1.365   5.383  -2.028  0.00  0.00    -0.520 OA
ENDROOT
BRANCH   1  15
ATOM     15  C   LIG    1       -2.230   5.036  -4.196  0.00  0.00    +0.110 C 
BRANCH  15  21
ATOM     16  C   LIG    1       -1.878   7.517  -4.324  0.00  0.00    +0.160 A 
ATOM     17  C   LIG    1       -2.334   8.820  -4.176  0.00  0.00    +0.020 A 
ATOM     18  C   LIG    1       -3.619   9.053  -3.723  0.00  0.00    +0.030 A 
ATOM     19  C   LIG    1       -4.451   7.990  -3.424  0.00  0.00    -0.010 A 
ATOM     20  C   LIG    1       -4.002   6.691  -3.577  0.00  0.00    +0.030 A 
ATOM     21  C   LIG    1       -2.719   6.452  -4.029  0.00  0.00    -0.100 A 
BRANCH  16  23
ATOM     22  C   LIG    1       -0.016   8.103  -5.683  0.00  0.00    +0.540 C 
ATOM     23  N   LIG    1       -0.577   7.278  -4.776  0.00  0.00    -0.670 N 
ATOM     24  H   LIG    1       -0.077   6.518  -4.438  0.00  0.00    +0.410 HD
ATOM     25  O   LIG    1       -0.609   9.100  -6.046  0.00  0.00    -0.520 OA
BRANCH  22  27
ATOM     26  C   LIG    1        1.867   8.611  -7.127  0.00  0.00    +0.160 C 
ATOM     27  C   LIG    1        1.314   7.797  -6.232  0.00  0.00    -0.090 C 
ENDBRANCH  22  27
ENDBRANCH  16  23
ENDBRANCH  15  21
ENDBRANCH   1  15
TORSDOF 4
