REMARK  Name = ZINCvU00000006kW.0
REMARK                            x       y       z     vdW  Elec       q    Type
REMARK                         _______ _______ _______ _____ _____    ______ ____
ROOT
ATOM      1  S   LIG    1        4.232   6.285  -0.547  0.00  0.00    +0.030 S 
ENDROOT
BRANCH   1   2
ATOM      2  C   LIG    1        4.006   8.017  -0.313  0.00  0.00    +0.080 A 
ATOM      3  C   LIG    1        4.970   8.937  -0.789  0.00  0.00    -0.060 A 
ATOM      4  C   LIG    1        6.131   8.538  -1.458  0.00  0.00    +0.050 A 
ATOM      5  C   LIG    1        7.015   9.484  -1.889  0.00  0.00    +0.050 A 
ATOM      6  C   LIG    1        6.778  10.838  -1.672  0.00  0.00    +0.050 A 
ATOM      7  C   LIG    1        5.649  11.261  -1.032  0.00  0.00    +0.050 A 
ATOM      8  C   LIG    1        4.726  10.317  -0.573  0.00  0.00    -0.050 A 
ATOM      9  C   LIG    1        3.540  10.678   0.114  0.00  0.00    +0.150 A 
ATOM     10  N   LIG    1        2.719   9.723   0.515  0.00  0.00    -0.240 NA
ATOM     11  N   LIG    1        2.937   8.476   0.315  0.00  0.00    -0.270 NA
BRANCH   9  12
ATOM     12  C   LIG    1        3.227  12.100   0.380  0.00  0.00    -0.040 A 
ATOM     13  C   LIG    1        2.754  12.491   1.632  0.00  0.00    +0.050 A 
ATOM     14  C   LIG    1        2.469  13.819   1.875  0.00  0.00    +0.010 A 
ATOM     15  C   LIG    1        2.641  14.761   0.875  0.00  0.00    +0.030 A 
ATOM     16  C   LIG    1        3.104  14.378  -0.371  0.00  0.00    +0.010 A 
ATOM     17  C   LIG    1        3.398  13.054  -0.624  0.00  0.00    +0.030 A 
ENDBRANCH   9  12
ENDBRANCH   1   2
BRANCH   1  18
ATOM     18  C   LIG    1        2.733   5.662   0.255  0.00  0.00    -0.010 C 
ATOM     19  C   LIG    1        2.782   5.987   1.749  0.00  0.00    +0.100 C 
BRANCH  18  20
ATOM     20  C   LIG    1        2.647   4.169   0.068  0.00  0.00    +0.420 C 
ATOM     21  O   LIG    1        3.656   3.522  -0.119  0.00  0.00    -0.440 OA
BRANCH  20  25
ATOM     22  C   LIG    1       -1.117   2.232   0.192  0.00  0.00    +0.190 A 
ATOM     23  C   LIG    1        0.040   1.487  -0.017  0.00  0.00    +0.000 A 
ATOM     24  C   LIG    1        1.260   2.110  -0.060  0.00  0.00    +0.110 A 
ATOM     25  C   LIG    1        1.342   3.497   0.113  0.00  0.00    -0.180 A 
ATOM     26  C   LIG    1        0.176   4.242   0.329  0.00  0.00    +0.090 A 
ATOM     27  C   LIG    1       -1.040   3.611   0.371  0.00  0.00    -0.020 A 
BRANCH  22  30
ATOM     28  C   LIG    1       -3.772  -0.386   0.658  0.00  0.00    +0.110 C 
ATOM     29  C   LIG    1       -2.458   0.348   0.727  0.00  0.00    +0.510 C 
ATOM     30  N   LIG    1       -2.356   1.596   0.229  0.00  0.00    -0.680 N 
ATOM     31  H   LIG    1       -3.145   2.051  -0.104  0.00  0.00    +0.420 HD
ATOM     32  O   LIG    1       -1.492  -0.185   1.230  0.00  0.00    -0.520 OA
ENDBRANCH  22  30
ENDBRANCH  20  25
ENDBRANCH  18  20
ENDBRANCH   1  18
TORSDOF 6
