REMARK  Name = ZINCnE000001Ub1Y.0
REMARK                            x       y       z     vdW  Elec       q    Type
REMARK                         _______ _______ _______ _____ _____    ______ ____
ROOT
ATOM      1  C   LIG    1       -3.456   3.809   0.041  0.00  0.00    +0.320 A 
ATOM      2  C   LIG    1       -2.186   4.379   0.037  0.00  0.00    -0.050 A 
ATOM      3  C   LIG    1       -1.069   3.574   0.027  0.00  0.00    +0.090 A 
ATOM      4  C   LIG    1       -1.211   2.184   0.020  0.00  0.00    -0.170 A 
ATOM      5  C   LIG    1       -2.488   1.615   0.017  0.00  0.00    +0.130 A 
ATOM      6  C   LIG    1       -3.601   2.425   0.034  0.00  0.00    -0.160 A 
ENDROOT
BRANCH   4   7
ATOM      7  C   LIG    1       -0.016   1.318   0.009  0.00  0.00    +0.280 A 
ATOM      8  N   LIG    1        0.002  -0.004   0.002  0.00  0.00    -0.510 NA
ATOM      9  C   LIG    1        1.300  -0.346  -0.012  0.00  0.00    +0.200 A 
ATOM     10  N   LIG    1        1.996   0.752  -0.013  0.00  0.00    -0.410 NA
ATOM     11  O   LIG    1        1.265   1.720  -0.001  0.00  0.00    +0.060 OA
BRANCH   9  12
ATOM     12  C   LIG    1        1.850  -1.749  -0.024  0.00  0.00    +0.060 C 
ATOM     13  C   LIG    1        3.359  -1.917   0.164  0.00  0.00    +0.040 C 
ATOM     14  C   LIG    1        2.728  -2.153  -1.210  0.00  0.00    +0.050 C 
ENDBRANCH   9  12
ENDBRANCH   4   7
BRANCH   1  15
ATOM     15  N   LIG    1       -4.584   4.626   0.051  0.00  0.00    -1.070 NA
BRANCH  15  17
ATOM     16  O   LIG    1       -6.247   3.296  -1.197  0.00  0.00    -1.010 OA
ATOM     17  S   LIG    1       -6.095   3.950   0.056  0.00  0.00    +2.630 S 
ATOM     18  O   LIG    1       -6.233   3.282   1.303  0.00  0.00    -1.020 OA
BRANCH  17  19
ATOM     19  C   LIG    1       -7.258   5.273   0.070  0.00  0.00    -0.720 A 
ATOM     20  C   LIG    1       -7.772   5.857  -1.014  0.00  0.00    +0.130 A 
ATOM     21  C   LIG    1       -8.670   6.878  -0.755  0.00  0.00    -0.020 A 
ATOM     22  C   LIG    1       -8.886   7.124   0.538  0.00  0.00    -0.030 A 
ATOM     23  S   LIG    1       -7.926   6.021   1.515  0.00  0.00    +0.200 S 
ENDBRANCH  17  19
ENDBRANCH  15  17
ENDBRANCH   1  15
TORSDOF 5
