REMARK  Name = ZINCtV00000L6kJq.0
REMARK                            x       y       z     vdW  Elec       q    Type
REMARK                         _______ _______ _______ _____ _____    ______ ____
ROOT
ATOM      1  C   LIG    1        3.995   2.620  -0.028  0.00  0.00    +0.160 A 
ATOM      2  C   LIG    1        4.456   1.316   0.135  0.00  0.00    +0.020 A 
ATOM      3  C   LIG    1        3.589   0.267   0.135  0.00  0.00    +0.100 A 
ATOM      4  C   LIG    1        2.204   0.479  -0.031  0.00  0.00    +0.100 A 
ATOM      5  N   LIG    1        1.209  -0.430  -0.057  0.00  0.00    -0.460 NA
ATOM      6  C   LIG    1        0.005  -0.003  -0.223  0.00  0.00    +0.330 A 
ATOM      7  S   LIG    1       -0.007   1.748  -0.378  0.00  0.00    +0.080 S 
ATOM      8  C   LIG    1        1.745   1.790  -0.195  0.00  0.00    -0.160 A 
ATOM      9  C   LIG    1        2.641   2.855  -0.193  0.00  0.00    +0.070 A 
ENDROOT
BRANCH   1  12
ATOM     10  O   LIG    1        3.444   5.007   1.015  0.00  0.00    -0.510 OA
ATOM     11  C   LIG    1        4.527   4.884   0.476  0.00  0.00    +0.560 C 
ATOM     12  N   LIG    1        4.898   3.690  -0.027  0.00  0.00    -0.660 N 
ATOM     13  H   LIG    1        5.791   3.571  -0.387  0.00  0.00    +0.410 HD
BRANCH  11  14
ATOM     14  C   LIG    1        5.437   6.044   0.373  0.00  0.00    -0.130 A 
ATOM     15  C   LIG    1        6.684   5.905  -0.240  0.00  0.00    +0.050 A 
ATOM     16  C   LIG    1        7.527   6.993  -0.338  0.00  0.00    +0.030 A 
ATOM     17  C   LIG    1        7.144   8.217   0.178  0.00  0.00    +0.060 A 
ATOM     18  C   LIG    1        5.911   8.362   0.793  0.00  0.00    -0.040 A 
ATOM     19 CL   LIG    1        5.440   9.903   1.438  0.00  0.00    -0.050 Cl
ATOM     20  C   LIG    1        5.056   7.282   0.892  0.00  0.00    +0.100 A 
ENDBRANCH  11  14
ENDBRANCH   1  12
BRANCH   6  21
ATOM     21  N   LIG    1       -1.120  -0.809  -0.273  0.00  0.00    -0.630 N 
ATOM     22  H   LIG    1       -1.995  -0.412  -0.401  0.00  0.00    +0.420 HD
ATOM     23  C   LIG    1       -0.998  -2.145  -0.143  0.00  0.00    +0.560 C 
ATOM     24  O   LIG    1        0.099  -2.643   0.018  0.00  0.00    -0.460 OA
BRANCH  23  25
ATOM     25  C   LIG    1       -2.199  -3.005  -0.196  0.00  0.00    -0.120 A 
ATOM     26  C   LIG    1       -3.461  -2.436  -0.375  0.00  0.00    +0.050 A 
ATOM     27  C   LIG    1       -4.578  -3.245  -0.430  0.00  0.00    +0.030 A 
ATOM     28  C   LIG    1       -4.450  -4.616  -0.296  0.00  0.00    +0.060 A 
ATOM     29  C   LIG    1       -3.202  -5.187  -0.112  0.00  0.00    -0.040 A 
ATOM     30 CL   LIG    1       -3.053  -6.908   0.054  0.00  0.00    -0.050 Cl
ATOM     31  C   LIG    1       -2.076  -4.389  -0.062  0.00  0.00    +0.100 A 
ENDBRANCH  23  25
ENDBRANCH   6  21
TORSDOF 4
