REMARK  Name = ZINCrD000006Vo2F.0
REMARK                            x       y       z     vdW  Elec       q    Type
REMARK                         _______ _______ _______ _____ _____    ______ ____
ROOT
ATOM      1  O   LIG    1       -2.800  10.890   0.672  0.00  0.00    -0.490 OA
ATOM      2  C   LIG    1       -2.411  10.254   1.623  0.00  0.00    +0.480 C 
ENDROOT
BRANCH   2   3
ATOM      3  O   LIG    1       -1.725   9.116   1.435  0.00  0.00    -0.350 OA
BRANCH   3   4
ATOM      4  C   LIG    1       -1.486   8.710   0.062  0.00  0.00    +0.360 C 
BRANCH   4   5
ATOM      5  C   LIG    1       -0.708   7.419   0.048  0.00  0.00    -0.040 A 
ATOM      6  C   LIG    1       -1.219   6.168   0.045  0.00  0.00    +0.000 A 
ATOM      7  C   LIG    1       -0.070   5.328   0.030  0.00  0.00    +0.060 A 
ATOM      8  N   LIG    1        0.966   6.129   0.031  0.00  0.00    -0.340 NA
ATOM      9  O   LIG    1        0.627   7.290   0.036  0.00  0.00    +0.120 OA
BRANCH   7  10
ATOM     10  C   LIG    1       -0.050   3.844   0.022  0.00  0.00    -0.030 A 
ATOM     11  C   LIG    1        1.164   3.161   0.007  0.00  0.00    +0.040 A 
ATOM     12  C   LIG    1        1.177   1.781   0.000  0.00  0.00    +0.010 A 
ATOM     13  C   LIG    1       -0.013   1.076   0.008  0.00  0.00    +0.020 A 
ATOM     14  C   LIG    1       -1.221   1.748   0.017  0.00  0.00    +0.010 A 
ATOM     15  C   LIG    1       -1.246   3.128   0.030  0.00  0.00    +0.040 A 
ENDBRANCH   7  10
ENDBRANCH   4   5
ENDBRANCH   3   4
ENDBRANCH   2   3
BRANCH   2  16
ATOM     16  C   LIG    1       -2.697  10.740   3.021  0.00  0.00    +0.150 C 
BRANCH  16  17
ATOM     17  C   LIG    1       -3.488  12.048   2.955  0.00  0.00    -0.310 C 
BRANCH  17  18
ATOM     18  S   LIG    1       -3.832  12.632   4.637  0.00  0.00    +2.510 S 
ATOM     19  O   LIG    1       -2.632  13.043   5.278  0.00  0.00    -0.920 OA
ATOM     20  O   LIG    1       -4.750  11.764   5.288  0.00  0.00    -0.930 OA
BRANCH  18  21
ATOM     21  C   LIG    1       -4.736  14.127   4.407  0.00  0.00    -0.680 A 
ATOM     22  C   LIG    1       -4.065  15.333   4.318  0.00  0.00    +0.160 A 
ATOM     23  C   LIG    1       -4.772  16.506   4.132  0.00  0.00    -0.020 A 
ATOM     24  C   LIG    1       -6.154  16.474   4.047  0.00  0.00    +0.160 A 
ATOM     25  C   LIG    1       -6.825  15.267   4.142  0.00  0.00    -0.020 A 
ATOM     26  F   LIG    1       -6.847  17.620   3.871  0.00  0.00    -0.130 F 
ATOM     27  C   LIG    1       -6.115  14.094   4.322  0.00  0.00    +0.160 A 
ENDBRANCH  18  21
ENDBRANCH  17  18
ENDBRANCH  16  17
ENDBRANCH   2  16
TORSDOF 8
