REMARK  Name = ZINCrg00000J002i.0
REMARK                            x       y       z     vdW  Elec       q    Type
REMARK                         _______ _______ _______ _____ _____    ______ ____
ROOT
ATOM      1  N   LIG    1        5.808  -1.686  -1.936  0.00  0.00    -0.710 N 
ATOM      2  H   LIG    1        5.636  -1.407  -2.849  0.00  0.00    +0.410 HD
ENDROOT
BRANCH   1   5
ATOM      3  C   LIG    1        8.655  -1.917   0.362  0.00  0.00    +0.390 A 
ATOM      4  C   LIG    1        7.349  -2.010  -0.110  0.00  0.00    -0.150 A 
ATOM      5  C   LIG    1        7.091  -1.612  -1.419  0.00  0.00    +0.440 A 
ATOM      6  N   LIG    1        8.098  -1.166  -2.168  0.00  0.00    -0.590 NA
ATOM      7  C   LIG    1        9.320  -1.087  -1.683  0.00  0.00    +0.540 A 
ATOM      8  N   LIG    1        9.604  -1.454  -0.450  0.00  0.00    -0.560 NA
BRANCH   3  13
ATOM      9  C   LIG    1        9.173  -3.756   1.743  0.00  0.00    +0.190 C 
ATOM     10  C   LIG    1       10.585  -3.982   2.323  0.00  0.00    +0.040 C 
ATOM     11  C   LIG    1       10.875  -2.650   3.063  0.00  0.00    +0.020 C 
ATOM     12  C   LIG    1       10.186  -1.619   2.135  0.00  0.00    +0.210 C 
ATOM     13  N   LIG    1        8.963  -2.299   1.658  0.00  0.00    -0.480 N 
BRANCH   9  14
ATOM     14  C   LIG    1        9.073  -4.379   0.349  0.00  0.00    +0.160 C 
BRANCH  14  15
ATOM     15  O   LIG    1       10.147  -3.901  -0.464  0.00  0.00    -0.550 OA
ATOM     16  H   LIG    1       10.148  -4.255  -1.363  0.00  0.00    +0.370 HD
ENDBRANCH  14  15
ENDBRANCH   9  14
ENDBRANCH   3  13
ENDBRANCH   1   5
BRANCH   1  17
ATOM     17  C   LIG    1        4.710  -2.185  -1.104  0.00  0.00    +0.290 C 
BRANCH  17  18
ATOM     18  C   LIG    1        3.409  -2.163  -1.909  0.00  0.00    +0.170 C 
BRANCH  18  19
ATOM     19  C   LIG    1        2.261  -2.563  -1.019  0.00  0.00    +0.250 A 
ATOM     20  N   LIG    1        1.874  -3.784  -0.754  0.00  0.00    -0.320 NA
ATOM     21  N   LIG    1        0.865  -3.777   0.040  0.00  0.00    -0.030 NA
ATOM     22  N   LIG    1        0.543  -2.564   0.340  0.00  0.00    -0.070 NA
ATOM     23  N   LIG    1        1.440  -1.728  -0.346  0.00  0.00    -0.330 N 
BRANCH  23  24
ATOM     24  C   LIG    1        1.479  -0.326  -0.331  0.00  0.00    +0.120 A 
ATOM     25  C   LIG    1        1.662   0.378  -1.513  0.00  0.00    +0.030 A 
ATOM     26  C   LIG    1        1.700   1.759  -1.494  0.00  0.00    +0.040 A 
ATOM     27  C   LIG    1        1.555   2.440  -0.300  0.00  0.00    +0.040 A 
ATOM     28  C   LIG    1        1.372   1.742   0.880  0.00  0.00    +0.040 A 
ATOM     29  C   LIG    1        1.334   0.361   0.867  0.00  0.00    +0.050 A 
ENDBRANCH  23  24
ENDBRANCH  18  19
ENDBRANCH  17  18
ENDBRANCH   1  17
TORSDOF 8
