REMARK  Name = ZINCrH00000tj12f.0
REMARK                            x       y       z     vdW  Elec       q    Type
REMARK                         _______ _______ _______ _____ _____    ______ ____
ROOT
ATOM      1  C   LIG    1        0.045  -0.001   0.164  0.00  0.00    +0.130 A 
ATOM      2  C   LIG    1        1.255  -0.586  -0.203  0.00  0.00    +0.020 A 
ATOM      3  C   LIG    1        1.382  -1.945  -0.242  0.00  0.00    +0.110 A 
ATOM      4  C   LIG    1        0.290  -2.755   0.088  0.00  0.00    -0.120 A 
ATOM      5  C   LIG    1       -0.934  -2.170   0.461  0.00  0.00    +0.160 A 
ATOM      6  O   LIG    1       -1.983  -2.958   0.780  0.00  0.00    -0.260 OA
ATOM      7  C   LIG    1       -1.889  -4.295   0.754  0.00  0.00    +0.520 A 
ATOM      8  C   LIG    1       -0.691  -4.952   0.389  0.00  0.00    -0.220 A 
ATOM      9  C   LIG    1       -0.370  -6.427   0.292  0.00  0.00    +0.120 C 
ATOM     10  C   LIG    1        0.917  -6.504  -0.558  0.00  0.00    +0.050 C 
ATOM     11  C   LIG    1        1.555  -5.121  -0.300  0.00  0.00    +0.100 C 
ATOM     12  O   LIG    1       -2.863  -4.963   1.053  0.00  0.00    -0.450 OA
ATOM     13  C   LIG    1        0.398  -4.216   0.055  0.00  0.00    +0.000 A 
ATOM     14  C   LIG    1       -1.045  -0.789   0.500  0.00  0.00    +0.020 A 
ENDROOT
BRANCH   1  15
ATOM     15  O   LIG    1       -0.066   1.352   0.199  0.00  0.00    -0.280 OA
BRANCH  15  16
ATOM     16  C   LIG    1        0.002   1.940   1.409  0.00  0.00    +0.510 C 
ATOM     17  O   LIG    1        0.274   1.280   2.391  0.00  0.00    -0.460 OA
BRANCH  16  21
ATOM     18  C   LIG    1       -0.353   6.019   4.260  0.00  0.00    +0.140 C 
ATOM     19  C   LIG    1       -0.427   5.356   2.909  0.00  0.00    -0.020 A 
ATOM     20  C   LIG    1       -0.192   4.001   2.794  0.00  0.00    +0.100 A 
ATOM     21  C   LIG    1       -0.256   3.389   1.540  0.00  0.00    -0.070 A 
ATOM     22  C   LIG    1       -0.569   4.151   0.413  0.00  0.00    +0.100 A 
ATOM     23  C   LIG    1       -0.808   5.503   0.544  0.00  0.00    +0.110 A 
ATOM     24  C   LIG    1       -0.738   6.105   1.788  0.00  0.00    -0.020 A 
BRANCH  24  25
ATOM     25  N   LIG    1       -0.995   7.556   1.920  0.00  0.00    +0.020 N 
ATOM     26  O   LIG    1       -1.050   8.067   3.024  0.00  0.00    -0.140 OA
ATOM     27  O   LIG    1       -1.151   8.240   0.924  0.00  0.00    -0.150 OA
ENDBRANCH  24  25
ENDBRANCH  16  21
ENDBRANCH  15  16
ENDBRANCH   1  15
TORSDOF 4
