REMARK  Name = ZINCrD000000CCPi.0
REMARK                            x       y       z     vdW  Elec       q    Type
REMARK                         _______ _______ _______ _____ _____    ______ ____
ROOT
ATOM      1  O   LIG    1       -1.009   3.160  -0.623  0.00  0.00    -0.520 OA
ATOM      2  C   LIG    1       -1.184   2.143   0.019  0.00  0.00    +0.560 C 
ATOM      3  N   LIG    1       -0.211   1.682   0.831  0.00  0.00    -0.610 N 
ATOM      4  C   LIG    1        1.114   2.319   0.857  0.00  0.00    +0.300 C 
ATOM      5  C   LIG    1        1.479   2.624   2.314  0.00  0.00    +0.180 C 
ATOM      6  N   LIG    1        1.364   1.395   3.112  0.00  0.00    -0.530 NA
ATOM      7  C   LIG    1       -0.019   0.901   3.132  0.00  0.00    +0.170 C 
ATOM      8  C   LIG    1       -0.446   0.526   1.709  0.00  0.00    +0.290 C 
ENDROOT
BRANCH   2   9
ATOM      9  C   LIG    1       -2.464   1.410  -0.090  0.00  0.00    -0.070 A 
ATOM     10  C   LIG    1       -2.474   0.015  -0.104  0.00  0.00    +0.040 A 
ATOM     11  C   LIG    1       -3.672  -0.662  -0.202  0.00  0.00    +0.130 A 
ATOM     12  C   LIG    1       -4.861   0.039  -0.296  0.00  0.00    -0.640 A 
ATOM     13  C   LIG    1       -4.857   1.423  -0.288  0.00  0.00    +0.140 A 
ATOM     14  C   LIG    1       -3.667   2.112  -0.186  0.00  0.00    +0.060 A 
BRANCH  12  15
ATOM     15  S   LIG    1       -6.386  -0.833  -0.428  0.00  0.00    +2.470 S 
ATOM     16  O   LIG    1       -7.350   0.064   0.105  0.00  0.00    -0.880 OA
ATOM     17  O   LIG    1       -6.128  -2.085   0.194  0.00  0.00    -0.880 OA
BRANCH  15  18
ATOM     18  C   LIG    1       -6.633  -1.047  -2.212  0.00  0.00    -0.050 C 
ATOM     19  F   LIG    1       -5.566  -1.778  -2.746  0.00  0.00    -0.160 F 
ATOM     20  F   LIG    1       -6.694   0.207  -2.828  0.00  0.00    -0.160 F 
ENDBRANCH  15  18
ENDBRANCH  12  15
ENDBRANCH   2   9
BRANCH   6  21
ATOM     21  C   LIG    1        1.869   1.604   4.476  0.00  0.00    +0.270 C 
BRANCH  21  22
ATOM     22  C   LIG    1        3.351   1.871   4.427  0.00  0.00    -0.170 A 
ATOM     23  C   LIG    1        3.911   3.075   4.306  0.00  0.00    +0.020 A 
ATOM     24  C   LIG    1        5.296   3.075   4.288  0.00  0.00    +0.030 A 
ATOM     25  C   LIG    1        5.859   1.869   4.385  0.00  0.00    -0.150 A 
ATOM     26 CL   LIG    1        7.567   1.558   4.383  0.00  0.00    -0.010 Cl
ATOM     27  S   LIG    1        4.606   0.641   4.514  0.00  0.00    +0.180 S 
ENDBRANCH  21  22
ENDBRANCH   6  21
TORSDOF 5
