REMARK  Name = ZINCb80000003VOj.1
REMARK                            x       y       z     vdW  Elec       q    Type
REMARK                         _______ _______ _______ _____ _____    ______ ____
ROOT
ATOM      1  C   LIG    1       -2.421   4.342   0.048  0.00  0.00    +0.180 C 
ATOM      2  C   LIG    1       -1.146   3.539   0.032  0.00  0.00    +0.060 A 
ATOM      3  N   LIG    1        0.000   4.158   0.024  0.00  0.00    -0.200 NA
ATOM      4  N   LIG    1        1.133   3.558   0.010  0.00  0.00    -0.440 N 
ATOM      5  H   LIG    1        1.946   4.086   0.005  0.00  0.00    +0.450 HD
ATOM      6  C   LIG    1        1.224   2.213   0.002  0.00  0.00    +0.500 A 
ATOM      7  C   LIG    1       -0.017   1.428   0.010  0.00  0.00    -0.110 A 
ATOM      8  O   LIG    1        2.311   1.661  -0.011  0.00  0.00    -0.510 OA
ATOM      9  C   LIG    1       -1.215   2.141   0.019  0.00  0.00    +0.040 A 
ATOM     10  C   LIG    1       -2.543   1.429   0.021  0.00  0.00    +0.150 C 
ENDROOT
BRANCH   7  11
ATOM     11  C   LIG    1        0.002  -0.004   0.002  0.00  0.00    +0.270 C 
ATOM     12  N   LIG    1        0.018  -1.140  -0.004  0.00  0.00    -0.390 NA
ENDBRANCH   7  11
TORSDOF 1
