REMARK  Name = ZINCb80000003Wf1.0
REMARK                            x       y       z     vdW  Elec       q    Type
REMARK                         _______ _______ _______ _____ _____    ______ ____
ROOT
ATOM      1  C   LIG    1        1.389   1.782  -0.002  0.00  0.00    +0.220 C 
ATOM      2  N   LIG    1       -0.016   1.341   0.009  0.00  0.00    -0.720 N 
ATOM      3  H   LIG    1       -0.802   1.910   0.016  0.00  0.00    +0.440 HD
ATOM      4  C   LIG    1        0.002  -0.004   0.002  0.00  0.00    +0.700 C 
ATOM      5  N   LIG    1        1.245  -0.498  -0.013  0.00  0.00    -0.680 N 
ATOM      6  H   LIG    1        1.455  -1.445  -0.019  0.00  0.00    +0.430 HD
ATOM      7  O   LIG    1       -0.999  -0.693   0.008  0.00  0.00    -0.540 OA
ATOM      8  C   LIG    1        2.170   0.482  -0.016  0.00  0.00    +0.530 C 
ATOM      9  O   LIG    1        3.375   0.352  -0.028  0.00  0.00    -0.460 OA
ENDROOT
BRANCH   1  10
ATOM     10  C   LIG    1        1.711   2.588   1.258  0.00  0.00    +0.050 C 
BRANCH  10  12
ATOM     11  C   LIG    1        1.121   4.630   2.572  0.00  0.00    +0.030 C 
ATOM     12  C   LIG    1        0.895   3.883   1.256  0.00  0.00    -0.020 C 
ATOM     13  C   LIG    1        1.339   4.764   0.087  0.00  0.00    +0.020 C 
ENDBRANCH  10  12
ENDBRANCH   1  10
TORSDOF 2
