REMARK  Name = ZINCpe00000MJKmM.0
REMARK                            x       y       z     vdW  Elec       q    Type
REMARK                         _______ _______ _______ _____ _____    ______ ____
ROOT
ATOM      1  N   LIG    1       -0.725   1.574  -1.182  0.00  0.00    -0.540 NA
ATOM      2  C   LIG    1       -0.013   1.086   0.008  0.00  0.00    +0.160 C 
ATOM      3  C   LIG    1       -0.731   1.580   1.266  0.00  0.00    +0.230 C 
ATOM      4  O   LIG    1       -0.815   3.008   1.231  0.00  0.00    -0.370 OA
ATOM      5  C   LIG    1       -1.503   3.517   0.086  0.00  0.00    +0.170 C 
ATOM      6  C   LIG    1       -0.792   3.042  -1.183  0.00  0.00    +0.220 C 
ENDROOT
BRANCH   6   7
ATOM      7  C   LIG    1       -1.557   3.510  -2.394  0.00  0.00    -0.030 A 
ATOM      8  C   LIG    1       -1.451   4.709  -2.998  0.00  0.00    +0.160 A 
ATOM      9  N   LIG    1       -2.298   4.728  -4.037  0.00  0.00    -0.490 NA
ATOM     10  C   LIG    1       -2.932   3.588  -4.096  0.00  0.00    +0.390 A 
ATOM     11  N   LIG    1       -2.499   2.800  -3.089  0.00  0.00    -0.440 N 
ATOM     12  C   LIG    1       -2.953   1.438  -2.795  0.00  0.00    +0.320 C 
ENDBRANCH   6   7
BRANCH   1  14
ATOM     13  C   LIG    1       -0.263  -0.446  -2.487  0.00  0.00    +0.050 C 
ATOM     14  C   LIG    1       -0.099   1.073  -2.413  0.00  0.00    +0.160 C 
ENDBRANCH   1  14
BRANCH   5  15
ATOM     15  C   LIG    1       -1.505   5.047   0.129  0.00  0.00    +0.300 C 
BRANCH  15  16
ATOM     16  N   LIG    1       -2.186   5.500   1.344  0.00  0.00    -0.720 N 
ATOM     17  H   LIG    1       -2.549   4.852   1.968  0.00  0.00    +0.400 HD
ATOM     18  C   LIG    1       -2.310   6.819   1.595  0.00  0.00    +0.510 C 
ATOM     19  O   LIG    1       -1.857   7.630   0.815  0.00  0.00    -0.520 OA
BRANCH  18  20
ATOM     20  C   LIG    1       -3.010   7.285   2.845  0.00  0.00    +0.170 C 
BRANCH  20  21
ATOM     21  C   LIG    1       -3.012   8.792   2.887  0.00  0.00    +0.020 A 
ATOM     22  N   LIG    1       -1.975   9.575   2.815  0.00  0.00    -0.340 NA
ATOM     23  O   LIG    1       -2.293  10.741   2.872  0.00  0.00    +0.100 OA
ATOM     24  C   LIG    1       -3.619  10.884   3.004  0.00  0.00    -0.030 A 
ATOM     25  C   LIG    1       -4.380  12.180   3.112  0.00  0.00    +0.180 C 
ATOM     26  C   LIG    1       -4.140   9.634   3.019  0.00  0.00    -0.060 A 
ENDBRANCH  20  21
ENDBRANCH  18  20
ENDBRANCH  15  16
ENDBRANCH   5  15
TORSDOF 6
