REMARK  Name = ZINCtV00000L6k3W.0
REMARK                            x       y       z     vdW  Elec       q    Type
REMARK                         _______ _______ _______ _____ _____    ______ ____
ROOT
ATOM      1  C   LIG    1        0.473   4.480  -0.484  0.00  0.00    +0.520 C 
ATOM      2  N   LIG    1        1.522   3.636  -0.420  0.00  0.00    -0.660 N 
ATOM      3  H   LIG    1        2.423   3.971  -0.549  0.00  0.00    +0.420 HD
ATOM      4  O   LIG    1       -0.645   4.076  -0.247  0.00  0.00    -0.490 OA
ENDROOT
BRANCH   2   5
ATOM      5  C   LIG    1        1.311   2.274  -0.166  0.00  0.00    +0.200 A 
ATOM      6  C   LIG    1        0.194   1.865   0.545  0.00  0.00    +0.020 A 
ATOM      7  C   LIG    1       -0.013   0.520   0.794  0.00  0.00    +0.060 A 
ATOM      8  C   LIG    1        0.892  -0.420   0.336  0.00  0.00    -0.010 A 
ATOM      9  C   LIG    1        2.009  -0.021  -0.374  0.00  0.00    +0.100 A 
ATOM     10  C   LIG    1        2.225   1.326  -0.628  0.00  0.00    -0.170 A 
BRANCH  10  11
ATOM     11  S   LIG    1        3.648   1.837  -1.532  0.00  0.00    -0.000 S 
BRANCH  11  12
ATOM     12  C   LIG    1        2.990   2.225  -3.121  0.00  0.00    -0.110 A 
ATOM     13  C   LIG    1        1.654   1.967  -3.403  0.00  0.00    +0.000 A 
ATOM     14  C   LIG    1        1.141   2.276  -4.647  0.00  0.00    +0.020 A 
ATOM     15  C   LIG    1        1.958   2.832  -5.615  0.00  0.00    +0.010 A 
ATOM     16  C   LIG    1        3.289   3.085  -5.339  0.00  0.00    +0.030 A 
ATOM     17  C   LIG    1        3.808   2.784  -4.096  0.00  0.00    +0.030 A 
ENDBRANCH  11  12
ENDBRANCH  10  11
ENDBRANCH   2   5
BRANCH   1  18
ATOM     18  C   LIG    1        0.691   5.925  -0.850  0.00  0.00    +0.270 C 
BRANCH  18  19
ATOM     19  O   LIG    1       -0.583   6.621  -0.851  0.00  0.00    -0.330 OA
BRANCH  19  20
ATOM     20  C   LIG    1       -0.564   7.932  -1.161  0.00  0.00    +0.510 C 
ATOM     21  O   LIG    1        0.489   8.479  -1.423  0.00  0.00    -0.470 OA
BRANCH  20  26
ATOM     22  C   LIG    1       -4.210   8.812  -0.904  0.00  0.00    -0.100 A 
ATOM     23  C   LIG    1       -4.182  10.165  -1.225  0.00  0.00    +0.050 A 
ATOM     24  C   LIG    1       -2.984  10.785  -1.522  0.00  0.00    +0.050 A 
ATOM     25  C   LIG    1       -1.805  10.065  -1.503  0.00  0.00    +0.010 A 
ATOM     26  C   LIG    1       -1.822   8.705  -1.182  0.00  0.00    -0.100 A 
ATOM     27 CL   LIG    1       -0.302  10.850  -1.878  0.00  0.00    -0.020 Cl
ATOM     28  C   LIG    1       -3.034   8.078  -0.887  0.00  0.00    +0.130 A 
BRANCH  22  30
ATOM     29  C   LIG    1       -6.943   9.377  -0.691  0.00  0.00    +0.140 C 
ATOM     30  S   LIG    1       -5.742   8.027  -0.527  0.00  0.00    -0.090 S 
ENDBRANCH  22  30
ENDBRANCH  20  26
ENDBRANCH  19  20
ENDBRANCH  18  19
ENDBRANCH   1  18
TORSDOF 8
