REMARK  Name = ZINCrg000000tRgz.0
REMARK                            x       y       z     vdW  Elec       q    Type
REMARK                         _______ _______ _______ _____ _____    ______ ____
ROOT
ATOM      1  C   LIG    1       -4.509  -0.410   2.123  0.00  0.00    +0.570 C 
ATOM      2  N   LIG    1       -5.697  -0.913   2.512  0.00  0.00    -0.700 N 
ATOM      3  H   LIG    1       -6.200  -1.487   1.913  0.00  0.00    +0.410 HD
ATOM      4  O   LIG    1       -3.923   0.382   2.835  0.00  0.00    -0.510 OA
ENDROOT
BRANCH   1   9
ATOM      5  C   LIG    1       -2.151  -0.694  -0.789  0.00  0.00    +0.120 A 
ATOM      6  C   LIG    1       -2.868  -1.600  -1.568  0.00  0.00    +0.030 A 
ATOM      7  C   LIG    1       -4.079  -2.079  -1.104  0.00  0.00    +0.280 A 
ATOM      8  N   LIG    1       -4.565  -1.685   0.055  0.00  0.00    -0.460 NA
ATOM      9  C   LIG    1       -3.918  -0.820   0.828  0.00  0.00    +0.090 A 
ATOM     10  C   LIG    1       -2.693  -0.297   0.434  0.00  0.00    +0.010 A 
BRANCH   5  14
ATOM     11  O   LIG    1        0.544   2.940  -1.967  0.00  0.00    -0.540 OA
ATOM     12  C   LIG    1        0.431   1.794  -1.584  0.00  0.00    +0.530 C 
ATOM     13  C   LIG    1       -0.942   1.275  -1.264  0.00  0.00    +0.240 C 
ATOM     14  N   LIG    1       -0.926  -0.194  -1.222  0.00  0.00    -0.490 N 
ATOM     15  C   LIG    1        0.171  -0.665  -0.361  0.00  0.00    +0.190 C 
ATOM     16  C   LIG    1        1.502  -0.352  -1.046  0.00  0.00    +0.290 C 
ATOM     17  N   LIG    1        1.533   1.047  -1.464  0.00  0.00    -0.720 N 
ATOM     18  H   LIG    1        2.392   1.452  -1.664  0.00  0.00    +0.410 HD
ENDBRANCH   5  14
ENDBRANCH   1   9
BRANCH   2  19
ATOM     19  C   LIG    1       -6.229  -0.595   3.839  0.00  0.00    +0.190 C 
ATOM     20  C   LIG    1       -7.488  -1.441   4.136  0.00  0.00    +0.030 C 
ATOM     21  C   LIG    1       -7.098  -2.270   5.379  0.00  0.00    +0.210 C 
ATOM     22  O   LIG    1       -6.051  -1.508   6.018  0.00  0.00    -0.370 OA
ATOM     23  C   LIG    1       -5.226  -1.010   4.939  0.00  0.00    +0.230 C 
BRANCH  19  24
ATOM     24  C   LIG    1       -6.545   0.875   3.941  0.00  0.00    -0.080 A 
ATOM     25  C   LIG    1       -6.614   1.484   5.180  0.00  0.00    +0.020 A 
ATOM     26  C   LIG    1       -6.899   2.833   5.273  0.00  0.00    +0.000 A 
ATOM     27  C   LIG    1       -7.126   3.572   4.127  0.00  0.00    +0.000 A 
ATOM     28  C   LIG    1       -7.063   2.962   2.888  0.00  0.00    +0.000 A 
ATOM     29  C   LIG    1       -6.773   1.614   2.795  0.00  0.00    +0.010 A 
ENDBRANCH  19  24
ENDBRANCH   2  19
TORSDOF 4
