REMARK  Name = ZINCpk000000mxp7.1
REMARK                            x       y       z     vdW  Elec       q    Type
REMARK                         _______ _______ _______ _____ _____    ______ ____
ROOT
ATOM      1  C   LIG    1       -0.013   1.086   0.008  0.00  0.00    +0.140 C 
ENDROOT
BRANCH   1   2
ATOM      2  C   LIG    1       -0.742   1.585  -1.213  0.00  0.00    -0.210 A 
ATOM      3  C   LIG    1       -0.347   2.732  -1.826  0.00  0.00    +0.220 A 
ATOM      4  N   LIG    1       -1.017   3.159  -2.930  0.00  0.00    -0.300 N 
ATOM      5  N   LIG    1       -0.846   4.273  -3.760  0.00  0.00    -0.510 N 
ATOM      6  H   LIG    1       -0.164   4.955  -3.660  0.00  0.00    +0.430 HD
ATOM      7  C   LIG    1       -1.788   4.237  -4.721  0.00  0.00    +0.550 A 
ATOM      8  C   LIG    1       -2.575   3.104  -4.523  0.00  0.00    -0.180 A 
ATOM      9  O   LIG    1       -1.929   5.057  -5.614  0.00  0.00    -0.540 OA
ATOM     10  C   LIG    1       -2.085   2.438  -3.402  0.00  0.00    +0.360 A 
ATOM     11  N   LIG    1       -2.470   1.313  -2.788  0.00  0.00    -0.480 NA
ATOM     12  C   LIG    1        0.824   3.518  -1.293  0.00  0.00    +0.150 C 
ATOM     13  C   LIG    1       -1.835   0.875  -1.722  0.00  0.00    +0.260 A 
ATOM     14  C   LIG    1       -2.286  -0.395  -1.047  0.00  0.00    +0.150 C 
ENDBRANCH   1   2
BRANCH   1  16
ATOM     15  N   LIG    1       -0.242   1.246   2.466  0.00  0.00    -0.610 N 
ATOM     16  C   LIG    1       -0.718   1.572   1.248  0.00  0.00    +0.520 C 
ATOM     17  O   LIG    1       -1.714   2.256   1.150  0.00  0.00    -0.510 OA
BRANCH  15  18
ATOM     18  C   LIG    1        0.962   0.419   2.584  0.00  0.00    +0.440 C 
BRANCH  18  20
ATOM     19  C   LIG    1        3.099   1.978   2.653  0.00  0.00    +0.060 C 
ATOM     20  C   LIG    1        2.151   1.286   2.623  0.00  0.00    -0.230 C 
ENDBRANCH  18  20
ENDBRANCH  15  18
BRANCH  15  21
ATOM     21  C   LIG    1       -0.927   1.718   3.671  0.00  0.00    +0.400 C 
BRANCH  21  22
ATOM     22  C   LIG    1       -1.967   0.709   4.086  0.00  0.00    -0.040 A 
ATOM     23  C   LIG    1       -1.768  -0.328   4.918  0.00  0.00    -0.040 A 
ATOM     24  C   LIG    1       -3.003  -1.007   5.029  0.00  0.00    -0.070 A 
ATOM     25  C   LIG    1       -3.881  -0.349   4.251  0.00  0.00    +0.170 A 
ATOM     26  O   LIG    1       -3.248   0.690   3.682  0.00  0.00    -0.160 OA
ENDBRANCH  21  22
ENDBRANCH  15  21
ENDBRANCH   1  16
TORSDOF 6
