REMARK  Name = ZINCrg00000J0FdT.0
REMARK                            x       y       z     vdW  Elec       q    Type
REMARK                         _______ _______ _______ _____ _____    ______ ____
ROOT
ATOM      1  N   LIG    1        2.730  -2.234   1.525  0.00  0.00    -1.000 NA
ATOM      2  C   LIG    1        3.648  -2.192   2.673  0.00  0.00    +0.320 C 
ATOM      3  C   LIG    1        2.842  -1.793   3.920  0.00  0.00    +0.200 C 
ATOM      4  N   LIG    1        1.701  -2.705   4.071  0.00  0.00    -0.490 N 
ATOM      5  C   LIG    1        0.775  -2.593   2.936  0.00  0.00    +0.210 C 
ATOM      6  C   LIG    1        1.493  -3.019   1.651  0.00  0.00    +0.320 C 
ENDROOT
BRANCH   4   7
ATOM      7  C   LIG    1        1.042  -2.484   5.275  0.00  0.00    +0.210 A 
ATOM      8  C   LIG    1        1.340  -1.362   6.037  0.00  0.00    -0.010 A 
ATOM      9  C   LIG    1        0.684  -1.144   7.232  0.00  0.00    +0.160 A 
ATOM     10  C   LIG    1       -0.273  -2.039   7.681  0.00  0.00    -0.070 A 
ATOM     11  C   LIG    1       -0.582  -3.158   6.938  0.00  0.00    +0.190 A 
ATOM     12  C   LIG    1        0.068  -3.390   5.724  0.00  0.00    -0.040 A 
BRANCH  10  13
ATOM     13  N   LIG    1       -0.968  -1.792   8.964  0.00  0.00    +0.030 N 
ATOM     14  O   LIG    1       -1.810  -2.578   9.362  0.00  0.00    -0.150 OA
ATOM     15  O   LIG    1       -0.697  -0.804   9.623  0.00  0.00    -0.150 OA
ENDBRANCH  10  13
BRANCH  12  16
ATOM     16  C   LIG    1       -0.253  -4.548   4.944  0.00  0.00    +0.250 C 
ATOM     17  N   LIG    1       -0.507  -5.466   4.325  0.00  0.00    -0.380 NA
ENDBRANCH  12  16
ENDBRANCH   4   7
BRANCH   1  18
ATOM     18  S   LIG    1        3.084  -1.425   0.124  0.00  0.00    +2.730 S 
ATOM     19  O   LIG    1        4.495  -1.256   0.103  0.00  0.00    -0.940 OA
ATOM     20  O   LIG    1        2.364  -2.080  -0.911  0.00  0.00    -0.930 OA
BRANCH  18  23
ATOM     21  C   LIG    1        4.550   1.385   0.459  0.00  0.00    +0.180 C 
ATOM     22  C   LIG    1        3.045   1.335   0.404  0.00  0.00    +0.270 A 
ATOM     23  C   LIG    1        2.392   0.190   0.266  0.00  0.00    -0.830 A 
ATOM     24  S   LIG    1        0.675   0.628   0.254  0.00  0.00    +0.110 S 
ATOM     25  C   LIG    1        0.955   2.318   0.435  0.00  0.00    +0.470 A 
ATOM     26  O   LIG    1        0.116   3.199   0.492  0.00  0.00    -0.450 OA
ATOM     27  N   LIG    1        2.288   2.465   0.494  0.00  0.00    -0.640 N 
ATOM     28  H   LIG    1        2.696   3.339   0.597  0.00  0.00    +0.420 HD
ENDBRANCH  18  23
ENDBRANCH   1  18
TORSDOF 5
