REMARK  Name = ZINCrD00000F5LxI.0
REMARK                            x       y       z     vdW  Elec       q    Type
REMARK                         _______ _______ _______ _____ _____    ______ ____
ROOT
ATOM      1  C   LIG    1       -2.771   1.653   5.329  0.00  0.00    -0.080 A 
ATOM      2  C   LIG    1       -3.389   0.547   4.761  0.00  0.00    +0.140 A 
ATOM      3  N   LIG    1       -3.406   0.739   3.433  0.00  0.00    -0.480 NA
ATOM      4  C   LIG    1       -2.836   1.878   3.145  0.00  0.00    +0.260 A 
ATOM      5  N   LIG    1       -2.430   2.481   4.277  0.00  0.00    -0.550 N 
ATOM      6  H   LIG    1       -1.981   3.339   4.342  0.00  0.00    +0.420 HD
ENDROOT
BRANCH   2   7
ATOM      7  C   LIG    1       -3.934  -0.624   5.486  0.00  0.00    -0.000 A 
ATOM      8  C   LIG    1       -3.694  -1.914   5.014  0.00  0.00    +0.050 A 
ATOM      9  C   LIG    1       -4.200  -3.001   5.696  0.00  0.00    +0.030 A 
ATOM     10  C   LIG    1       -4.954  -2.813   6.841  0.00  0.00    -0.080 A 
ATOM     11  C   LIG    1       -5.201  -1.534   7.312  0.00  0.00    +0.030 A 
ATOM     12 BR   LIG    1       -5.650  -4.308   7.767  0.00  0.00    -0.050 Br
ATOM     13  C   LIG    1       -4.695  -0.440   6.641  0.00  0.00    +0.080 A 
ENDBRANCH   2   7
BRANCH   1  15
ATOM     14  O   LIG    1       -2.791   1.028   7.569  0.00  0.00    -0.510 OA
ATOM     15  C   LIG    1       -2.528   1.892   6.753  0.00  0.00    +0.590 C 
ATOM     16  N   LIG    1       -2.014   3.070   7.161  0.00  0.00    -0.730 N 
ATOM     17  H   LIG    1       -1.805   3.759   6.511  0.00  0.00    +0.390 HD
BRANCH  16  18
ATOM     18  C   LIG    1       -1.772   3.309   8.586  0.00  0.00    +0.290 C 
BRANCH  18  19
ATOM     19  C   LIG    1       -1.190   4.711   8.776  0.00  0.00    -0.050 C 
ATOM     20  C   LIG    1       -0.896   4.978  10.272  0.00  0.00    +0.030 C 
ATOM     21  C   LIG    1       -1.355   6.449  10.436  0.00  0.00    +0.210 C 
ATOM     22  O   LIG    1       -2.521   6.534   9.590  0.00  0.00    -0.370 OA
ATOM     23  C   LIG    1       -2.231   5.783   8.399  0.00  0.00    +0.200 C 
ENDBRANCH  18  19
ENDBRANCH  16  18
ENDBRANCH   1  15
BRANCH   4  24
ATOM     24  C   LIG    1       -2.664   2.435   1.755  0.00  0.00    +0.160 C 
BRANCH  24  25
ATOM     25  C   LIG    1       -1.931   1.414   0.883  0.00  0.00    +0.170 C 
ATOM     26  C   LIG    1       -1.854   1.911  -0.577  0.00  0.00    +0.010 C 
ATOM     27  C   LIG    1       -0.459   1.450  -1.058  0.00  0.00    +0.000 C 
ATOM     28  C   LIG    1        0.141   0.729   0.170  0.00  0.00    +0.190 C 
ATOM     29  O   LIG    1       -0.552   1.290   1.306  0.00  0.00    -0.370 OA
ENDBRANCH  24  25
ENDBRANCH   4  24
TORSDOF 6
