REMARK  Name = ZINCrD0000074LPd.0
REMARK                            x       y       z     vdW  Elec       q    Type
REMARK                         _______ _______ _______ _____ _____    ______ ____
ROOT
ATOM      1  C   LIG    1        1.962   4.221  -4.107  0.00  0.00    +0.040 C 
ENDROOT
BRANCH   1   2
ATOM      2  C   LIG    1        2.970   3.315  -3.448  0.00  0.00    +0.530 C 
ATOM      3  N   LIG    1        3.117   3.331  -2.108  0.00  0.00    -0.720 N 
ATOM      4  H   LIG    1        2.574   3.927  -1.568  0.00  0.00    +0.400 HD
ATOM      5  O   LIG    1        3.648   2.570  -4.123  0.00  0.00    -0.530 OA
BRANCH   3   6
ATOM      6  C   LIG    1        4.096   2.450  -1.468  0.00  0.00    +0.240 C 
ATOM      7  C   LIG    1        5.471   3.122  -1.481  0.00  0.00    +0.020 C 
BRANCH   6   8
ATOM      8  C   LIG    1        3.673   2.182  -0.023  0.00  0.00    +0.090 C 
BRANCH   8   9
ATOM      9  C   LIG    1        2.378   1.411  -0.013  0.00  0.00    -0.070 A 
ATOM     10  C   LIG    1        2.396   0.029  -0.021  0.00  0.00    +0.020 A 
ATOM     11  C   LIG    1        1.208  -0.678  -0.013  0.00  0.00    +0.030 A 
ATOM     12  C   LIG    1        0.002  -0.004   0.002  0.00  0.00    +0.020 A 
ATOM     13  C   LIG    1       -0.017   1.379   0.010  0.00  0.00    -0.030 A 
ATOM     14 CL   LIG    1       -1.532   2.227   0.021  0.00  0.00    -0.070 Cl
ATOM     15  C   LIG    1        1.172   2.087   0.002  0.00  0.00    +0.020 A 
ENDBRANCH   8   9
ENDBRANCH   6   8
ENDBRANCH   3   6
ENDBRANCH   1   2
BRANCH   1  16
ATOM     16  C   LIG    1        1.996   4.006  -5.621  0.00  0.00    +0.350 C 
BRANCH  16  23
ATOM     17  C   LIG    1       -1.919   9.454  -8.959  0.00  0.00    +0.120 C 
ATOM     18  C   LIG    1       -1.565   8.134  -8.323  0.00  0.00    -0.060 A 
ATOM     19  C   LIG    1       -2.528   7.150  -8.205  0.00  0.00    +0.040 A 
ATOM     20  C   LIG    1       -2.218   5.930  -7.622  0.00  0.00    +0.100 A 
ATOM     21  C   LIG    1       -0.935   5.699  -7.155  0.00  0.00    -0.150 A 
ATOM     22  C   LIG    1       -0.264   4.553  -6.504  0.00  0.00    +0.570 C 
ATOM     23  N   LIG    1        1.016   4.888  -6.261  0.00  0.00    -0.580 N 
ATOM     24  C   LIG    1        1.280   6.136  -6.689  0.00  0.00    +0.570 C 
ATOM     25  O   LIG    1        2.351   6.702  -6.606  0.00  0.00    -0.460 OA
ATOM     26  O   LIG    1       -0.783   3.489  -6.232  0.00  0.00    -0.460 OA
ATOM     27  C   LIG    1        0.047   6.703  -7.275  0.00  0.00    -0.140 A 
ATOM     28  C   LIG    1       -0.277   7.916  -7.860  0.00  0.00    +0.090 A 
ENDBRANCH  16  23
ENDBRANCH   1  16
TORSDOF 6
