REMARK  Name = ZINCpe000000UFRD.0
REMARK                            x       y       z     vdW  Elec       q    Type
REMARK                         _______ _______ _______ _____ _____    ______ ____
ROOT
ATOM      1  C   LIG    1        1.906  -5.221   1.024  0.00  0.00    +0.300 C 
ATOM      2  N   LIG    1        1.182  -4.014   0.618  0.00  0.00    -0.610 N 
ATOM      3  C   LIG    1        0.722  -3.896  -0.643  0.00  0.00    +0.530 C 
ATOM      4  O   LIG    1        0.195  -2.865  -1.003  0.00  0.00    -0.530 OA
ENDROOT
BRANCH   3   5
ATOM      5  C   LIG    1        0.863  -5.046  -1.607  0.00  0.00    +0.000 C 
ATOM      6  C   LIG    1        2.116  -4.872  -2.497  0.00  0.00    +0.080 C 
ATOM      7  C   LIG    1        1.685  -5.397  -3.849  0.00  0.00    +0.530 C 
ATOM      8  N   LIG    1        0.345  -5.482  -3.907  0.00  0.00    -0.620 N 
ATOM      9  O   LIG    1        2.440  -5.698  -4.750  0.00  0.00    -0.520 OA
ATOM     10  C   LIG    1       -0.273  -5.032  -2.654  0.00  0.00    +0.300 C 
BRANCH   8  11
ATOM     11  C   LIG    1       -0.404  -5.961  -5.072  0.00  0.00    +0.430 C 
BRANCH  11  12
ATOM     12  C   LIG    1       -0.722  -4.799  -5.978  0.00  0.00    -0.050 A 
ATOM     13  C   LIG    1        0.049  -4.354  -6.986  0.00  0.00    -0.030 A 
ATOM     14  C   LIG    1       -0.627  -3.255  -7.564  0.00  0.00    -0.070 A 
ATOM     15  C   LIG    1       -1.771  -3.095  -6.874  0.00  0.00    +0.170 A 
ATOM     16  O   LIG    1       -1.825  -4.036  -5.918  0.00  0.00    -0.170 OA
ENDBRANCH  11  12
ENDBRANCH   8  11
ENDBRANCH   3   5
BRANCH   2  17
ATOM     17  C   LIG    1        0.958  -2.935   1.583  0.00  0.00    +0.420 C 
BRANCH  17  18
ATOM     18  C   LIG    1        2.107  -1.961   1.524  0.00  0.00    +0.170 A 
ATOM     19  N   LIG    1        3.204  -2.014   2.229  0.00  0.00    -0.280 NA
ATOM     20  N   LIG    1        3.964  -1.024   1.922  0.00  0.00    -0.280 NA
ATOM     21  C   LIG    1        3.384  -0.293   1.007  0.00  0.00    +0.160 A 
ATOM     22  C   LIG    1        3.569   0.950   0.164  0.00  0.00    +0.160 C 
ATOM     23  C   LIG    1        2.149   1.275  -0.352  0.00  0.00    +0.070 C 
ATOM     24  C   LIG    1        1.469  -0.111  -0.302  0.00  0.00    +0.310 C 
ATOM     25  N   LIG    1        2.193  -0.867   0.727  0.00  0.00    -0.480 N 
ENDBRANCH  17  18
ENDBRANCH   2  17
TORSDOF 5
