REMARK  Name = ZINCrg00000J142j.0
REMARK                            x       y       z     vdW  Elec       q    Type
REMARK                         _______ _______ _______ _____ _____    ______ ____
ROOT
ATOM      1  C   LIG    1       -1.153  -1.981   0.091  0.00  0.00    +0.160 C 
ATOM      2  C   LIG    1       -2.462  -2.317   0.836  0.00  0.00    +0.070 C 
ATOM      3  C   LIG    1       -1.979  -2.579   2.287  0.00  0.00    +0.040 C 
ATOM      4  C   LIG    1       -0.608  -3.257   2.041  0.00  0.00    +0.260 C 
ATOM      5  N   LIG    1       -0.048  -2.560   0.869  0.00  0.00    -0.610 N 
ATOM      6  C   LIG    1        1.261  -2.470   0.560  0.00  0.00    +0.570 C 
ATOM      7  O   LIG    1        1.617  -1.800  -0.390  0.00  0.00    -0.470 OA
ENDROOT
BRANCH   6   8
ATOM      8  C   LIG    1        2.264  -3.185   1.378  0.00  0.00    -0.070 A 
ATOM      9  C   LIG    1        1.852  -4.071   2.374  0.00  0.00    -0.020 A 
ATOM     10  C   LIG    1        2.793  -4.742   3.133  0.00  0.00    +0.120 A 
ATOM     11  C   LIG    1        4.143  -4.530   2.916  0.00  0.00    -0.050 A 
ATOM     12  C   LIG    1        4.561  -3.644   1.930  0.00  0.00    +0.140 A 
ATOM     13  F   LIG    1        2.393  -5.604   4.094  0.00  0.00    -0.130 F 
ATOM     14  C   LIG    1        3.625  -2.971   1.160  0.00  0.00    +0.060 A 
BRANCH  12  15
ATOM     15  N   LIG    1        5.925  -3.433   1.714  0.00  0.00    -0.480 N 
ATOM     16  C   LIG    1        6.287  -3.714   0.317  0.00  0.00    +0.180 C 
ATOM     17  C   LIG    1        7.774  -3.414   0.110  0.00  0.00    +0.230 C 
ATOM     18  O   LIG    1        8.544  -4.186   1.035  0.00  0.00    -0.380 OA
ATOM     19  C   LIG    1        8.219  -3.937   2.405  0.00  0.00    +0.230 C 
ATOM     20  C   LIG    1        6.736  -4.243   2.635  0.00  0.00    +0.170 C 
ENDBRANCH  12  15
ENDBRANCH   6   8
BRANCH   1  24
ATOM     21  C   LIG    1       -0.343   1.650   0.976  0.00  0.00    +0.280 C 
ATOM     22  N   LIG    1       -0.671   0.227   1.096  0.00  0.00    -0.730 N 
ATOM     23  H   LIG    1       -0.661  -0.202   1.966  0.00  0.00    +0.400 HD
ATOM     24  C   LIG    1       -0.986  -0.487  -0.003  0.00  0.00    +0.530 C 
ATOM     25  O   LIG    1       -1.134   0.074  -1.069  0.00  0.00    -0.520 OA
ENDBRANCH   1  24
BRANCH   1  26
ATOM     26  C   LIG    1       -1.179  -2.592  -1.312  0.00  0.00    +0.200 C 
BRANCH  26  27
ATOM     27  O   LIG    1        0.085  -2.383  -1.945  0.00  0.00    -0.350 OA
ATOM     28  C   LIG    1        0.169  -2.917  -3.267  0.00  0.00    +0.180 C 
ENDBRANCH  26  27
ENDBRANCH   1  26
TORSDOF 5
