REMARK  Name = ZINCrD000000Ca9Q.0
REMARK                            x       y       z     vdW  Elec       q    Type
REMARK                         _______ _______ _______ _____ _____    ______ ____
ROOT
ATOM      1  C   LIG    1       -0.024   5.653  -0.183  0.00  0.00    -0.010 C 
ATOM      2  C   LIG    1        0.642   6.257   1.056  0.00  0.00    +0.040 C 
ATOM      3  C   LIG    1        0.574   7.784   0.972  0.00  0.00    +0.180 C 
ATOM      4  N   LIG    1       -0.830   8.208   0.893  0.00  0.00    -0.530 NA
ATOM      5  C   LIG    1       -1.478   7.678  -0.313  0.00  0.00    +0.190 C 
ATOM      6  C   LIG    1       -1.470   6.149  -0.268  0.00  0.00    +0.070 C 
ENDROOT
BRANCH   1   8
ATOM      7  O   LIG    1       -1.058   3.534  -0.071  0.00  0.00    -0.520 OA
ATOM      8  C   LIG    1       -0.013   4.149  -0.077  0.00  0.00    +0.520 C 
ATOM      9  N   LIG    1        1.159   3.489   0.010  0.00  0.00    -0.670 N 
ATOM     10  H   LIG    1        1.991   3.983   0.070  0.00  0.00    +0.410 HD
BRANCH   9  11
ATOM     11  C   LIG    1        1.174   2.087   0.013  0.00  0.00    +0.120 A 
ATOM     12  C   LIG    1        0.148   1.382   0.624  0.00  0.00    +0.030 A 
ATOM     13  C   LIG    1        0.165   0.000   0.626  0.00  0.00    +0.020 A 
ATOM     14  C   LIG    1        1.204  -0.682   0.022  0.00  0.00    +0.010 A 
ATOM     15  C   LIG    1        2.231   0.014  -0.589  0.00  0.00    +0.000 A 
ATOM     16  C   LIG    1        2.221   1.399  -0.596  0.00  0.00    +0.080 A 
BRANCH  16  17
ATOM     17  O   LIG    1        3.230   2.085  -1.197  0.00  0.00    -0.500 OA
ATOM     18  H   LIG    1        3.073   2.276  -2.132  0.00  0.00    +0.390 HD
ENDBRANCH  16  17
ENDBRANCH   9  11
ENDBRANCH   1   8
BRANCH   4  19
ATOM     19  C   LIG    1       -0.941   9.672   0.951  0.00  0.00    +0.350 C 
BRANCH  19  20
ATOM     20  C   LIG    1       -0.065  10.199   2.058  0.00  0.00    +0.190 A 
ATOM     21  N   LIG    1        1.190  10.559   1.951  0.00  0.00    -0.470 NA
ATOM     22  C   LIG    1        1.559  10.962   3.189  0.00  0.00    +0.240 A 
ATOM     23  N   LIG    1        0.514  10.823   3.967  0.00  0.00    -0.360 NA
ATOM     24  O   LIG    1       -0.424  10.393   3.331  0.00  0.00    +0.100 OA
BRANCH  22  25
ATOM     25  C   LIG    1        2.890  11.464   3.588  0.00  0.00    -0.140 A 
ATOM     26  C   LIG    1        3.231  11.865   4.830  0.00  0.00    +0.060 A 
ATOM     27  C   LIG    1        4.536  12.290   4.961  0.00  0.00    +0.010 A 
ATOM     28  C   LIG    1        5.260  12.250   3.837  0.00  0.00    -0.030 A 
ATOM     29  S   LIG    1        4.273  11.639   2.516  0.00  0.00    +0.180 S 
ENDBRANCH  22  25
ENDBRANCH  19  20
ENDBRANCH   4  19
TORSDOF 6
