REMARK  Name = ZINCrH000004rv27.0
REMARK                            x       y       z     vdW  Elec       q    Type
REMARK                         _______ _______ _______ _____ _____    ______ ____
ROOT
ATOM      1  C   LIG    1       -1.369   1.165  -0.155  0.00  0.00    +0.110 C 
ATOM      2  C   LIG    1       -0.325   2.129   0.345  0.00  0.00    +0.020 A 
ATOM      3  C   LIG    1        0.977   1.709   0.518  0.00  0.00    +0.000 A 
ATOM      4  C   LIG    1        1.939   2.594   0.972  0.00  0.00    +0.140 A 
ATOM      5  C   LIG    1        1.601   3.904   1.260  0.00  0.00    -0.690 A 
ATOM      6  C   LIG    1        0.301   4.336   1.097  0.00  0.00    +0.150 A 
ATOM      7  C   LIG    1       -0.674   3.449   0.639  0.00  0.00    -0.150 A 
ENDROOT
BRANCH   7   8
ATOM      8  C   LIG    1       -2.069   3.905   0.462  0.00  0.00    +0.560 C 
ATOM      9  N   LIG    1       -2.702   4.545   1.465  0.00  0.00    -0.600 N 
ATOM     10  C   LIG    1       -1.976   4.883   2.691  0.00  0.00    +0.300 C 
ATOM     11  O   LIG    1       -2.645   3.703  -0.590  0.00  0.00    -0.500 OA
BRANCH   9  12
ATOM     12  C   LIG    1       -4.116   4.902   1.329  0.00  0.00    +0.350 C 
BRANCH  12  13
ATOM     13  C   LIG    1       -4.968   3.829   1.954  0.00  0.00    -0.100 A 
ATOM     14  C   LIG    1       -5.408   3.966   3.256  0.00  0.00    +0.040 A 
ATOM     15  C   LIG    1       -6.190   2.981   3.830  0.00  0.00    +0.010 A 
ATOM     16  C   LIG    1       -6.532   1.857   3.102  0.00  0.00    +0.030 A 
ATOM     17  C   LIG    1       -6.092   1.718   1.799  0.00  0.00    +0.010 A 
ATOM     18  C   LIG    1       -5.315   2.707   1.222  0.00  0.00    -0.030 A 
ATOM     19 CL   LIG    1       -4.769   2.536  -0.417  0.00  0.00    -0.030 Cl
ENDBRANCH  12  13
ENDBRANCH   9  12
ENDBRANCH   7   8
BRANCH   5  20
ATOM     20  S   LIG    1        2.834   5.024   1.837  0.00  0.00    +2.710 S 
ATOM     21  O   LIG    1        3.858   4.228   2.418  0.00  0.00    -0.950 OA
ATOM     22  O   LIG    1        2.147   6.046   2.546  0.00  0.00    -0.950 OA
BRANCH  20  23
ATOM     23  N   LIG    1        3.501   5.747   0.505  0.00  0.00    -1.010 NA
ATOM     24  C   LIG    1        4.669   5.255  -0.242  0.00  0.00    +0.270 C 
ATOM     25  C   LIG    1        4.940   6.260  -1.381  0.00  0.00    +0.030 C 
ATOM     26  C   LIG    1        4.265   7.558  -0.864  0.00  0.00    +0.040 C 
ATOM     27  C   LIG    1        3.028   6.993  -0.124  0.00  0.00    +0.270 C 
ENDBRANCH  20  23
ENDBRANCH   5  20
TORSDOF 5
