REMARK  Name = ZINCrD000000Deq8.0
REMARK                            x       y       z     vdW  Elec       q    Type
REMARK                         _______ _______ _______ _____ _____    ______ ____
ROOT
ATOM      1  C   LIG    1       -4.900  -0.581   0.860  0.00  0.00    +0.380 C 
ENDROOT
BRANCH   1   2
ATOM      2  C   LIG    1       -5.844  -0.558  -0.315  0.00  0.00    -0.160 A 
ATOM      3  C   LIG    1       -6.141   0.639  -0.938  0.00  0.00    +0.080 A 
ATOM      4  C   LIG    1       -7.002   0.662  -2.018  0.00  0.00    -0.080 A 
ATOM      5  C   LIG    1       -7.577  -0.516  -2.471  0.00  0.00    +0.150 A 
ATOM      6  C   LIG    1       -7.282  -1.716  -1.840  0.00  0.00    -0.010 A 
ATOM      7  C   LIG    1       -6.416  -1.734  -0.764  0.00  0.00    +0.100 A 
BRANCH   5   8
ATOM      8  O   LIG    1       -8.428  -0.496  -3.530  0.00  0.00    -0.310 OA
BRANCH   8   9
ATOM      9  C   LIG    1       -8.686   0.775  -4.130  0.00  0.00    +0.260 C 
BRANCH   9  10
ATOM     10  C   LIG    1       -9.645   0.602  -5.280  0.00  0.00    -0.050 A 
ATOM     11  C   LIG    1       -9.178   0.363  -6.563  0.00  0.00    -0.010 A 
ATOM     12  C   LIG    1      -10.087   0.206  -7.592  0.00  0.00    +0.260 A 
ATOM     13  N   LIG    1      -11.383   0.290  -7.366  0.00  0.00    -0.480 NA
ATOM     14  C   LIG    1      -11.863   0.520  -6.159  0.00  0.00    +0.260 A 
ATOM     15  C   LIG    1      -11.014   0.684  -5.081  0.00  0.00    -0.010 A 
ENDBRANCH   9  10
ENDBRANCH   8   9
ENDBRANCH   5   8
ENDBRANCH   1   2
BRANCH   1  18
ATOM     16  C   LIG    1       -1.412  -0.526   0.013  0.00  0.00    -0.010 A 
ATOM     17  C   LIG    1       -2.472   0.021   0.652  0.00  0.00    +0.160 A 
ATOM     18  N   LIG    1       -3.529  -0.778   0.381  0.00  0.00    -0.290 N 
ATOM     19  N   LIG    1       -3.123  -1.745  -0.366  0.00  0.00    -0.080 NA
ATOM     20  N   LIG    1       -1.865  -1.623  -0.603  0.00  0.00    -0.270 NA
BRANCH  16  26
ATOM     21  C   LIG    1        0.742  -0.511   1.242  0.00  0.00    +0.180 C 
ATOM     22  C   LIG    1        2.178   0.019   1.231  0.00  0.00    -0.010 C 
ATOM     23  C   LIG    1        2.157   1.548   1.239  0.00  0.00    +0.010 C 
ATOM     24  C   LIG    1        1.417   2.055  -0.000  0.00  0.00    +0.010 C 
ATOM     25  C   LIG    1       -0.019   1.526   0.010  0.00  0.00    +0.020 C 
ATOM     26  C   LIG    1        0.002  -0.004   0.002  0.00  0.00    +0.110 C 
BRANCH  21  27
ATOM     27  O   LIG    1        0.073  -0.050   2.417  0.00  0.00    -0.560 OA
ATOM     28  H   LIG    1        0.488  -0.334   3.243  0.00  0.00    +0.380 HD
ENDBRANCH  21  27
ENDBRANCH  16  26
ENDBRANCH   1  18
TORSDOF 7
