REMARK  Name = ZINCkj00000y7De9.0
REMARK                            x       y       z     vdW  Elec       q    Type
REMARK                         _______ _______ _______ _____ _____    ______ ____
ROOT
ATOM      1  C   LIG    1       -3.599   3.008   2.871  0.00  0.00    +0.170 C 
ATOM      2  C   LIG    1       -2.722   4.120   3.452  0.00  0.00    +0.080 C 
ATOM      3  C   LIG    1       -1.252   3.705   3.346  0.00  0.00    +0.050 C 
ATOM      4  C   LIG    1       -0.916   3.406   1.883  0.00  0.00    +0.240 C 
ATOM      5  N   LIG    1       -1.770   2.317   1.394  0.00  0.00    -0.380 N 
ATOM      6  H   LIG    1       -1.649   1.506   1.982  0.00  0.00    +0.420 HD
ATOM      7  C   LIG    1       -3.177   2.734   1.426  0.00  0.00    +0.270 C 
ENDROOT
BRANCH   1  10
ATOM      8  O   LIG    1       -4.861   0.674   2.384  0.00  0.00    -0.500 OA
ATOM      9  C   LIG    1       -4.150   0.687   3.367  0.00  0.00    +0.510 C 
ATOM     10  N   LIG    1       -3.436   1.789   3.667  0.00  0.00    -0.730 N 
ATOM     11  H   LIG    1       -2.813   1.776   4.411  0.00  0.00    +0.410 HD
BRANCH   9  12
ATOM     12  C   LIG    1       -4.066  -0.530   4.252  0.00  0.00    +0.180 C 
ATOM     13 CL   LIG    1       -5.127  -1.829   3.591  0.00  0.00    -0.110 Cl
ENDBRANCH   9  12
ENDBRANCH   1  10
BRANCH   5  14
ATOM     14  C   LIG    1       -1.391   1.981   0.015  0.00  0.00    +0.320 C 
BRANCH  14  15
ATOM     15  C   LIG    1        0.010   1.427   0.000  0.00  0.00    -0.160 A 
ATOM     16  C   LIG    1        1.088   2.277  -0.162  0.00  0.00    +0.030 A 
ATOM     17  C   LIG    1        2.373   1.769  -0.183  0.00  0.00    +0.030 A 
ATOM     18  C   LIG    1        2.581   0.409  -0.040  0.00  0.00    +0.060 A 
ATOM     19  C   LIG    1        1.503  -0.441   0.123  0.00  0.00    +0.030 A 
ATOM     20  C   LIG    1        0.218   0.068   0.143  0.00  0.00    +0.040 A 
ENDBRANCH  14  15
ENDBRANCH   5  14
BRANCH   1  21
ATOM     21  C   LIG    1       -5.065   3.445   2.901  0.00  0.00    +0.210 C 
BRANCH  21  22
ATOM     22  O   LIG    1       -5.470   3.659   4.255  0.00  0.00    -0.560 OA
ATOM     23  H   LIG    1       -6.391   3.939   4.350  0.00  0.00    +0.400 HD
ENDBRANCH  21  22
ENDBRANCH   1  21
TORSDOF 6
