REMARK  Name = ZINCkj00000y7De9.1
REMARK                            x       y       z     vdW  Elec       q    Type
REMARK                         _______ _______ _______ _____ _____    ______ ____
ROOT
ATOM      1  C   LIG    1        2.054   1.559  -1.298  0.00  0.00    +0.170 C 
ATOM      2  C   LIG    1        2.055   0.051  -1.565  0.00  0.00    +0.060 C 
ATOM      3  C   LIG    1        0.617  -0.472  -1.493  0.00  0.00    +0.070 C 
ATOM      4  C   LIG    1        0.022  -0.126  -0.127  0.00  0.00    +0.250 C 
ATOM      5  N   LIG    1        0.025   1.331   0.057  0.00  0.00    -0.380 N 
ATOM      6  H   LIG    1       -0.487   1.765  -0.697  0.00  0.00    +0.420 HD
ATOM      7  C   LIG    1        1.405   1.829   0.062  0.00  0.00    +0.270 C 
ENDROOT
BRANCH   1  10
ATOM      8  O   LIG    1        2.758   4.129  -0.880  0.00  0.00    -0.520 OA
ATOM      9  C   LIG    1        3.673   3.370  -1.119  0.00  0.00    +0.520 C 
ATOM     10  N   LIG    1        3.432   2.055  -1.290  0.00  0.00    -0.710 N 
ATOM     11  H   LIG    1        4.170   1.438  -1.407  0.00  0.00    +0.420 HD
BRANCH   9  12
ATOM     12  C   LIG    1        5.081   3.898  -1.225  0.00  0.00    +0.190 C 
ATOM     13 CL   LIG    1        5.077   5.680  -0.950  0.00  0.00    -0.110 Cl
ENDBRANCH   9  12
ENDBRANCH   1  10
BRANCH   5  14
ATOM     14  C   LIG    1       -0.619   1.662   1.336  0.00  0.00    +0.320 C 
BRANCH  14  15
ATOM     15  C   LIG    1       -2.072   1.269   1.284  0.00  0.00    -0.160 A 
ATOM     16  C   LIG    1       -3.018   2.176   0.844  0.00  0.00    +0.040 A 
ATOM     17  C   LIG    1       -4.351   1.813   0.792  0.00  0.00    +0.030 A 
ATOM     18  C   LIG    1       -4.740   0.548   1.189  0.00  0.00    +0.060 A 
ATOM     19  C   LIG    1       -3.794  -0.358   1.634  0.00  0.00    +0.030 A 
ATOM     20  C   LIG    1       -2.461   0.003   1.681  0.00  0.00    +0.030 A 
ENDBRANCH  14  15
ENDBRANCH   5  14
BRANCH   1  21
ATOM     21  C   LIG    1        1.259   2.271  -2.394  0.00  0.00    +0.180 C 
BRANCH  21  22
ATOM     22  O   LIG    1        1.932   2.118  -3.645  0.00  0.00    -0.550 OA
ATOM     23  H   LIG    1        1.483   2.546  -4.388  0.00  0.00    +0.400 HD
ENDBRANCH  21  22
ENDBRANCH   1  21
TORSDOF 6
