REMARK  Name = ZINCtV00000vx8Ll.0
REMARK                            x       y       z     vdW  Elec       q    Type
REMARK                         _______ _______ _______ _____ _____    ______ ____
ROOT
ATOM      1  O   LIG    1        2.609   4.037  -0.059  0.00  0.00    -0.520 OA
ATOM      2  C   LIG    1        1.502   3.543   0.034  0.00  0.00    +0.530 C 
ENDROOT
BRANCH   2   3
ATOM      3  C   LIG    1        1.345   2.079   0.014  0.00  0.00    -0.220 A 
ATOM      4  C   LIG    1        0.070   1.508  -0.002  0.00  0.00    +0.120 A 
ATOM      5  C   LIG    1       -0.070   0.138  -0.022  0.00  0.00    -0.070 A 
ATOM      6  C   LIG    1        1.049  -0.680  -0.025  0.00  0.00    +0.100 A 
ATOM      7  C   LIG    1        2.315  -0.133  -0.009  0.00  0.00    -0.090 A 
ATOM      8  C   LIG    1        2.477   1.247   0.010  0.00  0.00    +0.290 A 
BRANCH   8   9
ATOM      9  N   LIG    1        3.750   1.800   0.027  0.00  0.00    -0.720 N 
ATOM     10  H   LIG    1        3.862   2.762  -0.042  0.00  0.00    +0.420 HD
BRANCH   9  11
ATOM     11  C   LIG    1        4.925   0.933   0.148  0.00  0.00    +0.380 C 
BRANCH  11  12
ATOM     12  C   LIG    1        6.174   1.775   0.141  0.00  0.00    -0.040 A 
ATOM     13  C   LIG    1        6.773   2.303   1.224  0.00  0.00    -0.030 A 
ATOM     14  C   LIG    1        7.906   3.011   0.761  0.00  0.00    -0.070 A 
ATOM     15  C   LIG    1        7.927   2.881  -0.578  0.00  0.00    +0.180 A 
ATOM     16  O   LIG    1        6.875   2.131  -0.948  0.00  0.00    -0.170 OA
ENDBRANCH  11  12
ENDBRANCH   9  11
ENDBRANCH   8   9
ENDBRANCH   2   3
BRANCH   2  17
ATOM     17  O   LIG    1        0.419   4.335   0.156  0.00  0.00    -0.350 OA
BRANCH  17  18
ATOM     18  C   LIG    1        0.648   5.769   0.168  0.00  0.00    +0.350 C 
BRANCH  18  19
ATOM     19  C   LIG    1       -0.669   6.487   0.310  0.00  0.00    +0.060 A 
ATOM     20  C   LIG    1       -1.830   5.830   0.400  0.00  0.00    -0.030 A 
ATOM     21  S   LIG    1       -3.124   7.017   0.557  0.00  0.00    +0.110 S 
ATOM     22  C   LIG    1       -1.936   8.316   0.474  0.00  0.00    +0.120 A 
ATOM     23  N   LIG    1       -0.748   7.798   0.349  0.00  0.00    -0.450 NA
BRANCH  22  24
ATOM     24  C   LIG    1       -2.240   9.761   0.537  0.00  0.00    -0.030 A 
ATOM     25  C   LIG    1       -1.208  10.698   0.467  0.00  0.00    +0.090 A 
ATOM     26  C   LIG    1       -1.498  12.045   0.521  0.00  0.00    +0.030 A 
ATOM     27  C   LIG    1       -2.809  12.469   0.656  0.00  0.00    -0.020 A 
ATOM     28  C   LIG    1       -3.837  11.545   0.732  0.00  0.00    +0.030 A 
ATOM     29 CL   LIG    1       -3.165  14.166   0.731  0.00  0.00    -0.060 Cl
ATOM     30  C   LIG    1       -3.560  10.195   0.673  0.00  0.00    +0.060 A 
ENDBRANCH  22  24
ENDBRANCH  18  19
ENDBRANCH  17  18
ENDBRANCH   2  17
TORSDOF 8
