REMARK  Name = ZINCrD00000hQ54k.0
REMARK                            x       y       z     vdW  Elec       q    Type
REMARK                         _______ _______ _______ _____ _____    ______ ____
ROOT
ATOM      1  C   LIG    1        2.608   7.131   0.825  0.00  0.00    +0.170 C 
ATOM      2  C   LIG    1        3.560   8.197   0.220  0.00  0.00    +0.090 C 
ATOM      3  C   LIG    1        4.858   7.400  -0.027  0.00  0.00    +0.360 C 
ATOM      4  N   LIG    1        4.489   5.979  -0.111  0.00  0.00    -0.600 N 
ATOM      5  C   LIG    1        5.345   4.955  -0.301  0.00  0.00    +0.630 C 
ATOM      6  O   LIG    1        6.526   5.177  -0.496  0.00  0.00    -0.510 OA
ATOM      7  C   LIG    1        3.027   5.861   0.040  0.00  0.00    +0.260 C 
ENDROOT
BRANCH   3   8
ATOM      8  C   LIG    1        5.496   7.841  -1.319  0.00  0.00    +0.150 A 
ATOM      9  N   LIG    1        5.088   7.545  -2.521  0.00  0.00    -0.270 NA
ATOM     10  N   LIG    1        5.869   8.094  -3.384  0.00  0.00    -0.290 NA
ATOM     11  C   LIG    1        6.806   8.752  -2.762  0.00  0.00    +0.170 A 
ATOM     12  C   LIG    1        7.924   9.531  -3.405  0.00  0.00    +0.240 C 
ATOM     13  O   LIG    1        6.593   8.607  -1.444  0.00  0.00    -0.220 OA
ENDBRANCH   3   8
BRANCH   5  14
ATOM     14  C   LIG    1        4.854   3.579  -0.272  0.00  0.00    -0.100 A 
ATOM     15  C   LIG    1        5.629   2.441  -0.345  0.00  0.00    +0.100 A 
ATOM     16  C   LIG    1        4.752   1.353  -0.277  0.00  0.00    -0.060 A 
ATOM     17  C   LIG    1        3.492   1.858  -0.175  0.00  0.00    +0.210 A 
ATOM     18  O   LIG    1        3.562   3.197  -0.169  0.00  0.00    -0.180 OA
BRANCH  17  19
ATOM     19  O   LIG    1        2.355   1.129  -0.088  0.00  0.00    -0.200 OA
BRANCH  19  20
ATOM     20  C   LIG    1        1.169   1.792  -0.093  0.00  0.00    +0.060 A 
ATOM     21  C   LIG    1        0.762   2.479  -1.228  0.00  0.00    +0.010 A 
ATOM     22  C   LIG    1       -0.441   3.157  -1.228  0.00  0.00    +0.030 A 
ATOM     23  C   LIG    1       -1.246   3.141  -0.104  0.00  0.00    +0.020 A 
ATOM     24  C   LIG    1       -0.842   2.457   1.028  0.00  0.00    +0.030 A 
ATOM     25  C   LIG    1        0.363   1.783   1.036  0.00  0.00    +0.030 A 
ENDBRANCH  19  20
ENDBRANCH  17  19
ENDBRANCH   5  14
BRANCH   1  27
ATOM     26  C   LIG    1        0.335   7.001   1.575  0.00  0.00    +0.210 C 
ATOM     27  O   LIG    1        1.241   7.461   0.570  0.00  0.00    -0.370 OA
ENDBRANCH   1  27
TORSDOF 5
