REMARK  Name = ZINCqH0000003wBV.0
REMARK                            x       y       z     vdW  Elec       q    Type
REMARK                         _______ _______ _______ _____ _____    ______ ____
ROOT
ATOM      1  C   LIG    1       -5.978   5.261   4.270  0.00  0.00    -0.050 C 
ATOM      2  C   LIG    1       -6.731   5.194   5.601  0.00  0.00    +0.090 C 
ATOM      3  C   LIG    1       -7.162   6.189   4.526  0.00  0.00    -0.050 C 
ATOM      4  C   LIG    1       -6.871   7.676   4.769  0.00  0.00    +0.090 C 
ATOM      5  C   LIG    1       -8.192   8.340   5.186  0.00  0.00    +0.110 C 
ATOM      6  O   LIG    1       -9.145   8.183   4.137  0.00  0.00    -0.310 OA
ATOM      7  C   LIG    1       -9.379   6.942   3.641  0.00  0.00    +0.150 A 
ATOM      8  C   LIG    1      -10.567   6.691   2.966  0.00  0.00    -0.020 A 
ATOM      9  C   LIG    1      -10.814   5.438   2.441  0.00  0.00    +0.050 A 
ATOM     10  C   LIG    1       -9.880   4.428   2.585  0.00  0.00    -0.030 A 
ATOM     11  C   LIG    1       -8.698   4.672   3.259  0.00  0.00    +0.040 A 
ATOM     12  C   LIG    1       -8.720   7.678   6.460  0.00  0.00    +0.020 C 
ATOM     13  C   LIG    1       -7.956   9.830   5.444  0.00  0.00    +0.080 C 
ATOM     14  C   LIG    1       -8.448   5.923   3.787  0.00  0.00    -0.130 A 
ENDROOT
BRANCH   1  20
ATOM     15  C   LIG    1       -1.494   3.787   2.582  0.00  0.00    +0.000 C 
ATOM     16  C   LIG    1       -2.946   3.310   2.502  0.00  0.00    +0.030 C 
ATOM     17  C   LIG    1       -3.667   3.658   3.808  0.00  0.00    +0.270 C 
ATOM     18  N   LIG    1       -3.518   5.098   4.060  0.00  0.00    -0.610 N 
ATOM     19  C   LIG    1       -2.169   5.679   4.067  0.00  0.00    +0.280 C 
ATOM     20  C   LIG    1       -4.600   5.872   4.281  0.00  0.00    +0.550 C 
ATOM     21  O   LIG    1       -4.464   7.059   4.488  0.00  0.00    -0.530 OA
ATOM     22  C   LIG    1       -1.465   5.307   2.758  0.00  0.00    +0.020 C 
BRANCH  15  23
ATOM     23  C   LIG    1       -0.762   3.410   1.292  0.00  0.00    +0.170 C 
BRANCH  23  24
ATOM     24  O   LIG    1       -0.688   1.987   1.186  0.00  0.00    -0.390 OA
BRANCH  24  26
ATOM     25  C   LIG    1        0.002  -0.004   0.002  0.00  0.00    +0.040 C 
ATOM     26  C   LIG    1       -0.019   1.526   0.010  0.00  0.00    +0.160 C 
ENDBRANCH  24  26
ENDBRANCH  23  24
ENDBRANCH  15  23
ENDBRANCH   1  20
TORSDOF 4
