REMARK  Name = ZINCpk000000nPAf.0
REMARK                            x       y       z     vdW  Elec       q    Type
REMARK                         _______ _______ _______ _____ _____    ______ ____
ROOT
ATOM      1  C   LIG    1        6.689   4.661   1.217  0.00  0.00    +0.440 C 
ATOM      2  O   LIG    1        7.452   3.748   1.463  0.00  0.00    -0.500 OA
ENDROOT
BRANCH   1   3
ATOM      3  C   LIG    1        7.109   5.997   1.388  0.00  0.00    -0.450 A 
ATOM      4  C   LIG    1        8.443   6.302   1.713  0.00  0.00    +0.560 A 
ATOM      5  N   LIG    1        8.803   7.611   1.863  0.00  0.00    -0.540 N 
ATOM      6  C   LIG    1        7.910   8.602   1.717  0.00  0.00    +0.710 A 
ATOM      7  N   LIG    1        6.622   8.371   1.413  0.00  0.00    -0.560 N 
ATOM      8  C   LIG    1        5.700   9.500   1.268  0.00  0.00    +0.350 C 
ATOM      9  O   LIG    1        8.280   9.750   1.865  0.00  0.00    -0.520 OA
ATOM     10  C   LIG    1       10.191   7.939   2.196  0.00  0.00    +0.350 C 
ATOM     11  C   LIG    1        6.167   7.113   1.238  0.00  0.00    +0.580 A 
ATOM     12  O   LIG    1        4.999   6.908   0.963  0.00  0.00    -0.500 OA
BRANCH   4  13
ATOM     13  N   LIG    1        9.360   5.310   1.871  0.00  0.00    -0.800 N 
ATOM     14  H   LIG    1       10.168   5.473   2.382  0.00  0.00    +0.410 HD
ATOM     15  H   LIG    1        9.206   4.439   1.472  0.00  0.00    +0.440 HD
ENDBRANCH   4  13
ENDBRANCH   1   3
BRANCH   1  16
ATOM     16  C   LIG    1        5.294   4.367   0.729  0.00  0.00    +0.240 C 
ATOM     17  C   LIG    1        5.238   4.539  -0.790  0.00  0.00    +0.040 C 
BRANCH  16  18
ATOM     18  N   LIG    1        4.935   2.990   1.078  0.00  0.00    -0.740 N 
ATOM     19  H   LIG    1        5.630   2.326   1.210  0.00  0.00    +0.400 HD
BRANCH  18  23
ATOM     20  C   LIG    1        0.932   1.927   1.506  0.00  0.00    -0.140 A 
ATOM     21  C   LIG    1        1.269   3.226   1.171  0.00  0.00    +0.050 A 
ATOM     22  C   LIG    1        2.596   3.583   1.034  0.00  0.00    -0.080 A 
ATOM     23  C   LIG    1        3.592   2.633   1.221  0.00  0.00    +0.220 A 
ATOM     24  C   LIG    1        3.250   1.328   1.552  0.00  0.00    -0.070 A 
ATOM     25  C   LIG    1        1.921   0.980   1.694  0.00  0.00    +0.050 A 
BRANCH  20  27
ATOM     26  C   LIG    1       -1.256   1.795   0.345  0.00  0.00    +0.020 C 
ATOM     27  C   LIG    1       -0.517   1.543   1.661  0.00  0.00    +0.020 C 
ATOM     28  C   LIG    1       -1.152   2.383   2.772  0.00  0.00    +0.020 C 
ENDBRANCH  20  27
ENDBRANCH  18  23
ENDBRANCH  16  18
ENDBRANCH   1  16
TORSDOF 6
