REMARK  Name = ZINCtV000002yJh9.0
REMARK                            x       y       z     vdW  Elec       q    Type
REMARK                         _______ _______ _______ _____ _____    ______ ____
ROOT
ATOM      1  C   LIG    1        4.761   1.021  -0.039  0.00  0.00    +0.180 A 
ATOM      2  N   LIG    1        5.370   0.566  -1.097  0.00  0.00    -0.250 NA
ATOM      3  N   LIG    1        6.364  -0.172  -0.751  0.00  0.00    -0.290 NA
ATOM      4  C   LIG    1        6.443  -0.229   0.558  0.00  0.00    +0.170 A 
ATOM      5  N   LIG    1        5.425   0.535   1.053  0.00  0.00    -0.450 N 
ENDROOT
BRANCH   1   6
ATOM      6  C   LIG    1        3.553   1.921  -0.022  0.00  0.00    +0.330 C 
BRANCH   6   7
ATOM      7  O   LIG    1        2.366   1.125  -0.015  0.00  0.00    -0.310 OA
BRANCH   7  11
ATOM      8  C   LIG    1       -1.237   3.133   0.031  0.00  0.00    -0.120 A 
ATOM      9  C   LIG    1       -1.218   1.751   0.017  0.00  0.00    +0.050 A 
ATOM     10  C   LIG    1       -0.013   1.076   0.008  0.00  0.00    -0.010 A 
ATOM     11  C   LIG    1        1.179   1.786   0.000  0.00  0.00    +0.120 A 
ATOM     12  C   LIG    1        1.157   3.174   0.008  0.00  0.00    -0.080 A 
ATOM     13  C   LIG    1       -0.051   3.844   0.023  0.00  0.00    +0.050 A 
BRANCH   8  15
ATOM     14  C   LIG    1       -3.013   4.123  -1.388  0.00  0.00    +0.030 C 
ATOM     15  C   LIG    1       -2.553   3.867   0.048  0.00  0.00    +0.060 C 
ENDBRANCH   8  15
ENDBRANCH   7  11
ENDBRANCH   6   7
ENDBRANCH   1   6
BRANCH   4  16
ATOM     16  S   LIG    1        7.639  -1.117   1.498  0.00  0.00    +0.030 S 
BRANCH  16  17
ATOM     17  C   LIG    1        8.614  -1.845   0.158  0.00  0.00    +0.170 C 
BRANCH  17  18
ATOM     18  C   LIG    1        9.730  -2.674   0.742  0.00  0.00    -0.110 A 
ATOM     19  C   LIG    1        9.527  -4.016   1.012  0.00  0.00    +0.130 A 
ATOM     20  C   LIG    1       10.553  -4.777   1.548  0.00  0.00    +0.000 A 
ATOM     21  C   LIG    1       11.778  -4.195   1.813  0.00  0.00    +0.080 A 
ATOM     22  C   LIG    1       11.981  -2.855   1.543  0.00  0.00    +0.030 A 
ATOM     23  F   LIG    1        8.329  -4.584   0.752  0.00  0.00    -0.120 F 
ATOM     24  C   LIG    1       10.959  -2.095   1.002  0.00  0.00    +0.010 A 
ATOM     25 CL   LIG    1       11.217  -0.413   0.657  0.00  0.00    -0.040 Cl
ENDBRANCH  17  18
ENDBRANCH  16  17
ENDBRANCH   4  16
BRANCH   5  26
ATOM     26  C   LIG    1        5.109   0.781   2.462  0.00  0.00    +0.300 C 
BRANCH  26  27
ATOM     27  C   LIG    1        4.138  -0.291   2.962  0.00  0.00    -0.030 C 
ATOM     28  C   LIG    1        3.710   0.035   4.394  0.00  0.00    +0.050 C 
ATOM     29  C   LIG    1        4.827  -1.656   2.934  0.00  0.00    +0.030 C 
ENDBRANCH  26  27
ENDBRANCH   5  26
TORSDOF 9
