REMARK  Name = ZINCqH00000368GU.0
REMARK                            x       y       z     vdW  Elec       q    Type
REMARK                         _______ _______ _______ _____ _____    ______ ____
ROOT
ATOM      1  N   LIG    1       -6.012   1.356   0.039  0.00  0.00    -0.660 N 
ATOM      2  H   LIG    1       -6.157   2.312   0.120  0.00  0.00    +0.420 HD
ATOM      3  C   LIG    1       -4.757   0.864   0.026  0.00  0.00    +0.520 C 
ATOM      4  O   LIG    1       -4.577  -0.336   0.025  0.00  0.00    -0.490 OA
ENDROOT
BRANCH   1  10
ATOM      5  C   LIG    1       -8.349   0.866   0.439  0.00  0.00    +0.150 A 
ATOM      6  C   LIG    1       -9.427   0.003   0.333  0.00  0.00    -0.030 A 
ATOM      7  C   LIG    1       -9.270  -1.229  -0.274  0.00  0.00    +0.130 A 
ATOM      8  C   LIG    1       -8.038  -1.605  -0.776  0.00  0.00    -0.060 A 
ATOM      9  C   LIG    1       -6.958  -0.748  -0.678  0.00  0.00    +0.140 A 
ATOM     10  C   LIG    1       -7.106   0.488  -0.066  0.00  0.00    +0.130 A 
BRANCH   8  11
ATOM     11  N   LIG    1       -7.876  -2.925  -1.426  0.00  0.00    +0.030 N 
ATOM     12  O   LIG    1       -6.791  -3.257  -1.868  0.00  0.00    -0.150 OA
ATOM     13  O   LIG    1       -8.828  -3.679  -1.517  0.00  0.00    -0.160 OA
ENDBRANCH   8  11
BRANCH   5  15
ATOM     14  C   LIG    1       -9.804   2.398   1.530  0.00  0.00    +0.270 C 
ATOM     15  O   LIG    1       -8.502   2.078   1.035  0.00  0.00    -0.310 OA
ENDBRANCH   5  15
ENDBRANCH   1  10
BRANCH   3  16
ATOM     16  C   LIG    1       -3.579   1.804   0.013  0.00  0.00    +0.250 C 
BRANCH  16  17
ATOM     17  O   LIG    1       -2.367   1.047   0.001  0.00  0.00    -0.290 OA
BRANCH  17  18
ATOM     18  C   LIG    1       -1.202   1.748  -0.012  0.00  0.00    +0.130 A 
ATOM     19  C   LIG    1       -0.013   1.077  -0.023  0.00  0.00    +0.000 A 
ATOM     20  C   LIG    1        1.191   1.801  -0.042  0.00  0.00    -0.010 A 
ATOM     21  C   LIG    1        2.435   1.146  -0.060  0.00  0.00    +0.020 A 
ATOM     22  C   LIG    1        3.582   1.878  -0.078  0.00  0.00    +0.030 A 
ATOM     23  C   LIG    1        3.543   3.271  -0.079  0.00  0.00    -0.010 A 
ATOM     24  C   LIG    1        2.357   3.940  -0.061  0.00  0.00    +0.030 A 
ATOM     25  C   LIG    1        1.152   3.218  -0.043  0.00  0.00    -0.080 A 
ATOM     26  C   LIG    1       -0.091   3.875  -0.025  0.00  0.00    +0.070 A 
ATOM     27  C   LIG    1       -1.238   3.146  -0.007  0.00  0.00    -0.060 A 
ENDBRANCH  17  18
ENDBRANCH  16  17
ENDBRANCH   3  16
TORSDOF 6
