REMARK  Name = ZINCkj000005llRY.0
REMARK                            x       y       z     vdW  Elec       q    Type
REMARK                         _______ _______ _______ _____ _____    ______ ____
ROOT
ATOM      1  N   LIG    1       -3.377   3.322  -1.867  0.00  0.00    -0.740 N 
ATOM      2  H   LIG    1       -2.812   2.873  -2.515  0.00  0.00    +0.390 HD
ATOM      3  C   LIG    1       -3.595   2.762  -0.661  0.00  0.00    +0.700 C 
ATOM      4  N   LIG    1       -2.950   1.629  -0.317  0.00  0.00    -0.620 N 
ATOM      5  C   LIG    1       -3.121   1.105   1.052  0.00  0.00    +0.280 C 
ATOM      6  C   LIG    1       -1.793   0.609   1.653  0.00  0.00    +0.020 C 
ATOM      7  C   LIG    1       -0.674   1.554   1.290  0.00  0.00    +0.020 C 
ATOM      8  C   LIG    1       -0.013   1.082  -0.001  0.00  0.00    -0.010 C 
ATOM      9  C   LIG    1       -0.682   1.546  -1.226  0.00  0.00    -0.000 C 
ATOM     10  C   LIG    1       -2.118   0.979  -1.305  0.00  0.00    +0.270 C 
ATOM     11  O   LIG    1       -4.374   3.277   0.117  0.00  0.00    -0.580 OA
ENDROOT
BRANCH   1  15
ATOM     12  C   LIG    1       -3.297   5.991  -4.125  0.00  0.00    -0.020 C 
ATOM     13  C   LIG    1       -2.266   6.144  -2.979  0.00  0.00    +0.020 C 
ATOM     14  C   LIG    1       -3.092   5.766  -1.723  0.00  0.00    +0.030 C 
ATOM     15  C   LIG    1       -3.994   4.609  -2.199  0.00  0.00    +0.260 C 
ATOM     16  C   LIG    1       -4.125   4.752  -3.726  0.00  0.00    +0.050 C 
BRANCH  12  17
ATOM     17  C   LIG    1       -2.585   5.753  -5.458  0.00  0.00    +0.270 C 
BRANCH  17  18
ATOM     18  N   LIG    1       -1.902   6.985  -5.875  0.00  0.00    -0.640 N 
ATOM     19  H   LIG    1       -1.225   7.248  -5.174  0.00  0.00    +0.430 HD
ATOM     20  H   LIG    1       -2.579   7.725  -5.983  0.00  0.00    +0.440 HD
ATOM     21  H   LIG    1       -1.433   6.828  -6.754  0.00  0.00    +0.440 HD
ENDBRANCH  17  18
ENDBRANCH  12  17
ENDBRANCH   1  15
BRANCH   8  22
ATOM     22  C   LIG    1        1.432   1.584  -0.018  0.00  0.00    +0.020 C 
BRANCH  22  23
ATOM     23  C   LIG    1        2.170   0.974  -1.211  0.00  0.00    +0.160 C 
BRANCH  23  24
ATOM     24  O   LIG    1        3.520   1.443  -1.227  0.00  0.00    -0.580 OA
ATOM     25  H   LIG    1        4.048   1.096  -1.959  0.00  0.00    +0.380 HD
ENDBRANCH  23  24
ENDBRANCH  22  23
ENDBRANCH   8  22
TORSDOF 6
