REMARK  Name = ZINCrH000004qggn.0
REMARK                            x       y       z     vdW  Elec       q    Type
REMARK                         _______ _______ _______ _____ _____    ______ ____
ROOT
ATOM      1  C   LIG    1        4.298   0.140  -1.479  0.00  0.00    +0.240 C 
ATOM      2  C   LIG    1        5.377   1.224  -1.496  0.00  0.00    +0.050 C 
ENDROOT
BRANCH   1   5
ATOM      3  C   LIG    1        5.458  -2.768  -1.923  0.00  0.00    +0.160 C 
ATOM      4  C   LIG    1        4.835  -1.873  -2.964  0.00  0.00    -0.010 A 
ATOM      5  C   LIG    1        4.338  -0.628  -2.775  0.00  0.00    -0.020 A 
ATOM      6  N   LIG    1        3.894  -0.211  -3.966  0.00  0.00    -0.230 NA
ATOM      7  N   LIG    1        4.096  -1.136  -4.837  0.00  0.00    -0.080 NA
ATOM      8  N   LIG    1        4.655  -2.154  -4.283  0.00  0.00    -0.250 N 
BRANCH   8   9
ATOM      9  C   LIG    1        5.022  -3.345  -4.929  0.00  0.00    +0.100 A 
ATOM     10  C   LIG    1        5.606  -3.301  -6.188  0.00  0.00    +0.090 A 
ATOM     11  C   LIG    1        5.971  -4.473  -6.820  0.00  0.00    +0.010 A 
ATOM     12  C   LIG    1        5.744  -5.693  -6.204  0.00  0.00    +0.120 A 
ATOM     13  C   LIG    1        5.157  -5.738  -4.950  0.00  0.00    +0.010 A 
ATOM     14  F   LIG    1        6.097  -6.839  -6.826  0.00  0.00    -0.130 F 
ATOM     15  C   LIG    1        4.796  -4.568  -4.313  0.00  0.00    +0.060 A 
ENDBRANCH   8   9
ENDBRANCH   1   5
BRANCH   1  16
ATOM     16  N   LIG    1        2.978   0.765  -1.321  0.00  0.00    -0.670 NA
ATOM     17  H   LIG    1        2.259   0.207  -1.757  0.00  0.00    +0.350 HD
BRANCH  16  18
ATOM     18  C   LIG    1        2.674   1.000   0.097  0.00  0.00    +0.220 C 
BRANCH  18  19
ATOM     19  C   LIG    1        1.315   1.641   0.220  0.00  0.00    -0.080 A 
ATOM     20  C   LIG    1        0.188   0.851   0.348  0.00  0.00    +0.010 A 
ATOM     21  C   LIG    1       -1.059   1.439   0.455  0.00  0.00    +0.010 A 
ATOM     22  C   LIG    1       -1.177   2.816   0.445  0.00  0.00    -0.110 A 
ATOM     23  C   LIG    1       -0.050   3.605   0.316  0.00  0.00    +0.010 A 
ATOM     24  C   LIG    1        1.196   3.018   0.204  0.00  0.00    +0.040 A 
BRANCH  22  25
ATOM     25  C   LIG    1       -2.536   3.456   0.567  0.00  0.00    +0.170 C 
ATOM     26  C   LIG    1       -2.852   3.702   2.044  0.00  0.00    +0.030 C 
ATOM     27  C   LIG    1       -3.593   2.528  -0.033  0.00  0.00    +0.070 C 
BRANCH  25  28
ATOM     28  O   LIG    1       -2.541   4.701  -0.134  0.00  0.00    -0.550 OA
ATOM     29  H   LIG    1       -1.893   5.340   0.194  0.00  0.00    +0.380 HD
ENDBRANCH  25  28
ENDBRANCH  22  25
ENDBRANCH  18  19
ENDBRANCH  16  18
ENDBRANCH   1  16
TORSDOF 7
