REMARK  Name = ZINCpe00000gM0Me.0
REMARK                            x       y       z     vdW  Elec       q    Type
REMARK                         _______ _______ _______ _____ _____    ______ ____
ROOT
ATOM      1  N   LIG    1       -0.029   7.902  -1.707  0.00  0.00    -0.530 NA
ATOM      2  C   LIG    1        0.764   7.383  -0.585  0.00  0.00    +0.160 C 
ATOM      3  C   LIG    1        1.479   6.099  -1.020  0.00  0.00    +0.290 C 
ATOM      4  N   LIG    1        0.478   5.166  -1.558  0.00  0.00    -0.590 N 
ATOM      5  C   LIG    1       -0.443   5.655  -2.596  0.00  0.00    +0.290 C 
ATOM      6  C   LIG    1        0.408   3.894  -1.115  0.00  0.00    +0.580 C 
ATOM      7  O   LIG    1        1.112   3.533  -0.192  0.00  0.00    -0.540 OA
ATOM      8  C   LIG    1       -1.086   6.958  -2.095  0.00  0.00    +0.180 C 
ENDROOT
BRANCH   6   9
ATOM      9  C   LIG    1       -0.523   2.939  -1.753  0.00  0.00    -0.090 A 
ATOM     10  C   LIG    1       -0.517   2.774  -3.139  0.00  0.00    +0.040 A 
ATOM     11  C   LIG    1       -1.393   1.885  -3.728  0.00  0.00    +0.020 A 
ATOM     12  C   LIG    1       -2.271   1.155  -2.948  0.00  0.00    +0.030 A 
ATOM     13  C   LIG    1       -2.278   1.310  -1.573  0.00  0.00    +0.030 A 
ATOM     14  C   LIG    1       -1.407   2.195  -0.971  0.00  0.00    -0.070 A 
BRANCH  14  15
ATOM     15  C   LIG    1       -1.416   2.362   0.527  0.00  0.00    +0.380 C 
BRANCH  15  16
ATOM     16  N   LIG    1       -2.221   3.534   0.882  0.00  0.00    -0.370 N 
ATOM     17  C   LIG    1       -3.268   3.566   1.724  0.00  0.00    +0.470 A 
ATOM     18  N   LIG    1       -3.711   4.796   1.774  0.00  0.00    -0.540 NA
ATOM     19  C   LIG    1       -2.980   5.573   0.975  0.00  0.00    +0.400 A 
ATOM     20  N   LIG    1       -2.055   4.845   0.407  0.00  0.00    -0.300 NA
ENDBRANCH  15  16
ENDBRANCH  14  15
ENDBRANCH   6   9
BRANCH   1  21
ATOM     21  C   LIG    1       -0.592   9.220  -1.388  0.00  0.00    +0.140 C 
BRANCH  21  22
ATOM     22  C   LIG    1       -1.605   9.617  -2.465  0.00  0.00    +0.200 C 
BRANCH  22  24
ATOM     23  C   LIG    1       -3.293  11.331  -3.139  0.00  0.00    +0.010 C 
ATOM     24  C   LIG    1       -2.191  10.990  -2.133  0.00  0.00    -0.020 C 
ENDBRANCH  22  24
BRANCH  22  25
ATOM     25  O   LIG    1       -0.953   9.672  -3.735  0.00  0.00    -0.550 OA
ATOM     26  H   LIG    1       -0.227  10.310  -3.777  0.00  0.00    +0.370 HD
ENDBRANCH  22  25
ENDBRANCH  21  22
ENDBRANCH   1  21
TORSDOF 7
