REMARK  Name = ZINCah0000001hR2.0
REMARK                            x       y       z     vdW  Elec       q    Type
REMARK                         _______ _______ _______ _____ _____    ______ ____
ROOT
ATOM      1  C   LIG    1        2.499   1.360  -0.013  0.00  0.00    +0.220 C 
ATOM      2  C   LIG    1        1.054   1.786   0.002  0.00  0.00    +0.300 A 
ATOM      3  N   LIG    1        0.617   3.019   0.012  0.00  0.00    -0.510 NA
ATOM      4  C   LIG    1       -0.716   3.026   0.024  0.00  0.00    +0.150 A 
ATOM      5  N   LIG    1       -1.147   1.792   0.017  0.00  0.00    -0.250 NA
ATOM      6  N   LIG    1       -0.011   0.966   0.007  0.00  0.00    -0.460 N 
ATOM      7  H   LIG    1        0.002  -0.004   0.002  0.00  0.00    +0.450 HD
ENDROOT
BRANCH   4   8
ATOM      8  C   LIG    1       -1.585   4.257   0.038  0.00  0.00    +0.580 C 
ATOM      9  F   LIG    1       -0.810   5.371   0.378  0.00  0.00    -0.150 F 
ATOM     10  F   LIG    1       -2.607   4.096   0.979  0.00  0.00    -0.160 F 
ATOM     11  F   LIG    1       -2.144   4.448  -1.230  0.00  0.00    -0.160 F 
ENDBRANCH   4   8
TORSDOF 1
