REMARK  Name = ZINCrD0000075BwX.0
REMARK                            x       y       z     vdW  Elec       q    Type
REMARK                         _______ _______ _______ _____ _____    ______ ____
ROOT
ATOM      1  O   LIG    1        0.729   0.573  -2.534  0.00  0.00    -0.550 OA
ATOM      2  C   LIG    1       -0.268   1.258  -2.409  0.00  0.00    +0.600 C 
ATOM      3  N   LIG    1       -0.721   1.571  -1.179  0.00  0.00    -0.720 N 
ATOM      4  H   LIG    1       -1.516   2.118  -1.079  0.00  0.00    +0.400 HD
ENDROOT
BRANCH   2   5
ATOM      5  C   LIG    1       -0.981   1.747  -3.603  0.00  0.00    -0.300 A 
ATOM      6  C   LIG    1       -0.633   1.513  -4.918  0.00  0.00    +0.320 A 
ATOM      7  N   LIG    1       -1.542   2.130  -5.691  0.00  0.00    -0.350 N 
ATOM      8  N   LIG    1       -2.469   2.768  -4.861  0.00  0.00    -0.270 NA
ATOM      9  C   LIG    1       -2.146   2.547  -3.616  0.00  0.00    +0.270 A 
BRANCH   7  10
ATOM     10  C   LIG    1       -1.555   2.139  -7.156  0.00  0.00    +0.380 C 
BRANCH  10  11
ATOM     11  C   LIG    1       -2.891   1.644  -7.649  0.00  0.00    -0.110 A 
ATOM     12  C   LIG    1       -3.053   0.315  -7.989  0.00  0.00    +0.040 A 
ATOM     13  C   LIG    1       -4.279  -0.140  -8.436  0.00  0.00    +0.010 A 
ATOM     14  C   LIG    1       -5.341   0.737  -8.554  0.00  0.00    +0.050 A 
ATOM     15  C   LIG    1       -5.179   2.068  -8.218  0.00  0.00    +0.020 A 
ATOM     16  C   LIG    1       -3.954   2.522  -7.765  0.00  0.00    -0.000 A 
ATOM     17 CL   LIG    1       -3.749   4.194  -7.343  0.00  0.00    -0.050 Cl
ENDBRANCH  10  11
ENDBRANCH   7  10
ENDBRANCH   2   5
BRANCH   3  18
ATOM     18  C   LIG    1       -0.013   1.086   0.008  0.00  0.00    +0.250 C 
BRANCH  18  19
ATOM     19  C   LIG    1       -0.729   1.579   1.267  0.00  0.00    +0.260 C 
BRANCH  19  20
ATOM     20  C   LIG    1        0.067   1.185   2.485  0.00  0.00    -0.100 A 
ATOM     21  C   LIG    1        0.884   2.110   3.105  0.00  0.00    +0.070 A 
ATOM     22  C   LIG    1        1.615   1.751   4.222  0.00  0.00    +0.030 A 
ATOM     23  C   LIG    1        1.528   0.463   4.720  0.00  0.00    +0.070 A 
ATOM     24  C   LIG    1        0.707  -0.466   4.098  0.00  0.00    +0.070 A 
ATOM     25  F   LIG    1        0.620  -1.724   4.583  0.00  0.00    -0.120 F 
ATOM     26  F   LIG    1        2.241   0.111   5.812  0.00  0.00    -0.130 F 
ATOM     27  C   LIG    1       -0.027  -0.101   2.983  0.00  0.00    +0.030 A 
ENDBRANCH  19  20
BRANCH  19  28
ATOM     28  O   LIG    1       -2.030   0.991   1.336  0.00  0.00    -0.550 OA
ATOM     29  H   LIG    1       -2.023   0.025   1.372  0.00  0.00    +0.380 HD
ENDBRANCH  19  28
ENDBRANCH  18  19
ENDBRANCH   3  18
TORSDOF 7
