REMARK  Name = ZINCrD00000hQ525.0
REMARK                            x       y       z     vdW  Elec       q    Type
REMARK                         _______ _______ _______ _____ _____    ______ ____
ROOT
ATOM      1  N   LIG    1        3.134  -0.721  -7.494  0.00  0.00    -0.560 N 
ATOM      2  C   LIG    1        2.736  -0.348  -8.864  0.00  0.00    +0.240 C 
ATOM      3  C   LIG    1        3.270  -1.496  -9.758  0.00  0.00    +0.180 C 
ATOM      4  C   LIG    1        4.616  -1.832  -9.063  0.00  0.00    +0.080 C 
ATOM      5  C   LIG    1        4.299  -1.615  -7.568  0.00  0.00    +0.280 C 
ENDROOT
BRANCH   1   6
ATOM      6  C   LIG    1        2.533  -0.306  -6.361  0.00  0.00    +0.580 C 
ATOM      7  S   LIG    1        3.189  -0.733  -4.838  0.00  0.00    -0.620 S 
BRANCH   6   8
ATOM      8  N   LIG    1        1.415   0.444  -6.427  0.00  0.00    -0.630 N 
ATOM      9  H   LIG    1        1.009   0.634  -7.287  0.00  0.00    +0.400 HD
BRANCH   8  13
ATOM     10  C   LIG    1       -0.297   1.948  -2.935  0.00  0.00    +0.140 A 
ATOM     11  C   LIG    1       -0.155   2.766  -4.046  0.00  0.00    -0.080 A 
ATOM     12  C   LIG    1        0.417   2.270  -5.201  0.00  0.00    +0.040 A 
ATOM     13  C   LIG    1        0.840   0.949  -5.254  0.00  0.00    +0.080 A 
ATOM     14  C   LIG    1        0.693   0.129  -4.144  0.00  0.00    +0.130 A 
ATOM     15  C   LIG    1        0.126   0.627  -2.987  0.00  0.00    -0.010 A 
BRANCH  10  16
ATOM     16  O   LIG    1       -0.855   2.438  -1.797  0.00  0.00    -0.310 OA
BRANCH  16  18
ATOM     17  C   LIG    1       -1.868   4.174  -0.455  0.00  0.00    +0.070 C 
ATOM     18  C   LIG    1       -1.268   3.806  -1.813  0.00  0.00    +0.170 C 
ENDBRANCH  16  18
ENDBRANCH  10  16
ENDBRANCH   8  13
ENDBRANCH   6   8
ENDBRANCH   1   6
BRANCH   3  19
ATOM     19  O   LIG    1        2.385  -2.618  -9.732  0.00  0.00    -0.370 OA
ATOM     20  C   LIG    1        1.394  -2.600 -10.762  0.00  0.00    +0.210 C 
ENDBRANCH   3  19
BRANCH   5  21
ATOM     21  C   LIG    1        5.496  -0.968  -6.868  0.00  0.00    +0.220 C 
BRANCH  21  22
ATOM     22  O   LIG    1        5.847   0.241  -7.545  0.00  0.00    -0.310 OA
BRANCH  22  23
ATOM     23  C   LIG    1        6.898   0.944  -7.047  0.00  0.00    +0.080 A 
ATOM     24  C   LIG    1        7.302   2.131  -7.649  0.00  0.00    +0.030 A 
ATOM     25  C   LIG    1        8.379   2.813  -7.105  0.00  0.00    +0.010 A 
ATOM     26  C   LIG    1        9.012   2.295  -5.991  0.00  0.00    +0.220 A 
ATOM     27  N   LIG    1        8.605   1.166  -5.444  0.00  0.00    -0.450 NA
ATOM     28  C   LIG    1        7.581   0.490  -5.927  0.00  0.00    +0.180 A 
ENDBRANCH  22  23
ENDBRANCH  21  22
ENDBRANCH   5  21
TORSDOF 9
