REMARK  Name = ZINCrg00001JduX9.0
REMARK                            x       y       z     vdW  Elec       q    Type
REMARK                         _______ _______ _______ _____ _____    ______ ____
ROOT
ATOM      1  N   LIG    1        1.049   1.914   0.064  0.00  0.00    -0.600 N 
ATOM      2  C   LIG    1       -0.154   1.306   0.096  0.00  0.00    +0.530 C 
ATOM      3  O   LIG    1       -0.221   0.098   0.169  0.00  0.00    -0.530 OA
ENDROOT
BRANCH   1   4
ATOM      4  C   LIG    1        2.273   1.121   0.201  0.00  0.00    +0.320 C 
BRANCH   4   8
ATOM      5  C   LIG    1        4.312  -0.494  -2.607  0.00  0.00    +0.290 C 
ATOM      6  N   LIG    1        3.857  -0.066  -1.282  0.00  0.00    -0.740 N 
ATOM      7  H   LIG    1        4.359  -0.319  -0.492  0.00  0.00    +0.400 HD
ATOM      8  C   LIG    1        2.741   0.680  -1.162  0.00  0.00    +0.500 C 
ATOM      9  O   LIG    1        2.114   0.997  -2.150  0.00  0.00    -0.530 OA
ENDBRANCH   4   8
ENDBRANCH   1   4
BRANCH   2  10
ATOM     10  C   LIG    1       -1.415   2.129   0.034  0.00  0.00    +0.050 C 
BRANCH  10  11
ATOM     11  C   LIG    1       -2.630   1.213   0.202  0.00  0.00    +0.040 C 
BRANCH  11  12
ATOM     12  C   LIG    1       -3.910   2.048   0.139  0.00  0.00    +0.010 C 
BRANCH  12  13
ATOM     13  C   LIG    1       -5.125   1.133   0.306  0.00  0.00    +0.310 C 
BRANCH  13  14
ATOM     14  N   LIG    1       -6.351   1.933   0.246  0.00  0.00    -0.590 N 
ATOM     15  C   LIG    1       -6.962   2.496   1.304  0.00  0.00    +0.540 C 
ATOM     16  C   LIG    1       -8.160   3.217   0.821  0.00  0.00    +0.040 C 
ATOM     17  C   LIG    1       -8.210   3.040  -0.509  0.00  0.00    +0.040 C 
ATOM     18  O   LIG    1       -6.592   2.426   2.458  0.00  0.00    -0.450 OA
ATOM     19  C   LIG    1       -7.041   2.211  -0.875  0.00  0.00    +0.540 C 
ATOM     20  O   LIG    1       -6.753   1.844  -1.995  0.00  0.00    -0.450 OA
ENDBRANCH  13  14
ENDBRANCH  12  13
ENDBRANCH  11  12
ENDBRANCH  10  11
ENDBRANCH   2  10
BRANCH   1  21
ATOM     21  C   LIG    1        1.132   3.366  -0.108  0.00  0.00    +0.310 C 
BRANCH  21  22
ATOM     22  C   LIG    1        1.909   3.975   1.062  0.00  0.00    -0.050 C 
ATOM     23  C   LIG    1        2.099   5.489   0.839  0.00  0.00    +0.040 C 
ATOM     24  C   LIG    1        1.960   6.102   2.255  0.00  0.00    +0.050 C 
ATOM     25  C   LIG    1        0.836   5.245   2.889  0.00  0.00    +0.030 C 
ATOM     26  C   LIG    1        1.107   3.818   2.365  0.00  0.00    +0.280 C 
ATOM     27  F   LIG    1        1.852   3.096   3.303  0.00  0.00    -0.200 F 
ATOM     28  F   LIG    1       -0.103   3.165   2.108  0.00  0.00    -0.190 F 
ENDBRANCH  21  22
ENDBRANCH   1  21
TORSDOF 9
