REMARK  Name = ZINCrD000000BXoy.0
REMARK                            x       y       z     vdW  Elec       q    Type
REMARK                         _______ _______ _______ _____ _____    ______ ____
ROOT
ATOM      1  O   LIG    1        3.825  -1.830   0.046  0.00  0.00    -0.500 OA
ATOM      2  C   LIG    1        3.760  -0.620  -0.042  0.00  0.00    +0.570 C 
ATOM      3  N   LIG    1        4.888   0.111  -0.144  0.00  0.00    -0.670 N 
ATOM      4  H   LIG    1        4.841   1.079  -0.134  0.00  0.00    +0.420 HD
ENDROOT
BRANCH   2   5
ATOM      5  C   LIG    1        2.443   0.052  -0.036  0.00  0.00    -0.080 A 
ATOM      6  C   LIG    1        2.344   1.438  -0.023  0.00  0.00    +0.010 A 
ATOM      7  C   LIG    1        1.086   2.037  -0.018  0.00  0.00    +0.180 A 
ATOM      8  N   LIG    1       -0.017   1.331  -0.024  0.00  0.00    -0.440 NA
ATOM      9  C   LIG    1        0.001  -0.005  -0.036  0.00  0.00    +0.130 A 
ATOM     10  C   LIG    1       -1.195  -0.745  -0.044  0.00  0.00    +0.050 A 
ATOM     11  C   LIG    1       -1.147  -2.105  -0.057  0.00  0.00    +0.040 A 
ATOM     12  C   LIG    1        0.071  -2.781  -0.063  0.00  0.00    +0.020 A 
ATOM     13  C   LIG    1        1.250  -2.097  -0.057  0.00  0.00    +0.060 A 
ATOM     14  C   LIG    1        1.238  -0.697  -0.043  0.00  0.00    -0.070 A 
BRANCH   7  15
ATOM     15  C   LIG    1        0.992   3.541  -0.005  0.00  0.00    +0.020 C 
ATOM     16  C   LIG    1        2.249   4.324   0.382  0.00  0.00    +0.040 C 
ATOM     17  C   LIG    1        1.068   4.242   1.353  0.00  0.00    +0.050 C 
ENDBRANCH   7  15
ENDBRANCH   2   5
BRANCH   3  18
ATOM     18  C   LIG    1        6.126  -0.529  -0.264  0.00  0.00    +0.160 A 
ATOM     19  C   LIG    1        7.257   0.032   0.316  0.00  0.00    +0.030 A 
ATOM     20  C   LIG    1        8.478  -0.602   0.201  0.00  0.00    +0.040 A 
ATOM     21  C   LIG    1        8.578  -1.794  -0.503  0.00  0.00    +0.120 A 
ATOM     22  C   LIG    1        7.449  -2.352  -1.087  0.00  0.00    +0.070 A 
ATOM     23  C   LIG    1        6.226  -1.722  -0.968  0.00  0.00    +0.050 A 
BRANCH  21  24
ATOM     24  N   LIG    1        9.820  -2.436  -0.624  0.00  0.00    -0.330 N 
ATOM     25  C   LIG    1       11.006  -2.026  -0.124  0.00  0.00    +0.470 A 
ATOM     26  N   LIG    1       11.899  -2.918  -0.466  0.00  0.00    -0.330 NA
ATOM     27  N   LIG    1       11.361  -3.857  -1.155  0.00  0.00    -0.030 NA
ATOM     28  N   LIG    1       10.098  -3.639  -1.296  0.00  0.00    -0.080 NA
ENDBRANCH  21  24
ENDBRANCH   3  18
TORSDOF 4
