REMARK  Name = ZINCpk000000mO4y.0
REMARK                            x       y       z     vdW  Elec       q    Type
REMARK                         _______ _______ _______ _____ _____    ______ ____
ROOT
ATOM      1  C   LIG    1       -0.014   1.209   0.007  0.00  0.00    +0.530 C 
ATOM      2  N   LIG    1       -1.191   1.867   0.018  0.00  0.00    -0.670 N 
ATOM      3  H   LIG    1       -1.205   2.833   0.098  0.00  0.00    +0.420 HD
ATOM      4  O   LIG    1        0.002  -0.004  -0.008  0.00  0.00    -0.500 OA
ENDROOT
BRANCH   2   5
ATOM      5  C   LIG    1       -2.391   1.155  -0.086  0.00  0.00    +0.120 A 
ATOM      6  C   LIG    1       -3.468   1.704  -0.769  0.00  0.00    +0.060 A 
ATOM      7  C   LIG    1       -4.650   0.997  -0.875  0.00  0.00    +0.020 A 
ATOM      8  C   LIG    1       -4.765  -0.251  -0.291  0.00  0.00    +0.010 A 
ATOM      9  C   LIG    1       -3.696  -0.798   0.395  0.00  0.00    -0.660 A 
ATOM     10  C   LIG    1       -6.058  -1.017  -0.402  0.00  0.00    +0.110 C 
ATOM     11  C   LIG    1       -2.510  -0.099   0.499  0.00  0.00    +0.140 A 
BRANCH   9  12
ATOM     12  S   LIG    1       -3.847  -2.389   1.137  0.00  0.00    +2.700 S 
ATOM     13  O   LIG    1       -2.609  -2.650   1.785  0.00  0.00    -0.960 OA
ATOM     14  O   LIG    1       -4.400  -3.244   0.145  0.00  0.00    -0.960 OA
BRANCH  12  15
ATOM     15  N   LIG    1       -4.985  -2.266   2.334  0.00  0.00    -1.250 NA
ATOM     16  H   LIG    1       -5.215  -3.043   2.867  0.00  0.00    +0.420 HD
ATOM     17  H   LIG    1       -5.421  -1.416   2.502  0.00  0.00    +0.420 HD
ENDBRANCH  12  15
ENDBRANCH   9  12
ENDBRANCH   2   5
BRANCH   1  18
ATOM     18  C   LIG    1        1.280   1.980   0.007  0.00  0.00    +0.110 C 
BRANCH  18  19
ATOM     19  S   LIG    1        2.672   0.823  -0.017  0.00  0.00    +0.090 S 
BRANCH  19  25
ATOM     20  N   LIG    1        5.346   1.648  -0.020  0.00  0.00    -0.460 N 
ATOM     21  C   LIG    1        6.008   2.845  -0.016  0.00  0.00    +0.190 A 
ATOM     22  N   LIG    1        5.108   3.787   0.003  0.00  0.00    -0.280 NA
ATOM     23  N   LIG    1        3.930   3.272   0.005  0.00  0.00    -0.290 NA
ATOM     24  C   LIG    1        7.503   3.038  -0.025  0.00  0.00    +0.200 C 
ATOM     25  C   LIG    1        4.017   1.962  -0.012  0.00  0.00    +0.140 A 
BRANCH  20  26
ATOM     26  C   LIG    1        5.939   0.309  -0.034  0.00  0.00    +0.350 C 
BRANCH  26  28
ATOM     27  C   LIG    1        7.322  -0.519  -1.868  0.00  0.00    +0.060 C 
ATOM     28  C   LIG    1        6.137  -0.138  -1.460  0.00  0.00    -0.070 C 
ENDBRANCH  26  28
ENDBRANCH  20  26
ENDBRANCH  19  25
ENDBRANCH  18  19
ENDBRANCH   1  18
TORSDOF 8
