REMARK  Name = ZINCpe000000YT7E.0
REMARK                            x       y       z     vdW  Elec       q    Type
REMARK                         _______ _______ _______ _____ _____    ______ ____
ROOT
ATOM      1  O   LIG    1        1.689  -1.437  -2.365  0.00  0.00    -0.520 OA
ATOM      2  C   LIG    1        1.965  -2.183  -1.449  0.00  0.00    +0.500 C 
ATOM      3  N   LIG    1        2.413  -3.428  -1.706  0.00  0.00    -0.720 N 
ATOM      4  H   LIG    1        2.634  -4.024  -0.974  0.00  0.00    +0.400 HD
ENDROOT
BRANCH   3   5
ATOM      5  C   LIG    1        2.565  -3.880  -3.091  0.00  0.00    +0.290 C 
ATOM      6  C   LIG    1        3.613  -4.990  -3.146  0.00  0.00    +0.020 C 
ATOM      7  C   LIG    1        3.602  -5.596  -4.555  0.00  0.00    +0.030 C 
ATOM      8  C   LIG    1        2.300  -6.375  -4.733  0.00  0.00    +0.080 C 
ATOM      9  C   LIG    1        1.117  -5.523  -4.357  0.00  0.00    -0.070 A 
ATOM     10  C   LIG    1       -0.137  -5.925  -4.800  0.00  0.00    -0.010 A 
ATOM     11  C   LIG    1       -1.261  -5.190  -4.484  0.00  0.00    +0.010 A 
ATOM     12  C   LIG    1       -1.140  -4.044  -3.721  0.00  0.00    -0.010 A 
ATOM     13  C   LIG    1        0.105  -3.642  -3.282  0.00  0.00    +0.020 A 
ATOM     14  C   LIG    1        1.238  -4.379  -3.599  0.00  0.00    -0.100 A 
ENDBRANCH   3   5
BRANCH   2  15
ATOM     15  C   LIG    1        1.808  -1.718  -0.024  0.00  0.00    +0.360 C 
BRANCH  15  16
ATOM     16  N   LIG    1        1.311  -0.340  -0.012  0.00  0.00    -0.560 N 
ATOM     17  C   LIG    1        2.098   0.745  -0.014  0.00  0.00    +0.710 C 
ATOM     18  N   LIG    1        1.389   1.893  -0.001  0.00  0.00    -0.710 N 
ATOM     19  H   LIG    1        1.742   2.797   0.000  0.00  0.00    +0.450 HD
ATOM     20  C   LIG    1       -0.018   1.500   0.010  0.00  0.00    +0.080 C 
ATOM     21  C   LIG    1       -0.771   2.058  -1.208  0.00  0.00    +0.050 C 
ATOM     22  C   LIG    1       -2.147   2.425  -0.591  0.00  0.00    +0.240 C 
ATOM     23  O   LIG    1       -1.811   2.901   0.732  0.00  0.00    -0.360 OA
ATOM     24  C   LIG    1       -0.759   2.053   1.230  0.00  0.00    +0.250 C 
ATOM     25  O   LIG    1        3.312   0.700  -0.026  0.00  0.00    -0.530 OA
ATOM     26  C   LIG    1        0.002  -0.004   0.002  0.00  0.00    +0.540 C 
ATOM     27  O   LIG    1       -0.951  -0.754   0.008  0.00  0.00    -0.450 OA
ENDBRANCH  15  16
ENDBRANCH   2  15
TORSDOF 3
