REMARK  Name = ZINC9u0000000C6N.0
REMARK                            x       y       z     vdW  Elec       q    Type
REMARK                         _______ _______ _______ _____ _____    ______ ____
ROOT
ATOM      1 CL   LIG    1        1.161  -2.404  -0.022  0.00  0.00    +0.030 Cl
ATOM      2  C   LIG    1        1.149  -0.668  -0.013  0.00  0.00    +0.240 A 
ATOM      3  N   LIG    1        0.002  -0.004   0.002  0.00  0.00    -0.500 NA
ATOM      4  C   LIG    1       -0.016   1.314   0.009  0.00  0.00    +0.570 A 
ATOM      5  N   LIG    1        1.095   2.023   0.003  0.00  0.00    -0.500 NA
ATOM      6  C   LIG    1        2.279   1.431  -0.012  0.00  0.00    +0.240 A 
ATOM      7 CL   LIG    1        3.736   2.376  -0.021  0.00  0.00    +0.030 Cl
ATOM      8  C   LIG    1        2.340   0.044  -0.020  0.00  0.00    -0.130 A 
ATOM      9 CL   LIG    1        3.868  -0.779  -0.038  0.00  0.00    +0.010 Cl
ENDROOT
TORSDOF 0
