REMARK  Name = ZINC9u0000000C5a.0
REMARK                            x       y       z     vdW  Elec       q    Type
REMARK                         _______ _______ _______ _____ _____    ______ ____
ROOT
ATOM      1  C   LIG    1        1.102   1.808   0.001  0.00  0.00    -0.210 A 
ATOM      2  C   LIG    1       -0.013   1.076   0.008  0.00  0.00    +0.030 A 
ATOM      3  C   LIG    1       -1.190   1.805   0.017  0.00  0.00    +0.030 A 
ATOM      4  C   LIG    1       -1.030   3.130   0.028  0.00  0.00    -0.150 A 
ATOM      5 CL   LIG    1       -2.318   4.293   0.046  0.00  0.00    -0.010 Cl
ATOM      6  S   LIG    1        0.685   3.517   0.014  0.00  0.00    +0.160 S 
ENDROOT
BRANCH   1   8
ATOM      7  C   LIG    1        3.056   1.310  -1.441  0.00  0.00    +0.030 C 
ATOM      8  C   LIG    1        2.504   1.256  -0.015  0.00  0.00    +0.290 C 
BRANCH   8   9
ATOM      9  O   LIG    1        3.334   2.037   0.847  0.00  0.00    -0.550 OA
ATOM     10  H   LIG    1        3.391   2.970   0.599  0.00  0.00    +0.370 HD
ENDBRANCH   8   9
ENDBRANCH   1   8
TORSDOF 2
