REMARK  Name = ZINCtV00000nBHS5.1
REMARK                            x       y       z     vdW  Elec       q    Type
REMARK                         _______ _______ _______ _____ _____    ______ ____
ROOT
ATOM      1  N   LIG    1       -0.845   2.977  -1.228  0.00  0.00    -0.530 NA
ATOM      2  C   LIG    1       -0.904   1.512  -1.301  0.00  0.00    +0.180 C 
ATOM      3  C   LIG    1       -0.214   0.910  -0.076  0.00  0.00    +0.050 C 
ATOM      4  C   LIG    1       -0.913   1.404   1.194  0.00  0.00    +0.100 C 
ATOM      5  C   LIG    1       -0.880   2.935   1.222  0.00  0.00    +0.050 C 
ATOM      6  C   LIG    1       -1.551   3.478  -0.042  0.00  0.00    +0.190 C 
ENDROOT
BRANCH   4   7
ATOM      7  C   LIG    1       -0.199   0.862   2.405  0.00  0.00    +0.260 A 
ATOM      8  N   LIG    1        1.048   1.084   2.693  0.00  0.00    -0.470 NA
ATOM      9  C   LIG    1        1.350   0.444   3.855  0.00  0.00    +0.020 A 
ATOM     10  C   LIG    1        2.510   0.334   4.624  0.00  0.00    +0.080 A 
ATOM     11  C   LIG    1        2.494  -0.415   5.780  0.00  0.00    +0.020 A 
ATOM     12  C   LIG    1        1.334  -1.059   6.184  0.00  0.00    +0.050 A 
ATOM     13  C   LIG    1        0.181  -0.959   5.433  0.00  0.00    +0.050 A 
ATOM     14  C   LIG    1        0.179  -0.210   4.267  0.00  0.00    +0.010 A 
ATOM     15  O   LIG    1       -0.760   0.076   3.338  0.00  0.00    -0.220 OA
ENDBRANCH   4   7
BRANCH   1  16
ATOM     16  C   LIG    1       -1.375   3.588  -2.454  0.00  0.00    +0.250 C 
BRANCH  16  23
ATOM     17  C   LIG    1        2.678   1.198  -8.829  0.00  0.00    +0.100 C 
ATOM     18  C   LIG    1        1.742   1.502  -7.689  0.00  0.00    -0.070 A 
ATOM     19  C   LIG    1        2.107   2.415  -6.748  0.00  0.00    -0.060 A 
ATOM     20  C   LIG    1        1.238   2.704  -5.681  0.00  0.00    +0.150 A 
ATOM     21  N   LIG    1        1.570   3.597  -4.744  0.00  0.00    -0.470 NA
ATOM     22  C   LIG    1        0.763   3.870  -3.746  0.00  0.00    +0.230 A 
ATOM     23  C   LIG    1       -0.478   3.246  -3.615  0.00  0.00    -0.120 A 
ATOM     24  C   LIG    1       -0.875   2.320  -4.536  0.00  0.00    +0.110 A 
ATOM     25 CL   LIG    1        1.250   5.040  -2.559  0.00  0.00    -0.010 Cl
ATOM     26  C   LIG    1       -0.008   2.033  -5.607  0.00  0.00    -0.100 A 
ATOM     27  C   LIG    1       -0.352   1.097  -6.595  0.00  0.00    +0.030 A 
ATOM     28  C   LIG    1        3.438   3.115  -6.850  0.00  0.00    +0.110 C 
ATOM     29  C   LIG    1        0.516   0.844  -7.614  0.00  0.00    +0.030 A 
ENDBRANCH  16  23
ENDBRANCH   1  16
TORSDOF 3
