REMARK  Name = ZINCrg000000rvcS.0
REMARK                            x       y       z     vdW  Elec       q    Type
REMARK                         _______ _______ _______ _____ _____    ______ ____
ROOT
ATOM      1  N   LIG    1       -1.797   6.925  -1.707  0.00  0.00    -0.730 N 
ATOM      2  H   LIG    1       -2.418   6.210  -1.498  0.00  0.00    +0.400 HD
ATOM      3  C   LIG    1       -0.677   6.661  -2.408  0.00  0.00    +0.520 C 
ATOM      4  O   LIG    1        0.100   7.556  -2.669  0.00  0.00    -0.530 OA
ENDROOT
BRANCH   3   5
ATOM      5  C   LIG    1       -0.390   5.256  -2.869  0.00  0.00    +0.000 C 
ATOM      6  C   LIG    1       -0.095   4.329  -1.667  0.00  0.00    +0.090 C 
ATOM      7  C   LIG    1        1.412   4.359  -1.534  0.00  0.00    +0.520 C 
ATOM      8  N   LIG    1        1.965   4.856  -2.654  0.00  0.00    -0.580 N 
ATOM      9  O   LIG    1        2.031   3.991  -0.557  0.00  0.00    -0.510 OA
ATOM     10  C   LIG    1        0.941   5.191  -3.651  0.00  0.00    +0.310 C 
BRANCH   8  11
ATOM     11  C   LIG    1        3.341   5.027  -2.846  0.00  0.00    +0.170 A 
ATOM     12  C   LIG    1        3.949   6.226  -2.497  0.00  0.00    +0.040 A 
ATOM     13  C   LIG    1        5.306   6.393  -2.694  0.00  0.00    +0.040 A 
ATOM     14  C   LIG    1        6.059   5.370  -3.237  0.00  0.00    +0.030 A 
ATOM     15  C   LIG    1        5.457   4.174  -3.586  0.00  0.00    +0.050 A 
ATOM     16  C   LIG    1        4.100   4.000  -3.392  0.00  0.00    -0.090 A 
ATOM     17 BR   LIG    1        3.278   2.365  -3.870  0.00  0.00    -0.040 Br
ENDBRANCH   8  11
ENDBRANCH   3   5
BRANCH   1  18
ATOM     18  C   LIG    1       -2.076   8.292  -1.259  0.00  0.00    +0.270 C 
BRANCH  18  20
ATOM     19  C   LIG    1       -4.506   7.722  -1.363  0.00  0.00    +0.070 C 
ATOM     20  C   LIG    1       -3.399   8.316  -0.491  0.00  0.00    +0.130 C 
BRANCH  20  21
ATOM     21  O   LIG    1       -3.269   7.546   0.706  0.00  0.00    -0.560 OA
ATOM     22  H   LIG    1       -2.429   7.673   1.167  0.00  0.00    +0.380 HD
ENDBRANCH  20  21
BRANCH  20  23
ATOM     23  C   LIG    1       -3.753   9.761  -0.131  0.00  0.00    +0.170 C 
BRANCH  23  24
ATOM     24  N   LIG    1       -2.610  10.391   0.544  0.00  0.00    -0.540 NA
ATOM     25  C   LIG    1       -2.660  10.156   1.994  0.00  0.00    +0.150 C 
ATOM     26  C   LIG    1       -1.423  10.778   2.649  0.00  0.00    +0.220 C 
ATOM     27  O   LIG    1       -1.369  12.170   2.328  0.00  0.00    -0.380 OA
ATOM     28  C   LIG    1       -1.319  12.435   0.923  0.00  0.00    +0.220 C 
ATOM     29  C   LIG    1       -2.554  11.831   0.251  0.00  0.00    +0.160 C 
ENDBRANCH  23  24
ENDBRANCH  20  23
ENDBRANCH  18  20
ENDBRANCH   1  18
TORSDOF 7
