REMARK  Name = ZINCvU00000005TB.0
REMARK                            x       y       z     vdW  Elec       q    Type
REMARK                         _______ _______ _______ _____ _____    ______ ____
ROOT
ATOM      1  N   LIG    1        0.838   4.822   0.020  0.00  0.00    -0.620 N 
ATOM      2  H   LIG    1        0.201   5.554   0.029  0.00  0.00    +0.420 HD
ATOM      3  C   LIG    1        2.160   5.081   0.008  0.00  0.00    +0.510 C 
ATOM      4  O   LIG    1        2.957   4.167  -0.004  0.00  0.00    -0.500 OA
ENDROOT
BRANCH   1   8
ATOM      5  C   LIG    1       -1.112   1.851   0.017  0.00  0.00    +0.180 A 
ATOM      6  C   LIG    1       -0.013   1.076   0.008  0.00  0.00    -0.140 A 
ATOM      7  S   LIG    1        1.399   2.130   0.000  0.00  0.00    +0.240 S 
ATOM      8  C   LIG    1        0.387   3.508   0.017  0.00  0.00    +0.240 A 
ATOM      9  N   LIG    1       -0.858   3.154   0.027  0.00  0.00    -0.510 NA
BRANCH   5  13
ATOM     10  N   LIG    1       -4.687   1.130   0.027  0.00  0.00    -0.440 N 
ATOM     11  C   LIG    1       -4.191  -0.140   0.018  0.00  0.00    +0.010 A 
ATOM     12  C   LIG    1       -2.846  -0.074   0.007  0.00  0.00    -0.030 A 
ATOM     13  C   LIG    1       -2.490   1.298   0.019  0.00  0.00    -0.110 A 
ATOM     14  C   LIG    1       -5.010  -1.405   0.013  0.00  0.00    +0.130 C 
ATOM     15  C   LIG    1       -3.647   2.012   0.028  0.00  0.00    +0.060 A 
ATOM     16  C   LIG    1       -3.760   3.515   0.037  0.00  0.00    +0.140 C 
BRANCH  10  17
ATOM     17  C   LIG    1       -6.107   1.490   0.035  0.00  0.00    +0.280 C 
BRANCH  17  19
ATOM     18  C   LIG    1       -8.091   1.998  -1.397  0.00  0.00    +0.030 C 
ATOM     19  C   LIG    1       -6.608   1.623  -1.405  0.00  0.00    +0.000 C 
ENDBRANCH  17  19
ENDBRANCH  10  17
ENDBRANCH   5  13
ENDBRANCH   1   8
BRANCH   3  20
ATOM     20  C   LIG    1        2.649   6.507   0.011  0.00  0.00    +0.090 C 
BRANCH  20  21
ATOM     21  C   LIG    1        4.179   6.522  -0.004  0.00  0.00    +0.070 C 
BRANCH  21  22
ATOM     22  C   LIG    1        4.675   7.969  -0.001  0.00  0.00    +0.180 C 
BRANCH  22  23
ATOM     23  O   LIG    1        6.104   7.983  -0.014  0.00  0.00    -0.310 OA
BRANCH  23  24
ATOM     24  C   LIG    1        6.710   9.200  -0.014  0.00  0.00    +0.090 A 
ATOM     25  C   LIG    1        5.943  10.356  -0.007  0.00  0.00    -0.040 A 
ATOM     26  C   LIG    1        6.558  11.593  -0.001  0.00  0.00    -0.040 A 
ATOM     27  C   LIG    1        7.943  11.679  -0.014  0.00  0.00    +0.090 A 
ATOM     28  C   LIG    1        8.709  10.523  -0.027  0.00  0.00    +0.030 A 
ATOM     29  C   LIG    1        8.094   9.286  -0.027  0.00  0.00    +0.030 A 
BRANCH  27  30
ATOM     30  O   LIG    1        8.548  12.896  -0.014  0.00  0.00    -0.320 OA
BRANCH  30  31
ATOM     31  C   LIG    1        7.697  14.044  -0.001  0.00  0.00    +0.170 C 
ATOM     32  C   LIG    1        8.552  15.313  -0.004  0.00  0.00    +0.070 C 
ENDBRANCH  30  31
ENDBRANCH  27  30
ENDBRANCH  23  24
ENDBRANCH  22  23
ENDBRANCH  21  22
ENDBRANCH  20  21
ENDBRANCH   3  20
TORSDOF 11
