REMARK  Name = ZINCkj000005lr3Q.0
REMARK                            x       y       z     vdW  Elec       q    Type
REMARK                         _______ _______ _______ _____ _____    ______ ____
ROOT
ATOM      1  C   LIG    1       -0.013   1.086   0.008  0.00  0.00    +0.230 C 
ATOM      2  C   LIG    1        1.400   1.630  -0.003  0.00  0.00    -0.180 A 
ATOM      3  C   LIG    1        2.517   1.241   0.716  0.00  0.00    +0.060 A 
ATOM      4  C   LIG    1        3.720   1.895   0.539  0.00  0.00    +0.020 A 
ATOM      5  C   LIG    1        3.811   2.943  -0.358  0.00  0.00    +0.070 A 
ATOM      6  C   LIG    1        2.697   3.333  -1.076  0.00  0.00    +0.040 A 
ATOM      7  C   LIG    1        1.490   2.678  -0.900  0.00  0.00    -0.060 A 
ATOM      8  C   LIG    1        0.144   2.909  -1.553  0.00  0.00    +0.100 C 
ATOM      9  C   LIG    1       -0.661   1.620  -1.287  0.00  0.00    +0.270 C 
ENDROOT
BRANCH   1  10
ATOM     10  N   LIG    1       -0.740   1.578   1.185  0.00  0.00    -0.630 N 
ATOM     11  H   LIG    1       -0.291   1.241   2.024  0.00  0.00    +0.440 HD
ATOM     12  H   LIG    1       -1.692   1.245   1.156  0.00  0.00    +0.440 HD
ATOM     13  H   LIG    1       -0.737   2.587   1.185  0.00  0.00    +0.440 HD
ENDBRANCH   1  10
BRANCH   9  14
ATOM     14  N   LIG    1       -0.494   0.665  -2.385  0.00  0.00    -0.720 N 
ATOM     15  H   LIG    1        0.243   0.034  -2.372  0.00  0.00    +0.410 HD
ATOM     16  C   LIG    1       -1.363   0.662  -3.415  0.00  0.00    +0.510 C 
ATOM     17  O   LIG    1       -2.285   1.451  -3.432  0.00  0.00    -0.490 OA
BRANCH  16  18
ATOM     18  C   LIG    1       -1.191  -0.320  -4.545  0.00  0.00    +0.370 C 
BRANCH  18  19
ATOM     19  N   LIG    1       -2.256  -0.121  -5.531  0.00  0.00    -0.370 N 
ATOM     20  C   LIG    1       -2.083   0.119  -6.848  0.00  0.00    +0.290 A 
ATOM     21  C   LIG    1       -3.309   0.239  -7.410  0.00  0.00    -0.230 A 
ATOM     22  C   LIG    1       -4.263   0.075  -6.399  0.00  0.00    +0.280 A 
ATOM     23 BR   LIG    1       -3.669   0.576  -9.235  0.00  0.00    -0.010 Br
ATOM     24  N   LIG    1       -3.633  -0.141  -5.273  0.00  0.00    -0.260 NA
ENDBRANCH  18  19
ENDBRANCH  16  18
ENDBRANCH   9  14
TORSDOF 4
