REMARK  Name = ZINCpe000000Zja8.0
REMARK                            x       y       z     vdW  Elec       q    Type
REMARK                         _______ _______ _______ _____ _____    ______ ____
ROOT
ATOM      1  C   LIG    1        2.918  -0.432   2.348  0.00  0.00    +0.180 C 
ENDROOT
BRANCH   1   2
ATOM      2  C   LIG    1        4.140   0.442   2.225  0.00  0.00    -0.060 A 
ATOM      3  C   LIG    1        5.391  -0.079   2.493  0.00  0.00    +0.010 A 
ATOM      4  C   LIG    1        6.513   0.721   2.380  0.00  0.00    +0.050 A 
ATOM      5  C   LIG    1        6.384   2.043   2.000  0.00  0.00    -0.010 A 
ATOM      6  C   LIG    1        5.130   2.567   1.731  0.00  0.00    +0.100 A 
ATOM      7  F   LIG    1        5.003   3.859   1.359  0.00  0.00    -0.140 F 
ATOM      8  C   LIG    1        4.008   1.763   1.839  0.00  0.00    +0.030 A 
ENDBRANCH   1   2
BRANCH   1   9
ATOM      9  N   LIG    1        2.064  -0.249   1.167  0.00  0.00    -0.510 NA
ATOM     10  C   LIG    1        2.773  -0.637  -0.061  0.00  0.00    +0.160 C 
ATOM     11  C   LIG    1        1.871  -0.374  -1.270  0.00  0.00    +0.220 C 
ATOM     12  O   LIG    1        0.643  -1.089  -1.105  0.00  0.00    -0.380 OA
ATOM     13  C   LIG    1       -0.074  -0.735   0.080  0.00  0.00    +0.230 C 
ATOM     14  C   LIG    1        0.808  -1.001   1.302  0.00  0.00    +0.150 C 
ENDBRANCH   1   9
BRANCH   1  16
ATOM     15  O   LIG    1        1.268   0.780   3.522  0.00  0.00    -0.500 OA
ATOM     16  C   LIG    1        2.150  -0.050   3.587  0.00  0.00    +0.520 C 
ATOM     17  N   LIG    1        2.443  -0.631   4.767  0.00  0.00    -0.720 N 
ATOM     18  H   LIG    1        3.148  -1.295   4.819  0.00  0.00    +0.400 HD
BRANCH  17  19
ATOM     19  C   LIG    1        1.696  -0.260   5.972  0.00  0.00    +0.270 C 
ATOM     20  C   LIG    1        2.320   0.987   6.591  0.00  0.00    +0.020 C 
ATOM     21  C   LIG    1        1.425   1.546   7.693  0.00  0.00    +0.070 C 
ATOM     22  C   LIG    1        1.437   0.606   8.900  0.00  0.00    -0.320 C 
ATOM     23  S   LIG    1        0.718  -0.990   8.414  0.00  0.00    +2.430 S 
ATOM     24  O   LIG    1        0.970  -1.935   9.445  0.00  0.00    -0.930 OA
ATOM     25  O   LIG    1       -0.616  -0.774   7.977  0.00  0.00    -0.930 OA
ATOM     26  C   LIG    1        1.740  -1.416   6.973  0.00  0.00    -0.350 C 
ENDBRANCH  17  19
ENDBRANCH   1  16
TORSDOF 4
