REMARK  Name = ZINCrg000000pnE3.0
REMARK                            x       y       z     vdW  Elec       q    Type
REMARK                         _______ _______ _______ _____ _____    ______ ____
ROOT
ATOM      1  S   LIG    1        2.640   4.307   0.044  0.00  0.00    +2.690 S 
ATOM      2  O   LIG    1        3.582   3.450   0.674  0.00  0.00    -0.930 OA
ATOM      3  O   LIG    1        2.352   5.619   0.506  0.00  0.00    -0.930 OA
ENDROOT
BRANCH   1   4
ATOM      4  N   LIG    1        1.200   3.489   0.031  0.00  0.00    -0.930 N 
ATOM      5  C   LIG    1       -0.060   4.215   0.220  0.00  0.00    +0.320 C 
ATOM      6  C   LIG    1       -1.172   3.450  -0.503  0.00  0.00    +0.210 C 
ATOM      7  N   LIG    1       -1.234   2.079   0.028  0.00  0.00    -0.480 N 
ATOM      8  C   LIG    1       -2.354   1.346  -0.581  0.00  0.00    +0.180 C 
ATOM      9  C   LIG    1       -2.382  -0.074  -0.010  0.00  0.00    +0.250 C 
ATOM     10  O   LIG    1       -1.146  -0.720  -0.299  0.00  0.00    -0.310 OA
ATOM     11  C   LIG    1       -0.007   0.017  -0.323  0.00  0.00    +0.130 A 
ATOM     12  C   LIG    1        1.202  -0.643  -0.513  0.00  0.00    -0.010 A 
ATOM     13  C   LIG    1        2.389   0.060  -0.526  0.00  0.00    +0.080 A 
ATOM     14  C   LIG    1        2.382   1.430  -0.348  0.00  0.00    -0.050 A 
ATOM     15  C   LIG    1       -0.021   1.397  -0.154  0.00  0.00    +0.000 A 
ATOM     16  C   LIG    1        1.181   2.101  -0.159  0.00  0.00    +0.180 A 
ENDBRANCH   1   4
BRANCH   1  21
ATOM     17  C   LIG    1        3.184   5.705  -3.683  0.00  0.00    -0.700 A 
ATOM     18  C   LIG    1        3.978   4.732  -4.260  0.00  0.00    +0.180 A 
ATOM     19  C   LIG    1        4.364   3.628  -3.521  0.00  0.00    +0.000 A 
ATOM     20  C   LIG    1        3.959   3.501  -2.206  0.00  0.00    +0.180 A 
ATOM     21  C   LIG    1        3.160   4.472  -1.631  0.00  0.00    -0.700 A 
ATOM     22  C   LIG    1        2.776   5.576  -2.369  0.00  0.00    +0.240 A 
BRANCH  17  23
ATOM     23  S   LIG    1        2.693   7.112  -4.624  0.00  0.00    +2.700 S 
ATOM     24  O   LIG    1        1.508   7.607  -4.016  0.00  0.00    -0.950 OA
ATOM     25  O   LIG    1        2.763   6.726  -5.990  0.00  0.00    -0.950 OA
BRANCH  23  27
ATOM     26  C   LIG    1        5.213   8.053  -4.898  0.00  0.00    +0.300 C 
ATOM     27  N   LIG    1        3.851   8.275  -4.407  0.00  0.00    -1.120 NA
ATOM     28  H   LIG    1        3.627   9.104  -3.955  0.00  0.00    +0.420 HD
ENDBRANCH  23  27
ENDBRANCH  17  23
ENDBRANCH   1  21
TORSDOF 4
