REMARK  Name = ZINCqH0000005lu1.0
REMARK                            x       y       z     vdW  Elec       q    Type
REMARK                         _______ _______ _______ _____ _____    ______ ____
ROOT
ATOM      1  C   LIG    1        1.254   1.721   0.003  0.00  0.00    +0.250 C 
ATOM      2  C   LIG    1        2.387   0.851   0.594  0.00  0.00    +0.070 C 
ATOM      3  C   LIG    1        2.991   0.214  -0.676  0.00  0.00    +0.280 C 
ATOM      4  N   LIG    1        2.678   1.144  -1.768  0.00  0.00    -0.560 N 
ATOM      5  C   LIG    1        1.701   1.998  -1.416  0.00  0.00    +0.500 C 
ATOM      6  O   LIG    1        1.245   2.865  -2.131  0.00  0.00    -0.490 OA
ENDROOT
BRANCH   4   7
ATOM      7  C   LIG    1        3.313   1.141  -3.015  0.00  0.00    +0.180 A 
ATOM      8  C   LIG    1        4.392   0.298  -3.244  0.00  0.00    +0.000 A 
ATOM      9  C   LIG    1        5.018   0.297  -4.475  0.00  0.00    +0.080 A 
ATOM     10  C   LIG    1        4.571   1.135  -5.481  0.00  0.00    -0.060 A 
ATOM     11  C   LIG    1        3.495   1.978  -5.255  0.00  0.00    -0.000 A 
ATOM     12 CL   LIG    1        2.937   3.029  -6.519  0.00  0.00    -0.040 Cl
ATOM     13 CL   LIG    1        5.361   1.131  -7.027  0.00  0.00    -0.050 Cl
ATOM     14  C   LIG    1        2.862   1.979  -4.027  0.00  0.00    +0.030 A 
ENDBRANCH   4   7
BRANCH   1  15
ATOM     15  N   LIG    1       -0.013   0.986   0.006  0.00  0.00    -0.730 N 
ATOM     16  H   LIG    1       -0.011   0.016  -0.005  0.00  0.00    +0.410 HD
BRANCH  15  23
ATOM     17  C   LIG    1       -5.319   4.954   0.076  0.00  0.00    +0.310 C 
ATOM     18  N   LIG    1       -4.955   3.535   0.058  0.00  0.00    -0.550 N 
ATOM     19  C   LIG    1       -5.848   2.531   0.051  0.00  0.00    +0.520 C 
ATOM     20  C   LIG    1       -5.065   1.236   0.032  0.00  0.00    +0.130 C 
ATOM     21  C   LIG    1       -3.620   1.680   0.031  0.00  0.00    -0.100 A 
ATOM     22  C   LIG    1       -2.431   0.988   0.012  0.00  0.00    +0.000 A 
ATOM     23  C   LIG    1       -1.226   1.683   0.020  0.00  0.00    +0.190 A 
ATOM     24  C   LIG    1       -1.233   3.071   0.035  0.00  0.00    -0.020 A 
ATOM     25  C   LIG    1       -2.428   3.761   0.049  0.00  0.00    +0.040 A 
ATOM     26  O   LIG    1       -7.056   2.643   0.058  0.00  0.00    -0.510 OA
ATOM     27  C   LIG    1       -3.637   3.069   0.047  0.00  0.00    +0.090 A 
ENDBRANCH  15  23
ENDBRANCH   1  15
TORSDOF 3
