REMARK  Name = ZINCah0000006ktD.0
REMARK                            x       y       z     vdW  Elec       q    Type
REMARK                         _______ _______ _______ _____ _____    ______ ____
ROOT
ATOM      1 BR   LIG    1        3.869   4.889  -0.009  0.00  0.00    +0.060 Br
ATOM      2  C   LIG    1        3.109   3.158  -0.011  0.00  0.00    +0.370 A 
ATOM      3  N   LIG    1        1.804   3.055   0.001  0.00  0.00    -0.470 NA
ATOM      4  C   LIG    1        1.220   1.843   0.000  0.00  0.00    +0.290 A 
ATOM      5  N   LIG    1       -0.017   1.396   0.010  0.00  0.00    -0.280 NA
ATOM      6  N   LIG    1        0.002  -0.004   0.002  0.00  0.00    -0.400 N 
ATOM      7  H   LIG    1       -0.785  -0.571   0.007  0.00  0.00    +0.460 HD
ATOM      8  C   LIG    1        1.265  -0.445  -0.012  0.00  0.00    +0.360 A 
ATOM      9  C   LIG    1        2.098   0.658  -0.014  0.00  0.00    -0.330 A 
ATOM     10  C   LIG    1        3.489   0.873  -0.027  0.00  0.00    +0.480 A 
ATOM     11  N   LIG    1        3.929   2.114  -0.025  0.00  0.00    -0.540 NA
ENDROOT
TORSDOF 0
