REMARK  Name = ZINCpk00000eaf1P.0
REMARK                            x       y       z     vdW  Elec       q    Type
REMARK                         _______ _______ _______ _____ _____    ______ ____
ROOT
ATOM      1  C   LIG    1        0.002  -0.004   0.002  0.00  0.00    +0.510 C 
ATOM      2  O   LIG    1        1.063  -0.597  -0.011  0.00  0.00    -0.500 OA
ENDROOT
BRANCH   1   3
ATOM      3  C   LIG    1       -0.018   1.465   0.010  0.00  0.00    +0.020 C 
ATOM      4  C   LIG    1        1.125   2.146   0.003  0.00  0.00    -0.070 C 
ATOM      5  C   LIG    1        2.605   1.818  -0.006  0.00  0.00    +0.360 C 
ATOM      6  N   LIG    1        2.813   3.145   0.595  0.00  0.00    -0.640 N 
ATOM      7  C   LIG    1        3.767   3.705   1.365  0.00  0.00    +0.690 C 
ATOM      8  O   LIG    1        3.659   4.862   1.722  0.00  0.00    -0.560 OA
ATOM      9  C   LIG    1        1.541   3.604   0.007  0.00  0.00    +0.400 C 
BRANCH   7  10
ATOM     10  O   LIG    1        4.840   2.983   1.739  0.00  0.00    -0.360 OA
BRANCH  10  11
ATOM     11  C   LIG    1        5.828   3.651   2.568  0.00  0.00    +0.140 C 
ATOM     12  C   LIG    1        6.388   4.862   1.819  0.00  0.00    +0.040 C 
ATOM     13  C   LIG    1        6.965   2.679   2.889  0.00  0.00    +0.080 C 
ATOM     14  C   LIG    1        5.171   4.115   3.869  0.00  0.00    +0.040 C 
ENDBRANCH  10  11
ENDBRANCH   7  10
ENDBRANCH   1   3
BRANCH   1  15
ATOM     15  O   LIG    1       -1.156  -0.694   0.009  0.00  0.00    -0.350 OA
BRANCH  15  16
ATOM     16  C   LIG    1       -1.060  -2.143   0.001  0.00  0.00    +0.410 C 
BRANCH  16  20
ATOM     17  C   LIG    1       -4.322  -3.538  -0.548  0.00  0.00    +0.170 A 
ATOM     18  N   LIG    1       -4.237  -3.513   0.748  0.00  0.00    -0.360 NA
ATOM     19  O   LIG    1       -3.166  -3.057   1.089  0.00  0.00    +0.100 OA
ATOM     20  C   LIG    1       -2.445  -2.738   0.011  0.00  0.00    +0.170 A 
ATOM     21  N   LIG    1       -3.175  -3.035  -1.037  0.00  0.00    -0.450 NA
BRANCH  17  22
ATOM     22  C   LIG    1       -5.495  -4.033  -1.356  0.00  0.00    +0.180 C 
BRANCH  22  23
ATOM     23  C   LIG    1       -6.460  -2.875  -1.616  0.00  0.00    +0.180 C 
BRANCH  23  25
ATOM     24  C   LIG    1       -8.539  -2.336  -2.681  0.00  0.00    +0.200 C 
ATOM     25  O   LIG    1       -7.572  -3.345  -2.382  0.00  0.00    -0.390 OA
ENDBRANCH  23  25
ENDBRANCH  22  23
ENDBRANCH  17  22
ENDBRANCH  16  20
ENDBRANCH  15  16
ENDBRANCH   1  15
TORSDOF 9
