REMARK  Name = ZINCrg00000IYefg.0
REMARK                            x       y       z     vdW  Elec       q    Type
REMARK                         _______ _______ _______ _____ _____    ______ ____
ROOT
ATOM      1  C   LIG    1       -0.009   1.758  -0.008  0.00  0.00    -0.700 A 
ATOM      2  C   LIG    1       -1.218   2.428   0.011  0.00  0.00    +0.150 A 
ATOM      3  C   LIG    1       -1.245   3.808   0.029  0.00  0.00    -0.020 A 
ATOM      4  C   LIG    1       -0.055   4.524   0.020  0.00  0.00    +0.200 A 
ATOM      5  C   LIG    1        1.158   3.849  -0.004  0.00  0.00    +0.010 A 
ATOM      6  C   LIG    1        1.178   2.468  -0.018  0.00  0.00    +0.160 A 
ENDROOT
BRANCH   4   7
ATOM      7  N   LIG    1       -0.078   5.923   0.035  0.00  0.00    -0.670 N 
ATOM      8  H   LIG    1       -0.780   6.402  -0.434  0.00  0.00    +0.420 HD
ATOM      9  C   LIG    1        0.875   6.606   0.700  0.00  0.00    +0.520 C 
ATOM     10  O   LIG    1        1.799   6.013   1.214  0.00  0.00    -0.480 OA
BRANCH   9  11
ATOM     11  C   LIG    1        0.792   8.108   0.803  0.00  0.00    +0.190 C 
ATOM     12  C   LIG    1       -0.448   8.533   1.626  0.00  0.00    +0.110 C 
ATOM     13  C   LIG    1        0.074   9.742   2.377  0.00  0.00    -0.180 A 
ATOM     14  C   LIG    1       -0.565  10.751   3.063  0.00  0.00    +0.060 A 
ATOM     15  C   LIG    1        0.174  11.756   3.661  0.00  0.00    -0.010 A 
ATOM     16  C   LIG    1        1.554  11.743   3.567  0.00  0.00    +0.060 A 
ATOM     17  C   LIG    1        2.196  10.731   2.883  0.00  0.00    +0.000 A 
ATOM     18  C   LIG    1        1.460   9.714   2.281  0.00  0.00    +0.100 A 
ATOM     19  O   LIG    1        1.883   8.625   1.583  0.00  0.00    -0.270 OA
ENDBRANCH   9  11
ENDBRANCH   4   7
BRANCH   1  20
ATOM     20  S   LIG    1        0.021  -0.004  -0.025  0.00  0.00    +2.700 S 
ATOM     21  O   LIG    1        1.269  -0.378  -0.592  0.00  0.00    -0.950 OA
ATOM     22  O   LIG    1       -1.230  -0.420  -0.556  0.00  0.00    -0.950 OA
BRANCH  20  23
ATOM     23  N   LIG    1        0.052  -0.509   1.551  0.00  0.00    -1.110 NA
ATOM     24  H   LIG    1        0.826  -0.983   1.893  0.00  0.00    +0.430 HD
BRANCH  23  25
ATOM     25  C   LIG    1       -1.090  -0.242   2.429  0.00  0.00    +0.370 C 
BRANCH  25  26
ATOM     26  C   LIG    1       -0.986  -1.099   3.664  0.00  0.00    +0.460 C 
ATOM     27  O   LIG    1       -0.053  -1.855   3.797  0.00  0.00    -0.500 OA
BRANCH  26  29
ATOM     28  C   LIG    1       -1.764  -1.876   5.778  0.00  0.00    +0.290 C 
ATOM     29  O   LIG    1       -1.929  -1.022   4.616  0.00  0.00    -0.350 OA
ENDBRANCH  26  29
ENDBRANCH  25  26
ENDBRANCH  23  25
ENDBRANCH  20  23
ENDBRANCH   1  20
TORSDOF 7
