REMARK  Name = ZINCrH000004ml1K.0
REMARK                            x       y       z     vdW  Elec       q    Type
REMARK                         _______ _______ _______ _____ _____    ______ ____
ROOT
ATOM      1  C   LIG    1       -7.777   0.744  -5.600  0.00  0.00    +0.100 A 
ATOM      2  C   LIG    1       -8.201   2.064  -5.601  0.00  0.00    -0.030 A 
ATOM      3  C   LIG    1       -7.296   3.073  -5.319  0.00  0.00    -0.070 A 
ATOM      4  C   LIG    1       -5.988   2.776  -5.040  0.00  0.00    -0.090 A 
ATOM      5  C   LIG    1       -5.005   3.887  -4.734  0.00  0.00    +0.300 C 
ATOM      6  C   LIG    1       -4.734   4.664  -6.024  0.00  0.00    +0.030 C 
ATOM      7  C   LIG    1       -5.778   5.742  -6.237  0.00  0.00    +0.010 C 
ATOM      8  C   LIG    1       -7.167   5.217  -6.541  0.00  0.00    +0.020 C 
ATOM      9  C   LIG    1       -5.553   1.462  -5.036  0.00  0.00    -0.030 A 
ATOM     10  C   LIG    1       -7.765   4.514  -5.320  0.00  0.00    +0.070 C 
ATOM     11  C   LIG    1       -6.449   0.442  -5.316  0.00  0.00    +0.100 A 
ENDROOT
BRANCH   5  12
ATOM     12  N   LIG    1       -3.753   3.312  -4.233  0.00  0.00    -0.710 N 
ATOM     13  H   LIG    1       -3.018   3.146  -4.843  0.00  0.00    +0.410 HD
ATOM     14  C   LIG    1       -3.624   3.015  -2.925  0.00  0.00    +0.610 C 
ATOM     15  O   LIG    1       -4.547   3.224  -2.160  0.00  0.00    -0.500 OA
BRANCH  14  16
ATOM     16  C   LIG    1       -2.365   2.437  -2.420  0.00  0.00    -0.090 A 
ATOM     17  C   LIG    1       -2.080   2.085  -1.146  0.00  0.00    -0.110 A 
ATOM     18  C   LIG    1       -2.901   2.154   0.109  0.00  0.00    +0.130 C 
ATOM     19  C   LIG    1       -2.236   1.256   1.162  0.00  0.00    +0.030 C 
ATOM     20  C   LIG    1       -0.744   1.587   1.260  0.00  0.00    +0.030 C 
ATOM     21  C   LIG    1       -0.013   1.086   0.008  0.00  0.00    +0.140 C 
ATOM     22  C   LIG    1       -0.754   1.591  -1.202  0.00  0.00    +0.020 A 
ATOM     23  N   LIG    1       -0.381   1.679  -2.434  0.00  0.00    -0.330 NA
ATOM     24  O   LIG    1       -1.255   2.146  -3.136  0.00  0.00    +0.100 OA
ENDBRANCH  14  16
ENDBRANCH   5  12
BRANCH   1  26
ATOM     25  C   LIG    1      -10.006   0.130  -6.158  0.00  0.00    +0.240 C 
ATOM     26  O   LIG    1       -8.659  -0.254  -5.876  0.00  0.00    -0.310 OA
ENDBRANCH   1  26
BRANCH  11  27
ATOM     27  O   LIG    1       -6.030  -0.852  -5.313  0.00  0.00    -0.310 OA
ATOM     28  C   LIG    1       -4.653  -1.088  -5.013  0.00  0.00    +0.230 C 
ENDBRANCH  11  27
TORSDOF 4
