REMARK  Name = ZINCpk00000eb0nW.0
REMARK                            x       y       z     vdW  Elec       q    Type
REMARK                         _______ _______ _______ _____ _____    ______ ____
ROOT
ATOM      1  C   LIG    1       -4.779   0.997  -0.422  0.00  0.00    +0.190 C 
ATOM      2  C   LIG    1       -4.306   0.830   1.024  0.00  0.00    +0.070 C 
ENDROOT
BRANCH   1   5
ATOM      3  N   LIG    1       -2.540   0.794  -1.455  0.00  0.00    -0.670 N 
ATOM      4  H   LIG    1       -2.498  -0.114  -1.114  0.00  0.00    +0.420 HD
ATOM      5  C   LIG    1       -3.648   1.536  -1.261  0.00  0.00    +0.520 C 
ATOM      6  O   LIG    1       -3.736   2.637  -1.761  0.00  0.00    -0.490 OA
BRANCH   3  11
ATOM      7  C   LIG    1        1.887   2.979  -4.253  0.00  0.00    +0.100 C 
ATOM      8  C   LIG    1        0.709   2.398  -3.513  0.00  0.00    -0.130 A 
ATOM      9  C   LIG    1       -0.085   3.216  -2.731  0.00  0.00    +0.070 A 
ATOM     10  C   LIG    1       -1.165   2.687  -2.051  0.00  0.00    +0.010 A 
ATOM     11  C   LIG    1       -1.450   1.332  -2.148  0.00  0.00    +0.170 A 
ATOM     12  C   LIG    1       -0.655   0.512  -2.938  0.00  0.00    -0.040 A 
ATOM     13  C   LIG    1        0.425   1.047  -3.617  0.00  0.00    +0.120 A 
ATOM     14  F   LIG    1        1.203   0.250  -4.381  0.00  0.00    -0.130 F 
ENDBRANCH   3  11
ENDBRANCH   1   5
BRANCH   1  15
ATOM     15  O   LIG    1       -5.895   1.925  -0.461  0.00  0.00    -0.320 OA
BRANCH  15  16
ATOM     16  C   LIG    1       -7.125   1.403  -0.334  0.00  0.00    +0.450 C 
ATOM     17  O   LIG    1       -7.265   0.211  -0.195  0.00  0.00    -0.490 OA
BRANCH  16  18
ATOM     18  C   LIG    1       -8.333   2.304  -0.366  0.00  0.00    +0.290 C 
ATOM     19  C   LIG    1       -8.638   2.823   1.056  0.00  0.00    +0.060 C 
ATOM     20  C   LIG    1      -10.189   2.808   1.105  0.00  0.00    +0.040 C 
ATOM     21  C   LIG    1      -10.515   1.550   0.262  0.00  0.00    +0.280 C 
ATOM     22  N   LIG    1       -9.509   1.549  -0.820  0.00  0.00    -1.000 NA
BRANCH  22  23
ATOM     23  S   LIG    1       -9.676   0.819  -2.297  0.00  0.00    +2.620 S 
ATOM     24  O   LIG    1      -10.518  -0.297  -2.044  0.00  0.00    -0.940 OA
ATOM     25  O   LIG    1       -8.342   0.641  -2.753  0.00  0.00    -0.940 OA
ATOM     26  C   LIG    1      -10.538   2.049  -3.315  0.00  0.00    -0.280 C 
ENDBRANCH  22  23
ENDBRANCH  16  18
ENDBRANCH  15  16
ENDBRANCH   1  15
TORSDOF 6
