REMARK  Name = ZINCrg000000s7N9.0
REMARK                            x       y       z     vdW  Elec       q    Type
REMARK                         _______ _______ _______ _____ _____    ______ ____
ROOT
ATOM      1  C   LIG    1       -1.162   3.013  -1.740  0.00  0.00    +0.300 C 
ENDROOT
BRANCH   1   2
ATOM      2  N   LIG    1       -0.746   1.652  -1.392  0.00  0.00    -1.120 NA
ATOM      3  H   LIG    1       -0.988   0.909  -1.966  0.00  0.00    +0.420 HD
BRANCH   2   4
ATOM      4  S   LIG    1        0.139   1.383  -0.018  0.00  0.00    +2.700 S 
ATOM      5  O   LIG    1        1.218   2.307  -0.049  0.00  0.00    -0.950 OA
ATOM      6  O   LIG    1        0.321  -0.023   0.073  0.00  0.00    -0.950 OA
BRANCH   4  12
ATOM      7  C   LIG    1       -0.891   4.422   4.108  0.00  0.00    +0.090 C 
ATOM      8  C   LIG    1       -1.294   3.265   3.230  0.00  0.00    -0.110 A 
ATOM      9  C   LIG    1       -2.454   2.565   3.499  0.00  0.00    +0.070 A 
ATOM     10  C   LIG    1       -2.823   1.503   2.694  0.00  0.00    -0.010 A 
ATOM     11  C   LIG    1       -2.032   1.142   1.620  0.00  0.00    +0.010 A 
ATOM     12  C   LIG    1       -0.871   1.843   1.351  0.00  0.00    -0.680 A 
ATOM     13  C   LIG    1       -2.434  -0.015   0.743  0.00  0.00    +0.110 C 
ATOM     14  C   LIG    1       -0.499   2.901   2.159  0.00  0.00    +0.120 A 
ENDBRANCH   4  12
ENDBRANCH   2   4
ENDBRANCH   1   2
BRANCH   1  15
ATOM     15  C   LIG    1       -1.585   3.056  -3.210  0.00  0.00    +0.060 C 
BRANCH  15  16
ATOM     16  C   LIG    1       -2.014   4.455  -3.569  0.00  0.00    +0.520 C 
ATOM     17  N   LIG    1       -2.431   4.733  -4.820  0.00  0.00    -0.610 N 
ATOM     18  C   LIG    1       -2.467   3.682  -5.847  0.00  0.00    +0.270 C 
ATOM     19  C   LIG    1       -3.891   3.617  -6.425  0.00  0.00    +0.270 C 
ATOM     20  N   LIG    1       -4.311   4.977  -6.788  0.00  0.00    -0.610 N 
ATOM     21  C   LIG    1       -4.270   6.029  -5.763  0.00  0.00    +0.280 C 
ATOM     22  C   LIG    1       -4.728   5.254  -8.040  0.00  0.00    +0.550 C 
ATOM     23  O   LIG    1       -5.073   6.381  -8.328  0.00  0.00    -0.530 OA
ATOM     24  C   LIG    1       -2.851   6.093  -5.184  0.00  0.00    +0.280 C 
ATOM     25  O   LIG    1       -1.983   5.332  -2.731  0.00  0.00    -0.530 OA
BRANCH  22  26
ATOM     26  C   LIG    1       -4.765   4.165  -9.080  0.00  0.00    -0.070 C 
ATOM     27  C   LIG    1       -3.765   4.257 -10.235  0.00  0.00    +0.060 C 
ATOM     28  C   LIG    1       -5.248   4.543 -10.482  0.00  0.00    +0.070 C 
ENDBRANCH  22  26
ENDBRANCH  15  16
ENDBRANCH   1  15
TORSDOF 6
