REMARK  Name = ZINCrD0000073mbJ.0
REMARK                            x       y       z     vdW  Elec       q    Type
REMARK                         _______ _______ _______ _____ _____    ______ ____
ROOT
ATOM      1  N   LIG    1       -1.564   6.312  -0.688  0.00  0.00    -0.380 N 
ATOM      2  C   LIG    1       -2.077   7.575  -0.832  0.00  0.00    +0.040 A 
ATOM      3  C   LIG    1       -2.820   7.627  -1.950  0.00  0.00    -0.100 A 
ATOM      4  C   LIG    1       -2.764   6.291  -2.557  0.00  0.00    -0.120 A 
ATOM      5  C   LIG    1       -3.564   8.825  -2.480  0.00  0.00    +0.130 C 
ATOM      6  C   LIG    1       -1.844   8.724   0.115  0.00  0.00    +0.150 C 
ATOM      7  C   LIG    1       -1.970   5.522  -1.717  0.00  0.00    +0.320 A 
ENDROOT
BRANCH   1  11
ATOM      8  C   LIG    1        0.886   5.073   2.453  0.00  0.00    +0.140 A 
ATOM      9  C   LIG    1        1.401   5.168   1.168  0.00  0.00    -0.010 A 
ATOM     10  C   LIG    1        0.590   5.578   0.129  0.00  0.00    +0.060 A 
ATOM     11  C   LIG    1       -0.740   5.895   0.369  0.00  0.00    +0.070 A 
ATOM     12  C   LIG    1       -1.253   5.804   1.655  0.00  0.00    +0.090 A 
ATOM     13  C   LIG    1       -0.443   5.389   2.694  0.00  0.00    -0.060 A 
BRANCH   8  15
ATOM     14  C   LIG    1        1.089   4.593   4.773  0.00  0.00    +0.240 C 
ATOM     15  O   LIG    1        1.685   4.669   3.477  0.00  0.00    -0.310 OA
ENDBRANCH   8  15
ENDBRANCH   1  11
BRANCH   7  16
ATOM     16  N   LIG    1       -1.645   4.186  -1.899  0.00  0.00    -0.660 N 
ATOM     17  H   LIG    1       -1.169   3.907  -2.697  0.00  0.00    +0.420 HD
ATOM     18  C   LIG    1       -1.991   3.275  -0.968  0.00  0.00    +0.520 C 
ATOM     19  O   LIG    1       -2.498   3.635   0.073  0.00  0.00    -0.480 OA
BRANCH  18  20
ATOM     20  C   LIG    1       -1.746   1.809  -1.220  0.00  0.00    +0.220 C 
BRANCH  20  21
ATOM     21  N   LIG    1       -2.207   1.030  -0.063  0.00  0.00    -0.520 NA
ATOM     22  C   LIG    1       -1.397   1.325   1.126  0.00  0.00    +0.170 C 
ATOM     23  C   LIG    1       -1.993   0.610   2.341  0.00  0.00    +0.020 C 
ATOM     24  C   LIG    1       -2.017  -0.898   2.078  0.00  0.00    +0.000 C 
ATOM     25  C   LIG    1       -2.826  -1.174   0.808  0.00  0.00    +0.020 C 
ATOM     26  C   LIG    1       -2.206  -0.408  -0.363  0.00  0.00    +0.180 C 
ENDBRANCH  20  21
ENDBRANCH  18  20
ENDBRANCH   7  16
BRANCH   4  27
ATOM     27  C   LIG    1       -3.401   5.868  -3.768  0.00  0.00    +0.290 C 
ATOM     28  N   LIG    1       -3.905   5.532  -4.728  0.00  0.00    -0.430 NA
ENDBRANCH   4  27
TORSDOF 6
