REMARK  Name = ZINCqH0000008nyi.0
REMARK                            x       y       z     vdW  Elec       q    Type
REMARK                         _______ _______ _______ _____ _____    ______ ____
ROOT
ATOM      1  N   LIG    1        2.537   5.492   0.007  0.00  0.00    -0.740 N 
ATOM      2  H   LIG    1        1.691   5.966   0.018  0.00  0.00    +0.390 HD
ATOM      3  C   LIG    1        2.556   4.145  -0.000  0.00  0.00    +0.710 C 
ATOM      4  N   LIG    1        1.398   3.455   0.007  0.00  0.00    -0.740 N 
ATOM      5  H   LIG    1        0.551   3.929   0.018  0.00  0.00    +0.400 HD
ATOM      6  O   LIG    1        3.617   3.551  -0.013  0.00  0.00    -0.580 OA
ENDROOT
BRANCH   1   8
ATOM      7  C   LIG    1        4.312   6.388   1.432  0.00  0.00    +0.040 C 
ATOM      8  C   LIG    1        3.796   6.242  -0.001  0.00  0.00    +0.310 C 
BRANCH   8   9
ATOM      9  C   LIG    1        3.563   7.609  -0.592  0.00  0.00    -0.080 A 
ATOM     10  C   LIG    1        2.302   8.173  -0.551  0.00  0.00    +0.050 A 
ATOM     11  C   LIG    1        2.089   9.429  -1.088  0.00  0.00    +0.040 A 
ATOM     12  C   LIG    1        3.135  10.117  -1.676  0.00  0.00    -0.030 A 
ATOM     13  C   LIG    1        4.396   9.550  -1.722  0.00  0.00    +0.050 A 
ATOM     14 CL   LIG    1        2.865  11.691  -2.356  0.00  0.00    -0.050 Cl
ATOM     15  C   LIG    1        4.610   8.296  -1.180  0.00  0.00    -0.020 A 
ATOM     16 CL   LIG    1        6.193   7.584  -1.236  0.00  0.00    -0.040 Cl
ENDBRANCH   8   9
ENDBRANCH   1   8
BRANCH   4  17
ATOM     17  C   LIG    1        1.418   1.990  -0.001  0.00  0.00    +0.280 C 
BRANCH  17  18
ATOM     18  C   LIG    1       -0.018   1.461   0.010  0.00  0.00    +0.290 C 
BRANCH  18  19
ATOM     19  N   LIG    1        0.002  -0.004   0.002  0.00  0.00    -0.990 NA
ATOM     20  C   LIG    1        0.111  -0.728  -1.267  0.00  0.00    +0.320 C 
BRANCH  19  21
ATOM     21  S   LIG    1       -0.098  -0.841   1.427  0.00  0.00    +2.710 S 
ATOM     22  O   LIG    1        0.357   0.041   2.444  0.00  0.00    -0.940 OA
ATOM     23  O   LIG    1        0.484  -2.115   1.186  0.00  0.00    -0.940 OA
BRANCH  21  24
ATOM     24  C   LIG    1       -1.807  -1.127   1.745  0.00  0.00    -0.800 A 
ATOM     25  C   LIG    1       -2.498  -2.192   1.336  0.00  0.00    +0.170 A 
ATOM     26  C   LIG    1       -3.832  -2.200   1.706  0.00  0.00    -0.010 A 
ATOM     27  C   LIG    1       -4.224  -1.141   2.417  0.00  0.00    +0.010 A 
ATOM     28  S   LIG    1       -2.862  -0.055   2.658  0.00  0.00    +0.210 S 
ENDBRANCH  21  24
ENDBRANCH  19  21
ENDBRANCH  18  19
ENDBRANCH  17  18
ENDBRANCH   4  17
TORSDOF 7
