REMARK  Name = ZINCrg00000OBuI7.0
REMARK                            x       y       z     vdW  Elec       q    Type
REMARK                         _______ _______ _______ _____ _____    ______ ____
ROOT
ATOM      1  C   LIG    1        5.750   1.321  -0.180  0.00  0.00    +0.520 C 
ATOM      2  N   LIG    1        5.826   0.189   0.547  0.00  0.00    -0.730 N 
ATOM      3  H   LIG    1        5.197   0.033   1.269  0.00  0.00    +0.400 HD
ATOM      4  O   LIG    1        6.536   1.516  -1.083  0.00  0.00    -0.530 OA
ENDROOT
BRANCH   1  10
ATOM      5  C   LIG    1        0.261   4.580   0.154  0.00  0.00    +0.560 A 
ATOM      6  N   LIG    1        1.502   4.988  -0.059  0.00  0.00    -0.570 NA
ATOM      7  C   LIG    1        2.505   4.120  -0.126  0.00  0.00    +0.230 A 
ATOM      8  C   LIG    1        2.237   2.777   0.024  0.00  0.00    -0.240 A 
ATOM      9  C   LIG    1        3.305   1.721  -0.053  0.00  0.00    +0.110 C 
ATOM     10  C   LIG    1        4.688   2.345   0.129  0.00  0.00    -0.010 C 
ATOM     11  C   LIG    1        4.818   3.529  -0.836  0.00  0.00    +0.070 C 
ATOM     12  C   LIG    1        0.923   2.382   0.249  0.00  0.00    +0.370 A 
ATOM     13  C   LIG    1        3.895   4.649  -0.358  0.00  0.00    +0.120 C 
ATOM     14  N   LIG    1       -0.029   3.296   0.303  0.00  0.00    -0.570 NA
BRANCH   5  15
ATOM     15  N   LIG    1       -0.757   5.516   0.217  0.00  0.00    -0.820 N 
ATOM     16  H   LIG    1       -1.671   5.229   0.373  0.00  0.00    +0.410 HD
ATOM     17  H   LIG    1       -0.557   6.458   0.106  0.00  0.00    +0.410 HD
ENDBRANCH   5  15
ENDBRANCH   1  10
BRANCH   2  18
ATOM     18  C   LIG    1        6.858  -0.806   0.247  0.00  0.00    +0.330 C 
BRANCH  18  19
ATOM     19  C   LIG    1        6.727  -1.969   1.198  0.00  0.00    -0.120 A 
ATOM     20  C   LIG    1        7.519  -2.031   2.327  0.00  0.00    +0.050 A 
ATOM     21  C   LIG    1        7.395  -3.095   3.202  0.00  0.00    -0.010 A 
ATOM     22  C   LIG    1        6.486  -4.104   2.945  0.00  0.00    +0.030 A 
ATOM     23  C   LIG    1        5.694  -4.050   1.815  0.00  0.00    -0.040 A 
ATOM     24  C   LIG    1        5.812  -2.981   0.936  0.00  0.00    +0.110 A 
BRANCH  24  25
ATOM     25  N   LIG    1        5.012  -2.923  -0.208  0.00  0.00    -0.470 N 
ATOM     26  C   LIG    1        4.176  -4.144  -0.335  0.00  0.00    +0.180 C 
ATOM     27  C   LIG    1        3.036  -3.696  -1.283  0.00  0.00    +0.010 C 
ATOM     28  C   LIG    1        2.770  -2.239  -0.839  0.00  0.00    +0.160 C 
ATOM     29  C   LIG    1        4.064  -1.791  -0.135  0.00  0.00    +0.210 C 
BRANCH  28  30
ATOM     30  O   LIG    1        2.513  -1.413  -1.977  0.00  0.00    -0.560 OA
ATOM     31  H   LIG    1        1.709  -1.649  -2.461  0.00  0.00    +0.380 HD
ENDBRANCH  28  30
ENDBRANCH  24  25
ENDBRANCH  18  19
ENDBRANCH   2  18
TORSDOF 6
