REMARK  Name = ZINCkj00000w3GPZ.1
REMARK                            x       y       z     vdW  Elec       q    Type
REMARK                         _______ _______ _______ _____ _____    ______ ____
ROOT
ATOM      1  C   LIG    1       -0.267   3.581  -2.238  0.00  0.00    +0.510 C 
ATOM      2  N   LIG    1       -0.656   2.924  -1.127  0.00  0.00    -0.580 N 
ATOM      3  C   LIG    1       -0.461   1.473  -1.008  0.00  0.00    +0.270 C 
ATOM      4  C   LIG    1        0.299   1.182   0.289  0.00  0.00    +0.020 C 
ATOM      5  C   LIG    1       -0.447   1.814   1.467  0.00  0.00    +0.030 C 
ATOM      6  C   LIG    1       -0.515   3.331   1.275  0.00  0.00    +0.030 C 
ATOM      7  C   LIG    1       -1.284   3.646  -0.012  0.00  0.00    +0.230 C 
ATOM      8  O   LIG    1       -0.510   4.762  -2.360  0.00  0.00    -0.530 OA
ENDROOT
BRANCH   1  14
ATOM      9  C   LIG    1        2.132   4.301  -4.313  0.00  0.00    +0.330 C 
ATOM     10  N   LIG    1        0.769   3.769  -4.444  0.00  0.00    -0.380 N 
ATOM     11  C   LIG    1        0.653   2.957  -5.682  0.00  0.00    +0.280 C 
ATOM     12  C   LIG    1       -0.570   2.048  -5.397  0.00  0.00    +0.080 C 
ATOM     13  C   LIG    1       -0.414   1.721  -3.894  0.00  0.00    +0.090 C 
ATOM     14  C   LIG    1        0.471   2.846  -3.327  0.00  0.00    +0.170 C 
ATOM     15  H   LIG    1        0.099   4.524  -4.460  0.00  0.00    +0.430 HD
ENDBRANCH   1  14
BRANCH   7  16
ATOM     16  C   LIG    1       -1.236   5.151  -0.283  0.00  0.00    +0.350 C 
BRANCH  16  17
ATOM     17  N   LIG    1       -1.824   5.870   0.849  0.00  0.00    -0.380 N 
ATOM     18  C   LIG    1       -1.224   6.839   1.572  0.00  0.00    +0.220 A 
ATOM     19  C   LIG    1       -2.098   7.245   2.522  0.00  0.00    -0.120 A 
ATOM     20  C   LIG    1       -3.272   6.499   2.375  0.00  0.00    +0.240 A 
ATOM     21  N   LIG    1       -3.111   5.679   1.369  0.00  0.00    -0.300 NA
ENDBRANCH  16  17
ENDBRANCH   7  16
TORSDOF 3
