REMARK  Name = ZINCkj00000w3GPZ.0
REMARK                            x       y       z     vdW  Elec       q    Type
REMARK                         _______ _______ _______ _____ _____    ______ ____
ROOT
ATOM      1  C   LIG    1       -0.083   3.802  -0.443  0.00  0.00    +0.500 C 
ATOM      2  N   LIG    1       -0.210   3.397  -1.722  0.00  0.00    -0.580 N 
ATOM      3  C   LIG    1       -0.429   4.373  -2.798  0.00  0.00    +0.270 C 
ATOM      4  C   LIG    1        0.634   4.161  -3.881  0.00  0.00    +0.020 C 
ATOM      5  C   LIG    1        0.603   2.701  -4.340  0.00  0.00    +0.020 C 
ATOM      6  C   LIG    1        0.927   1.785  -3.158  0.00  0.00    +0.030 C 
ATOM      7  C   LIG    1       -0.132   1.971  -2.067  0.00  0.00    +0.230 C 
ATOM      8  O   LIG    1        0.198   2.999   0.422  0.00  0.00    -0.510 OA
ENDROOT
BRANCH   1  14
ATOM      9  C   LIG    1        1.960   4.747   0.603  0.00  0.00    +0.330 C 
ATOM     10  N   LIG    1        0.926   5.790   0.550  0.00  0.00    -0.380 N 
ATOM     11  C   LIG    1        0.586   6.223   1.923  0.00  0.00    +0.270 C 
ATOM     12  C   LIG    1       -0.936   6.505   1.882  0.00  0.00    +0.080 C 
ATOM     13  C   LIG    1       -1.438   5.383   0.935  0.00  0.00    +0.100 C 
ATOM     14  C   LIG    1       -0.289   5.252  -0.087  0.00  0.00    +0.150 C 
ATOM     15  H   LIG    1        1.266   6.579   0.022  0.00  0.00    +0.430 HD
ENDBRANCH   1  14
BRANCH   7  16
ATOM     16  C   LIG    1        0.260   1.164  -0.828  0.00  0.00    +0.360 C 
BRANCH  16  17
ATOM     17  N   LIG    1        0.304  -0.261  -1.167  0.00  0.00    -0.380 N 
ATOM     18  C   LIG    1        1.344  -1.095  -0.960  0.00  0.00    +0.220 A 
ATOM     19  C   LIG    1        0.985  -2.321  -1.406  0.00  0.00    -0.120 A 
ATOM     20  C   LIG    1       -0.316  -2.231  -1.911  0.00  0.00    +0.240 A 
ATOM     21  N   LIG    1       -0.726  -0.996  -1.768  0.00  0.00    -0.300 NA
ENDBRANCH  16  17
ENDBRANCH   7  16
TORSDOF 3
