REMARK  Name = ZINCpe000000Up6T.0
REMARK                            x       y       z     vdW  Elec       q    Type
REMARK                         _______ _______ _______ _____ _____    ______ ____
ROOT
ATOM      1  C   LIG    1       -0.664   1.726  -0.845  0.00  0.00    -0.020 C 
ENDROOT
BRANCH   1   4
ATOM      2  C   LIG    1       -2.104   5.123  -1.859  0.00  0.00    +0.290 C 
ATOM      3  N   LIG    1       -1.989   3.752  -1.354  0.00  0.00    -0.620 N 
ATOM      4  C   LIG    1       -0.776   3.176  -1.242  0.00  0.00    +0.520 C 
ATOM      5  O   LIG    1        0.226   3.824  -1.459  0.00  0.00    -0.530 OA
ATOM      6  C   LIG    1       -3.192   3.009  -0.972  0.00  0.00    +0.280 C 
ENDBRANCH   1   4
BRANCH   1   7
ATOM      7  C   LIG    1        0.366   1.582   0.277  0.00  0.00    +0.120 C 
BRANCH   7   8
ATOM      8  C   LIG    1       -0.129   2.296   1.509  0.00  0.00    -0.100 A 
ATOM      9  C   LIG    1        0.187   3.626   1.710  0.00  0.00    +0.060 A 
ATOM     10  C   LIG    1       -0.271   4.283   2.836  0.00  0.00    -0.020 A 
ATOM     11  C   LIG    1       -1.038   3.605   3.769  0.00  0.00    +0.100 A 
ATOM     12  C   LIG    1       -1.349   2.271   3.569  0.00  0.00    -0.010 A 
ATOM     13  F   LIG    1       -1.481   4.244   4.873  0.00  0.00    -0.140 F 
ATOM     14  C   LIG    1       -0.895   1.617   2.439  0.00  0.00    +0.050 A 
ENDBRANCH   7   8
ENDBRANCH   1   7
BRANCH   1  15
ATOM     15  C   LIG    1       -0.222   0.899  -2.053  0.00  0.00    +0.300 C 
BRANCH  15  16
ATOM     16  N   LIG    1       -1.241   0.982  -3.102  0.00  0.00    -0.730 N 
ATOM     17  H   LIG    1       -2.019   1.549  -2.979  0.00  0.00    +0.390 HD
ATOM     18  C   LIG    1       -1.100   0.270  -4.237  0.00  0.00    +0.580 C 
ATOM     19  O   LIG    1       -0.082  -0.365  -4.434  0.00  0.00    -0.530 OA
BRANCH  18  20
ATOM     20  C   LIG    1       -2.180   0.260  -5.242  0.00  0.00    -0.310 A 
ATOM     21  C   LIG    1       -3.315   1.067  -5.085  0.00  0.00    +0.390 A 
ATOM     22  N   LIG    1       -4.257   1.034  -6.009  0.00  0.00    -0.570 NA
ATOM     23  C   LIG    1       -4.145   0.243  -7.068  0.00  0.00    +0.580 A 
ATOM     24  N   LIG    1       -3.089  -0.540  -7.250  0.00  0.00    -0.570 NA
ATOM     25  C   LIG    1       -2.102  -0.561  -6.375  0.00  0.00    +0.440 A 
BRANCH  23  26
ATOM     26  N   LIG    1       -5.155   0.234  -8.007  0.00  0.00    -0.810 N 
ATOM     27  H   LIG    1       -5.933   0.801  -7.888  0.00  0.00    +0.420 HD
ATOM     28  H   LIG    1       -5.087  -0.339  -8.787  0.00  0.00    +0.420 HD
ENDBRANCH  23  26
ENDBRANCH  18  20
ENDBRANCH  15  16
ENDBRANCH   1  15
TORSDOF 7
