REMARK  Name = ZINCvU00000004uy.0
REMARK                            x       y       z     vdW  Elec       q    Type
REMARK                         _______ _______ _______ _____ _____    ______ ____
ROOT
ATOM      1  C   LIG    1        3.748   9.663   2.090  0.00  0.00    -0.180 A 
ATOM      2  C   LIG    1        4.852   9.093   1.470  0.00  0.00    +0.120 A 
ATOM      3  C   LIG    1        4.692   7.983   0.663  0.00  0.00    +0.020 A 
ATOM      4  C   LIG    1        3.436   7.440   0.470  0.00  0.00    -0.040 A 
ATOM      5  C   LIG    1        2.332   8.008   1.081  0.00  0.00    -0.010 A 
ATOM      6  C   LIG    1        2.484   9.115   1.895  0.00  0.00    +0.150 A 
ATOM      7  F   LIG    1        1.407   9.667   2.495  0.00  0.00    -0.120 F 
ENDROOT
BRANCH   4   8
ATOM      8  C   LIG    1        3.267   6.230  -0.412  0.00  0.00    +0.290 C 
ATOM      9  C   LIG    1        2.393   6.593  -1.615  0.00  0.00    +0.060 C 
BRANCH   8  10
ATOM     10  N   LIG    1        2.626   5.156   0.350  0.00  0.00    -0.590 N 
ATOM     11  C   LIG    1        3.306   4.025   0.624  0.00  0.00    +0.590 C 
ATOM     12  O   LIG    1        4.468   3.917   0.283  0.00  0.00    -0.520 OA
ATOM     13  C   LIG    1        1.245   5.311   0.815  0.00  0.00    +0.290 C 
BRANCH  11  14
ATOM     14  C   LIG    1        2.639   2.915   1.338  0.00  0.00    +0.020 A 
ATOM     15  N   LIG    1        1.430   3.083   1.826  0.00  0.00    -0.170 NA
ATOM     16  N   LIG    1        0.809   2.151   2.454  0.00  0.00    -0.340 N 
ATOM     17  C   LIG    1        1.359   0.938   2.648  0.00  0.00    +0.480 A 
ATOM     18  C   LIG    1        2.659   0.676   2.160  0.00  0.00    -0.010 A 
ATOM     19  O   LIG    1        0.741   0.072   3.244  0.00  0.00    -0.520 OA
ATOM     20  C   LIG    1       -0.537   2.414   2.969  0.00  0.00    +0.360 C 
ATOM     21  C   LIG    1        3.305   1.676   1.495  0.00  0.00    +0.140 A 
ENDBRANCH  11  14
ENDBRANCH   8  10
ENDBRANCH   4   8
BRANCH   1  22
ATOM     22  S   LIG    1        3.948  11.078   3.122  0.00  0.00    +0.010 S 
BRANCH  22  26
ATOM     23  C   LIG    1        2.537  14.474   0.478  0.00  0.00    -0.080 A 
ATOM     24  C   LIG    1        3.050  14.745   1.733  0.00  0.00    +0.030 A 
ATOM     25  C   LIG    1        3.481  13.712   2.542  0.00  0.00    +0.040 A 
ATOM     26  C   LIG    1        3.399  12.399   2.093  0.00  0.00    -0.100 A 
ATOM     27  C   LIG    1        2.887  12.131   0.829  0.00  0.00    +0.000 A 
ATOM     28  C   LIG    1        2.453  13.169   0.028  0.00  0.00    +0.020 A 
BRANCH  23  30
ATOM     29  C   LIG    1        2.876  15.607  -1.702  0.00  0.00    +0.040 C 
ATOM     30  C   LIG    1        2.068  15.604  -0.402  0.00  0.00    +0.020 C 
ATOM     31  C   LIG    1        0.584  15.418  -0.724  0.00  0.00    +0.030 C 
ENDBRANCH  23  30
ENDBRANCH  22  26
ENDBRANCH   1  22
TORSDOF 6
