REMARK  Name = ZINCpe00000MJKe5.0
REMARK                            x       y       z     vdW  Elec       q    Type
REMARK                         _______ _______ _______ _____ _____    ______ ____
ROOT
ATOM      1  C   LIG    1        2.261  -0.039   0.957  0.00  0.00    +0.220 C 
ATOM      2  C   LIG    1        0.816  -0.504   1.152  0.00  0.00    +0.010 C 
ATOM      3  C   LIG    1       -0.054   0.035   0.014  0.00  0.00    +0.020 C 
ATOM      4  C   LIG    1       -0.031   1.566   0.042  0.00  0.00    +0.290 C 
ATOM      5  N   LIG    1        1.366   2.019  -0.000  0.00  0.00    -0.570 N 
ATOM      6  C   LIG    1        2.310   1.492   0.994  0.00  0.00    +0.300 C 
ENDROOT
BRANCH   5   7
ATOM      7  C   LIG    1        1.786   2.929  -0.962  0.00  0.00    +0.350 A 
ATOM      8  N   LIG    1        0.979   3.290  -1.936  0.00  0.00    -0.500 NA
ATOM      9  C   LIG    1        1.375   4.166  -2.860  0.00  0.00    +0.190 A 
ATOM     10  C   LIG    1        2.611   4.707  -2.841  0.00  0.00    +0.160 A 
ATOM     11  N   LIG    1        3.505   4.378  -1.865  0.00  0.00    -0.480 N 
ATOM     12  C   LIG    1        4.844   4.972  -1.853  0.00  0.00    +0.320 C 
ATOM     13  C   LIG    1        3.138   3.496  -0.908  0.00  0.00    +0.480 A 
ATOM     14  O   LIG    1        3.913   3.180  -0.021  0.00  0.00    -0.530 OA
ENDBRANCH   5   7
BRANCH   1  16
ATOM     15  C   LIG    1        3.619  -1.820   1.917  0.00  0.00    +0.520 C 
ATOM     16  N   LIG    1        3.099  -0.582   2.029  0.00  0.00    -0.720 N 
ATOM     17  H   LIG    1        3.279  -0.050   2.820  0.00  0.00    +0.400 HD
ATOM     18  O   LIG    1        3.394  -2.485   0.928  0.00  0.00    -0.530 OA
BRANCH  15  19
ATOM     19  C   LIG    1        4.481  -2.378   3.020  0.00  0.00    +0.120 C 
BRANCH  19  24
ATOM     20  C   LIG    1        6.080  -7.718   1.681  0.00  0.00    +0.120 C 
ATOM     21  C   LIG    1        5.681  -6.306   2.021  0.00  0.00    +0.130 A 
ATOM     22  C   LIG    1        6.490  -5.255   1.632  0.00  0.00    -0.030 A 
ATOM     23  C   LIG    1        6.114  -3.959   1.950  0.00  0.00    +0.070 A 
ATOM     24  C   LIG    1        4.932  -3.767   2.650  0.00  0.00    -0.130 A 
ATOM     25  C   LIG    1        4.177  -4.868   3.010  0.00  0.00    +0.270 A 
ATOM     26  N   LIG    1        4.563  -6.086   2.686  0.00  0.00    -0.480 NA
ENDBRANCH  19  24
ENDBRANCH  15  19
ENDBRANCH   1  16
TORSDOF 4
