REMARK  Name = ZINCrD00000l3J7p.0
REMARK                            x       y       z     vdW  Elec       q    Type
REMARK                         _______ _______ _______ _____ _____    ______ ____
ROOT
ATOM      1  N   LIG    1        4.196   0.860   1.435  0.00  0.00    -0.730 N 
ATOM      2  H   LIG    1        4.619   0.666   0.585  0.00  0.00    +0.400 HD
ATOM      3  C   LIG    1        4.680   0.317   2.569  0.00  0.00    +0.510 C 
ATOM      4  O   LIG    1        4.150   0.560   3.633  0.00  0.00    -0.530 OA
ENDROOT
BRANCH   1   5
ATOM      5  C   LIG    1        3.028   1.744   1.486  0.00  0.00    +0.270 C 
BRANCH   5   6
ATOM      6  C   LIG    1        2.687   2.220   0.073  0.00  0.00    +0.080 C 
BRANCH   6  10
ATOM      7  C   LIG    1       -0.724   4.797   0.223  0.00  0.00    +0.110 A 
ATOM      8  C   LIG    1       -0.890   3.422   0.258  0.00  0.00    +0.010 A 
ATOM      9  C   LIG    1        0.216   2.591   0.215  0.00  0.00    -0.090 A 
ATOM     10  C   LIG    1        1.486   3.130   0.126  0.00  0.00    -0.050 A 
ATOM     11  C   LIG    1        1.657   4.501   0.086  0.00  0.00    -0.010 A 
ATOM     12 BR   LIG    1       -0.012   0.714   0.271  0.00  0.00    -0.040 Br
ATOM     13  C   LIG    1        0.555   5.339   0.134  0.00  0.00    +0.120 A 
BRANCH   7  15
ATOM     14  C   LIG    1       -3.091   4.989   0.363  0.00  0.00    +0.250 C 
ATOM     15  O   LIG    1       -1.809   5.615   0.271  0.00  0.00    -0.300 OA
ENDBRANCH   7  15
BRANCH  13  16
ATOM     16  O   LIG    1        0.722   6.688   0.093  0.00  0.00    -0.300 OA
ATOM     17  C   LIG    1        2.062   7.173   0.001  0.00  0.00    +0.240 C 
ENDBRANCH  13  16
ENDBRANCH   6  10
ENDBRANCH   5   6
ENDBRANCH   1   5
BRANCH   3  18
ATOM     18  C   LIG    1        5.881  -0.592   2.516  0.00  0.00    +0.100 C 
BRANCH  18  19
ATOM     19  C   LIG    1        6.217  -1.062   3.908  0.00  0.00    -0.080 A 
ATOM     20  C   LIG    1        7.098  -0.334   4.687  0.00  0.00    +0.040 A 
ATOM     21  C   LIG    1        7.405  -0.759   5.965  0.00  0.00    -0.010 A 
ATOM     22  C   LIG    1        6.836  -1.923   6.464  0.00  0.00    +0.140 A 
ATOM     23  C   LIG    1        5.956  -2.655   5.677  0.00  0.00    +0.010 A 
ATOM     24  C   LIG    1        5.649  -2.222   4.402  0.00  0.00    +0.040 A 
BRANCH  22  25
ATOM     25  N   LIG    1        7.149  -2.360   7.756  0.00  0.00    -0.680 N 
ATOM     26  H   LIG    1        7.328  -1.712   8.456  0.00  0.00    +0.410 HD
ATOM     27  C   LIG    1        7.203  -3.679   8.027  0.00  0.00    +0.510 C 
ATOM     28  O   LIG    1        7.074  -4.487   7.133  0.00  0.00    -0.530 OA
ATOM     29  C   LIG    1        7.423  -4.148   9.442  0.00  0.00    +0.110 C 
ENDBRANCH  22  25
ENDBRANCH  18  19
ENDBRANCH   3  18
TORSDOF 8
