REMARK  Name = ZINCrD000000CMos.0
REMARK                            x       y       z     vdW  Elec       q    Type
REMARK                         _______ _______ _______ _____ _____    ______ ____
ROOT
ATOM      1  C   LIG    1       -0.014   1.209   0.009  0.00  0.00    +0.510 C 
ATOM      2  N   LIG    1       -1.191   1.867   0.018  0.00  0.00    -0.730 N 
ATOM      3  H   LIG    1       -1.204   2.837   0.023  0.00  0.00    +0.400 HD
ATOM      4  O   LIG    1        0.002  -0.004   0.002  0.00  0.00    -0.510 OA
ENDROOT
BRANCH   1   9
ATOM      5  O   LIG    1        4.851   2.820   1.943  0.00  0.00    -0.450 OA
ATOM      6  C   LIG    1        3.811   2.591   1.359  0.00  0.00    +0.420 C 
ATOM      7  C   LIG    1        3.785   1.766   0.090  0.00  0.00    +0.050 C 
ATOM      8  C   LIG    1        2.462   1.004  -0.003  0.00  0.00    +0.090 C 
ATOM      9  C   LIG    1        1.280   1.980   0.001  0.00  0.00    +0.230 C 
ATOM     10  N   LIG    1        1.369   2.810   1.207  0.00  0.00    -0.420 N 
ATOM     11  C   LIG    1        0.385   3.416   1.887  0.00  0.00    +0.200 A 
ATOM     12  C   LIG    1        0.919   4.073   2.950  0.00  0.00    -0.060 A 
ATOM     13  C   LIG    1        2.304   3.869   2.932  0.00  0.00    +0.070 A 
ATOM     14  C   LIG    1        2.574   3.084   1.838  0.00  0.00    -0.090 A 
ENDBRANCH   1   9
BRANCH   2  15
ATOM     15  C   LIG    1       -2.449   1.117   0.020  0.00  0.00    +0.280 C 
BRANCH  15  16
ATOM     16  C   LIG    1       -3.626   2.095   0.031  0.00  0.00    +0.090 C 
BRANCH  16  17
ATOM     17  C   LIG    1       -4.920   1.324   0.033  0.00  0.00    -0.040 A 
ATOM     18  C   LIG    1       -5.508   0.964   1.231  0.00  0.00    -0.010 A 
ATOM     19  C   LIG    1       -6.697   0.257   1.236  0.00  0.00    +0.060 A 
ATOM     20  C   LIG    1       -7.299  -0.092   0.043  0.00  0.00    -0.080 A 
ATOM     21  C   LIG    1       -6.711   0.268  -1.161  0.00  0.00    +0.130 A 
ATOM     22  C   LIG    1       -5.522   0.982  -1.163  0.00  0.00    -0.010 A 
BRANCH  21  23
ATOM     23  O   LIG    1       -7.302  -0.074  -2.336  0.00  0.00    -0.300 OA
BRANCH  23  24
ATOM     24  C   LIG    1       -8.528  -0.804  -2.257  0.00  0.00    +0.230 C 
BRANCH  24  25
ATOM     25  C   LIG    1       -9.039  -1.096  -3.669  0.00  0.00    +0.470 C 
ATOM     26  F   LIG    1       -9.257   0.109  -4.345  0.00  0.00    -0.170 F 
ATOM     27  F   LIG    1      -10.239  -1.810  -3.592  0.00  0.00    -0.170 F 
ATOM     28  F   LIG    1       -8.089  -1.854  -4.362  0.00  0.00    -0.170 F 
ENDBRANCH  24  25
ENDBRANCH  23  24
ENDBRANCH  21  23
ENDBRANCH  16  17
ENDBRANCH  15  16
ENDBRANCH   2  15
TORSDOF 7
