REMARK  Name = ZINCnE000001OStV.1
REMARK                            x       y       z     vdW  Elec       q    Type
REMARK                         _______ _______ _______ _____ _____    ______ ____
ROOT
ATOM      1  N   LIG    1       -0.592   5.215   0.036  0.00  0.00    -0.660 NA
ATOM      2  C   LIG    1       -1.895   5.559   0.050  0.00  0.00    +0.460 C 
ATOM      3  O   LIG    1       -2.749   4.698   0.054  0.00  0.00    -0.600 OA
ENDROOT
BRANCH   1  10
ATOM      4  C   LIG    1        1.217  -2.187  -0.022  0.00  0.00    +0.080 C 
ATOM      5  C   LIG    1        1.202  -0.680  -0.013  0.00  0.00    -0.130 A 
ATOM      6  C   LIG    1        2.396   0.025  -0.021  0.00  0.00    +0.010 A 
ATOM      7  C   LIG    1        2.396   1.397  -0.013  0.00  0.00    -0.080 A 
ATOM      8  C   LIG    1        1.180   2.112   0.002  0.00  0.00    +0.140 A 
ATOM      9  N   LIG    1        0.985   3.446   0.011  0.00  0.00    -0.560 NA
ATOM     10  C   LIG    1       -0.228   3.878   0.025  0.00  0.00    +0.410 A 
ATOM     11  S   LIG    1       -1.358   2.531   0.021  0.00  0.00    -0.030 S 
ATOM     12  C   LIG    1       -0.017   1.388   0.010  0.00  0.00    -0.230 A 
ATOM     13  C   LIG    1        3.704   2.146  -0.021  0.00  0.00    +0.080 C 
ATOM     14  C   LIG    1        0.002  -0.004   0.002  0.00  0.00    +0.050 A 
ENDBRANCH   1  10
BRANCH   2  15
ATOM     15  C   LIG    1       -2.290   7.013   0.062  0.00  0.00    +0.080 C 
BRANCH  15  16
ATOM     16  C   LIG    1       -3.815   7.127   0.077  0.00  0.00    +0.180 C 
BRANCH  16  17
ATOM     17  O   LIG    1       -4.190   8.506   0.088  0.00  0.00    -0.380 OA
BRANCH  17  18
ATOM     18  C   LIG    1       -5.602   8.724   0.102  0.00  0.00    +0.150 C 
ATOM     19  C   LIG    1       -6.121   8.822  -1.336  0.00  0.00    -0.020 C 
ATOM     20  C   LIG    1       -7.619   9.134  -1.310  0.00  0.00    +0.210 C 
ATOM     21  O   LIG    1       -7.839  10.347  -0.588  0.00  0.00    -0.380 OA
ATOM     22  C   LIG    1       -7.417  10.300   0.776  0.00  0.00    +0.210 C 
ATOM     23  C   LIG    1       -5.910  10.034   0.834  0.00  0.00    +0.010 C 
ENDBRANCH  17  18
ENDBRANCH  16  17
ENDBRANCH  15  16
ENDBRANCH   2  15
TORSDOF 5
