REMARK  Name = ZINCqH0000038K89.0
REMARK                            x       y       z     vdW  Elec       q    Type
REMARK                         _______ _______ _______ _____ _____    ______ ____
ROOT
ATOM      1  C   LIG    1       -6.528   3.156   3.506  0.00  0.00    +0.120 A 
ATOM      2  N   LIG    1       -6.091   2.299   2.608  0.00  0.00    -0.260 NA
ATOM      3  N   LIG    1       -4.930   2.640   2.179  0.00  0.00    -0.380 N 
ATOM      4  H   LIG    1       -4.417   2.155   1.514  0.00  0.00    +0.440 HD
ATOM      5  C   LIG    1       -4.525   3.789   2.798  0.00  0.00    -0.040 A 
ATOM      6  C   LIG    1       -5.539   4.142   3.668  0.00  0.00    +0.040 A 
ENDROOT
BRANCH   1  14
ATOM      7  C   LIG    1       -6.949   3.539   6.625  0.00  0.00    +0.160 C 
ATOM      8  C   LIG    1       -8.024   3.259   5.607  0.00  0.00    +0.100 A 
ATOM      9  N   LIG    1       -9.302   3.134   5.854  0.00  0.00    -0.290 NA
ATOM     10  N   LIG    1       -9.964   2.872   4.649  0.00  0.00    -0.370 N 
ATOM     11  C   LIG    1       -9.047   2.849   3.660  0.00  0.00    +0.120 A 
ATOM     12  C   LIG    1       -9.319   2.601   2.199  0.00  0.00    +0.150 C 
ATOM     13  C   LIG    1      -11.405   2.661   4.489  0.00  0.00    +0.360 C 
ATOM     14  C   LIG    1       -7.828   3.090   4.223  0.00  0.00    -0.170 A 
ENDBRANCH   1  14
BRANCH   5  15
ATOM     15  C   LIG    1       -3.257   4.505   2.586  0.00  0.00    +0.620 C 
ATOM     16  N   LIG    1       -2.356   4.032   1.701  0.00  0.00    -0.640 N 
ATOM     17  C   LIG    1       -2.307   2.861   0.800  0.00  0.00    +0.270 C 
ATOM     18  C   LIG    1       -0.775   2.999   0.881  0.00  0.00    -0.080 C 
ATOM     19  C   LIG    1       -0.142   2.183   2.010  0.00  0.00    +0.070 C 
ATOM     20  C   LIG    1       -0.068   2.808  -0.463  0.00  0.00    +0.060 C 
ATOM     21  C   LIG    1       -1.024   4.474   1.246  0.00  0.00    +0.330 C 
ATOM     22  O   LIG    1       -3.021   5.523   3.208  0.00  0.00    -0.510 OA
BRANCH  21  23
ATOM     23  C   LIG    1       -1.061   5.396   0.055  0.00  0.00    -0.180 A 
ATOM     24  C   LIG    1       -0.054   6.171  -0.350  0.00  0.00    +0.020 A 
ATOM     25  C   LIG    1       -0.320   6.935  -1.473  0.00  0.00    +0.010 A 
ATOM     26  C   LIG    1       -1.544   6.782  -1.980  0.00  0.00    -0.040 A 
ATOM     27  S   LIG    1       -2.438   5.611  -1.019  0.00  0.00    +0.110 S 
ENDBRANCH  21  23
ENDBRANCH   5  15
TORSDOF 3
