REMARK  Name = ZINCqH0000038K89.1
REMARK                            x       y       z     vdW  Elec       q    Type
REMARK                         _______ _______ _______ _____ _____    ______ ____
ROOT
ATOM      1  C   LIG    1        1.303   1.711   2.780  0.00  0.00    +0.110 A 
ATOM      2  C   LIG    1        2.068   2.614   3.463  0.00  0.00    +0.000 A 
ATOM      3  C   LIG    1        3.360   2.044   3.521  0.00  0.00    -0.010 A 
ATOM      4  N   LIG    1        3.304   0.883   2.899  0.00  0.00    -0.250 NA
ATOM      5  N   LIG    1        2.115   0.664   2.464  0.00  0.00    -0.380 N 
ATOM      6  H   LIG    1        1.838  -0.129   1.979  0.00  0.00    +0.440 HD
ENDROOT
BRANCH   1  14
ATOM      7  C   LIG    1       -0.970   2.673   4.770  0.00  0.00    +0.160 C 
ATOM      8  C   LIG    1       -1.155   2.268   3.330  0.00  0.00    +0.110 A 
ATOM      9  N   LIG    1       -2.286   2.252   2.676  0.00  0.00    -0.290 NA
ATOM     10  N   LIG    1       -2.037   1.824   1.367  0.00  0.00    -0.370 N 
ATOM     11  C   LIG    1       -0.718   1.572   1.248  0.00  0.00    +0.110 A 
ATOM     12  C   LIG    1       -0.013   1.086   0.008  0.00  0.00    +0.160 C 
ATOM     13  C   LIG    1       -3.039   1.673   0.308  0.00  0.00    +0.360 C 
ATOM     14  C   LIG    1       -0.136   1.842   2.454  0.00  0.00    -0.190 A 
ENDBRANCH   1  14
BRANCH   3  15
ATOM     15  C   LIG    1        4.551   2.639   4.160  0.00  0.00    +0.640 C 
ATOM     16  N   LIG    1        5.727   1.980   4.139  0.00  0.00    -0.630 N 
ATOM     17  C   LIG    1        6.213   0.699   3.604  0.00  0.00    +0.290 C 
ATOM     18  C   LIG    1        7.277   0.704   4.710  0.00  0.00    -0.090 C 
ATOM     19  C   LIG    1        8.657   0.222   4.256  0.00  0.00    +0.060 C 
ATOM     20  C   LIG    1        6.817   0.073   6.026  0.00  0.00    +0.080 C 
ATOM     21  C   LIG    1        7.088   2.228   4.636  0.00  0.00    +0.320 C 
ATOM     22  O   LIG    1        4.471   3.723   4.704  0.00  0.00    -0.520 OA
BRANCH  21  23
ATOM     23  C   LIG    1        7.984   2.895   3.624  0.00  0.00    -0.180 A 
ATOM     24  C   LIG    1        9.099   3.568   3.911  0.00  0.00    +0.020 A 
ATOM     25  C   LIG    1        9.760   4.095   2.815  0.00  0.00    +0.010 A 
ATOM     26  C   LIG    1        9.182   3.849   1.638  0.00  0.00    -0.060 A 
ATOM     27  S   LIG    1        7.724   2.897   1.885  0.00  0.00    +0.110 S 
ENDBRANCH  21  23
ENDBRANCH   3  15
TORSDOF 3
