REMARK  Name = ZINCpk00000xI9IG.0
REMARK                            x       y       z     vdW  Elec       q    Type
REMARK                         _______ _______ _______ _____ _____    ______ ____
ROOT
ATOM      1  C   LIG    1        0.166  -4.809  -1.480  0.00  0.00    +0.060 C 
ATOM      2  C   LIG    1        0.092  -4.282  -0.043  0.00  0.00    +0.330 C 
ATOM      3  N   LIG    1        1.261  -4.750   0.703  0.00  0.00    -0.720 N 
ATOM      4  H   LIG    1        1.603  -4.214   1.436  0.00  0.00    +0.420 HD
ATOM      5  C   LIG    1        1.870  -5.904   0.394  0.00  0.00    +0.740 C 
ATOM      6  N   LIG    1        1.460  -6.691  -0.613  0.00  0.00    -0.730 N 
ATOM      7  H   LIG    1        1.941  -7.512  -0.800  0.00  0.00    +0.420 HD
ATOM      8  O   LIG    1        2.832  -6.252   1.052  0.00  0.00    -0.570 OA
ATOM      9  C   LIG    1        0.302  -6.335  -1.434  0.00  0.00    +0.330 C 
ENDROOT
BRANCH   2  10
ATOM     10  C   LIG    1        0.074  -2.775  -0.059  0.00  0.00    -0.160 A 
ATOM     11  C   LIG    1       -1.131  -2.099  -0.015  0.00  0.00    +0.090 A 
ATOM     12  C   LIG    1       -1.149  -0.717  -0.030  0.00  0.00    -0.010 A 
ATOM     13  C   LIG    1        0.042  -0.009  -0.089  0.00  0.00    +0.140 A 
ATOM     14  C   LIG    1        1.250  -0.691  -0.138  0.00  0.00    -0.070 A 
ATOM     15  C   LIG    1        1.263  -2.072  -0.118  0.00  0.00    +0.070 A 
BRANCH  13  16
ATOM     16  O   LIG    1        0.026   1.350  -0.103  0.00  0.00    -0.310 OA
ATOM     17  C   LIG    1        1.291   2.013  -0.164  0.00  0.00    +0.250 C 
ENDBRANCH  13  16
ENDBRANCH   2  10
BRANCH   9  18
ATOM     18  C   LIG    1        0.495  -6.875  -2.852  0.00  0.00    +0.420 C 
ATOM     19  F   LIG    1        1.716  -6.421  -3.362  0.00  0.00    -0.160 F 
ATOM     20  F   LIG    1       -0.548  -6.424  -3.669  0.00  0.00    -0.160 F 
ATOM     21  F   LIG    1        0.492  -8.274  -2.822  0.00  0.00    -0.170 F 
ENDBRANCH   9  18
BRANCH   1  22
ATOM     22  C   LIG    1        1.366  -4.217  -2.174  0.00  0.00    +0.470 C 
ATOM     23  O   LIG    1        2.479  -4.483  -1.788  0.00  0.00    -0.470 OA
BRANCH  22  24
ATOM     24  O   LIG    1        1.197  -3.394  -3.221  0.00  0.00    -0.340 OA
BRANCH  24  26
ATOM     25  C   LIG    1        2.007  -1.951  -5.008  0.00  0.00    +0.070 C 
ATOM     26  C   LIG    1        2.397  -2.861  -3.841  0.00  0.00    +0.200 C 
ENDBRANCH  24  26
ENDBRANCH  22  24
ENDBRANCH   1  22
BRANCH   9  27
ATOM     27  O   LIG    1       -0.880  -6.901  -0.863  0.00  0.00    -0.530 OA
ATOM     28  H   LIG    1       -0.862  -7.866  -0.799  0.00  0.00    +0.400 HD
ENDBRANCH   9  27
TORSDOF 7
