REMARK  Name = ZINCpe000000Uj2b.0
REMARK                            x       y       z     vdW  Elec       q    Type
REMARK                         _______ _______ _______ _____ _____    ______ ____
ROOT
ATOM      1  C   LIG    1        1.484  -4.194  -0.027  0.00  0.00    +0.520 C 
ATOM      2  N   LIG    1        0.549  -5.160  -0.130  0.00  0.00    -0.590 N 
ATOM      3  C   LIG    1       -0.873  -4.820  -0.292  0.00  0.00    +0.300 C 
ATOM      4  C   LIG    1       -1.421  -5.600  -1.497  0.00  0.00    +0.190 C 
ATOM      5  N   LIG    1       -1.142  -7.031  -1.315  0.00  0.00    -0.500 N 
ATOM      6  C   LIG    1        0.303  -7.293  -1.285  0.00  0.00    +0.180 C 
ATOM      7  C   LIG    1        0.923  -6.581  -0.077  0.00  0.00    +0.290 C 
ATOM      8  O   LIG    1        1.154  -3.026  -0.046  0.00  0.00    -0.510 OA
ENDROOT
BRANCH   5   9
ATOM      9  C   LIG    1       -1.768  -7.793  -2.304  0.00  0.00    +0.030 A 
ATOM     10  C   LIG    1       -1.471  -7.589  -3.645  0.00  0.00    +0.230 A 
ATOM     11  N   LIG    1       -2.060  -8.306  -4.581  0.00  0.00    -0.480 NA
ATOM     12  C   LIG    1       -2.946  -9.237  -4.289  0.00  0.00    +0.260 A 
ATOM     13  C   LIG    1       -3.295  -9.499  -2.977  0.00  0.00    -0.030 A 
ATOM     14  C   LIG    1       -2.697  -8.773  -1.960  0.00  0.00    -0.020 A 
ATOM     15  C   LIG    1       -3.045  -9.034  -0.517  0.00  0.00    +0.110 C 
ENDBRANCH   5   9
BRANCH   1  16
ATOM     16  C   LIG    1        2.924  -4.562   0.111  0.00  0.00    +0.500 C 
ATOM     17  O   LIG    1        3.244  -5.728   0.252  0.00  0.00    -0.550 OA
BRANCH  16  22
ATOM     18  N   LIG    1        7.373  -3.843   0.348  0.00  0.00    -0.380 N 
ATOM     19  C   LIG    1        7.011  -5.152   0.456  0.00  0.00    +0.360 A 
ATOM     20  C   LIG    1        5.663  -5.241   0.371  0.00  0.00    -0.100 A 
ATOM     21  C   LIG    1        5.145  -3.942   0.202  0.00  0.00    +0.480 A 
ATOM     22  N   LIG    1        3.858  -3.614   0.079  0.00  0.00    -0.650 NA
ATOM     23  N   LIG    1        6.211  -3.076   0.189  0.00  0.00    -0.470 N 
ATOM     24  H   LIG    1        6.167  -2.113   0.088  0.00  0.00    +0.450 HD
BRANCH  18  26
ATOM     25  C   LIG    1        9.163  -3.118   1.849  0.00  0.00    +0.040 C 
ATOM     26  C   LIG    1        8.743  -3.326   0.393  0.00  0.00    +0.330 C 
ENDBRANCH  18  26
ENDBRANCH  16  22
ENDBRANCH   1  16
TORSDOF 4
