REMARK  Name = ZINCkj00000GeQCc.0
REMARK                            x       y       z     vdW  Elec       q    Type
REMARK                         _______ _______ _______ _____ _____    ______ ____
ROOT
ATOM      1  C   LIG    1       -1.292   3.511  -0.187  0.00  0.00    +0.080 C 
ATOM      2  C   LIG    1       -1.008   2.922   1.196  0.00  0.00    +0.140 C 
ATOM      3  C   LIG    1       -1.290   1.418   1.178  0.00  0.00    +0.180 C 
ATOM      4  N   LIG    1       -0.999   0.850   2.501  0.00  0.00    -0.390 N 
ATOM      5  C   LIG    1        0.418   1.062   2.826  0.00  0.00    +0.280 C 
ATOM      6  C   LIG    1        0.715   2.563   2.857  0.00  0.00    +0.140 C 
ATOM      7  C   LIG    1        2.195   2.785   3.175  0.00  0.00    +0.080 C 
ATOM      8  C   LIG    1       -1.287  -0.591   2.489  0.00  0.00    +0.310 C 
ATOM      9  H   LIG    1       -1.574   1.302   3.196  0.00  0.00    +0.430 HD
ATOM     10  C   LIG    1       -0.405   0.746   0.127  0.00  0.00    +0.090 C 
ATOM     11  N   LIG    1        0.401   3.149   1.546  0.00  0.00    -0.500 NA
ENDROOT
BRANCH  11  12
ATOM     12  C   LIG    1        0.727   4.581   1.518  0.00  0.00    +0.370 C 
BRANCH  12  13
ATOM     13  C   LIG    1       -0.144   5.314   2.506  0.00  0.00    +0.140 A 
ATOM     14  N   LIG    1       -0.984   4.777   3.357  0.00  0.00    -0.330 NA
ATOM     15  N   LIG    1       -1.537   5.730   4.025  0.00  0.00    -0.070 NA
ATOM     16  N   LIG    1       -1.072   6.860   3.623  0.00  0.00    -0.070 NA
ATOM     17  N   LIG    1       -0.206   6.646   2.690  0.00  0.00    -0.280 N 
BRANCH  17  18
ATOM     18  C   LIG    1        0.562   7.661   1.965  0.00  0.00    +0.160 C 
ATOM     19  C   LIG    1        2.056   7.348   2.080  0.00  0.00    +0.070 C 
ATOM     20  C   LIG    1        0.281   9.039   2.567  0.00  0.00    +0.100 C 
ATOM     21  C   LIG    1        0.152   7.655   0.491  0.00  0.00    +0.070 C 
ENDBRANCH  17  18
ENDBRANCH  12  13
ENDBRANCH  11  12
TORSDOF 3
