REMARK  Name = ZINCkj00000GeQCc.1
REMARK                            x       y       z     vdW  Elec       q    Type
REMARK                         _______ _______ _______ _____ _____    ______ ____
ROOT
ATOM      1  C   LIG    1        2.249  -0.709  -2.732  0.00  0.00    +0.080 C 
ATOM      2  C   LIG    1        2.050  -0.533  -1.225  0.00  0.00    +0.140 C 
ATOM      3  C   LIG    1        1.882   0.953  -0.901  0.00  0.00    +0.170 C 
ATOM      4  N   LIG    1        1.671   1.119   0.543  0.00  0.00    -0.380 N 
ATOM      5  C   LIG    1        0.452   0.406   0.946  0.00  0.00    +0.280 C 
ATOM      6  C   LIG    1        0.608  -1.085   0.638  0.00  0.00    +0.140 C 
ATOM      7  C   LIG    1       -0.670  -1.825   1.040  0.00  0.00    +0.080 C 
ATOM      8  C   LIG    1        2.823   0.571   1.272  0.00  0.00    +0.310 C 
ATOM      9  H   LIG    1        1.573   2.100   0.757  0.00  0.00    +0.430 HD
ATOM     10  C   LIG    1        0.675   1.508  -1.660  0.00  0.00    +0.100 C 
ATOM     11  N   LIG    1        0.846  -1.262  -0.802  0.00  0.00    -0.500 NA
ENDROOT
BRANCH  11  12
ATOM     12  C   LIG    1        0.945  -2.687  -1.147  0.00  0.00    +0.370 C 
BRANCH  12  13
ATOM     13  C   LIG    1        2.154  -3.284  -0.476  0.00  0.00    +0.140 A 
ATOM     14  N   LIG    1        2.932  -2.698   0.401  0.00  0.00    -0.330 NA
ATOM     15  N   LIG    1        3.852  -3.534   0.739  0.00  0.00    -0.070 NA
ATOM     16  N   LIG    1        3.686  -4.636   0.094  0.00  0.00    -0.070 NA
ATOM     17  N   LIG    1        2.650  -4.521  -0.665  0.00  0.00    -0.280 N 
BRANCH  17  18
ATOM     18  C   LIG    1        2.112  -5.545  -1.565  0.00  0.00    +0.160 C 
ATOM     19  C   LIG    1        0.630  -5.769  -1.255  0.00  0.00    +0.070 C 
ATOM     20  C   LIG    1        2.878  -6.854  -1.363  0.00  0.00    +0.090 C 
ATOM     21  C   LIG    1        2.266  -5.083  -3.015  0.00  0.00    +0.070 C 
ENDBRANCH  17  18
ENDBRANCH  12  13
ENDBRANCH  11  12
TORSDOF 3
