REMARK  Name = ZINCrH000004tXjn.0
REMARK                            x       y       z     vdW  Elec       q    Type
REMARK                         _______ _______ _______ _____ _____    ______ ____
ROOT
ATOM      1  O   LIG    1        0.967   3.291   2.308  0.00  0.00    -0.530 OA
ATOM      2  C   LIG    1        1.040   4.093   1.402  0.00  0.00    +0.520 C 
ATOM      3  N   LIG    1        1.004   5.414   1.667  0.00  0.00    -0.620 N 
ATOM      4  C   LIG    1        1.097   6.405   0.584  0.00  0.00    +0.300 C 
ATOM      5  C   LIG    1       -0.069   7.395   0.734  0.00  0.00    +0.190 C 
ATOM      6  N   LIG    1       -0.056   7.957   2.091  0.00  0.00    -0.480 N 
ATOM      7  C   LIG    1       -0.276   6.913   3.102  0.00  0.00    +0.200 C 
ATOM      8  C   LIG    1        0.875   5.904   3.048  0.00  0.00    +0.300 C 
ENDROOT
BRANCH   6   9
ATOM      9  C   LIG    1       -0.992   8.978   2.217  0.00  0.00    +0.340 A 
ATOM     10  N   LIG    1       -2.273   8.723   2.007  0.00  0.00    -0.490 NA
ATOM     11  C   LIG    1       -3.194   9.662   2.122  0.00  0.00    +0.350 A 
ATOM     12  C   LIG    1       -2.849  10.955   2.456  0.00  0.00    -0.230 A 
ATOM     13  C   LIG    1       -1.514  11.267   2.680  0.00  0.00    +0.150 A 
ATOM     14  C   LIG    1       -0.572  10.261   2.558  0.00  0.00    -0.060 A 
ATOM     15 CL   LIG    1        1.111  10.594   2.825  0.00  0.00    -0.010 Cl
BRANCH  12  16
ATOM     16  C   LIG    1       -3.909  12.019   2.577  0.00  0.00    +0.520 C 
ATOM     17  F   LIG    1       -3.509  12.972   3.520  0.00  0.00    -0.170 F 
ATOM     18  F   LIG    1       -5.112  11.434   2.987  0.00  0.00    -0.170 F 
ATOM     19  F   LIG    1       -4.091  12.639   1.336  0.00  0.00    -0.170 F 
ENDBRANCH  12  16
ENDBRANCH   6   9
BRANCH   2  20
ATOM     20  C   LIG    1        1.172   3.614  -0.021  0.00  0.00    +0.120 C 
BRANCH  20  21
ATOM     21  C   LIG    1        1.189   2.107  -0.043  0.00  0.00    -0.100 A 
ATOM     22  C   LIG    1        2.393   1.430  -0.052  0.00  0.00    +0.050 A 
ATOM     23  C   LIG    1        2.409   0.047  -0.073  0.00  0.00    +0.000 A 
ATOM     24  C   LIG    1        1.220  -0.658  -0.086  0.00  0.00    +0.040 A 
ATOM     25  C   LIG    1        0.015   0.017  -0.077  0.00  0.00    -0.010 A 
ATOM     26  C   LIG    1       -0.002   1.401  -0.056  0.00  0.00    +0.110 A 
ATOM     27  F   LIG    1       -1.180   2.063  -0.053  0.00  0.00    -0.140 F 
ENDBRANCH  20  21
ENDBRANCH   2  20
TORSDOF 4
