REMARK  Name = ZINCkj000018RCSV.0
REMARK                            x       y       z     vdW  Elec       q    Type
REMARK                         _______ _______ _______ _____ _____    ______ ____
ROOT
ATOM      1  C   LIG    1       -0.817   1.643   3.667  0.00  0.00    +0.030 C 
ATOM      2  C   LIG    1       -0.027   1.101   4.866  0.00  0.00    +0.080 C 
ATOM      3  C   LIG    1       -0.842   1.309   6.145  0.00  0.00    +0.060 C 
ATOM      4  C   LIG    1       -2.062   0.380   6.134  0.00  0.00    +0.310 C 
ATOM      5  N   LIG    1       -2.757   0.534   4.857  0.00  0.00    -0.440 N 
ATOM      6  C   LIG    1       -4.012   0.171   4.529  0.00  0.00    +0.110 A 
ATOM      7  N   LIG    1       -4.196   0.510   3.279  0.00  0.00    -0.270 NA
ATOM      8  N   LIG    1       -3.127   1.061   2.815  0.00  0.00    -0.240 NA
ATOM      9  C   LIG    1       -0.854   3.171   3.720  0.00  0.00    +0.120 C 
ATOM     10  C   LIG    1       -2.220   1.096   3.744  0.00  0.00    +0.220 A 
ENDROOT
BRANCH   6  11
ATOM     11  C   LIG    1       -5.015  -0.500   5.432  0.00  0.00    +0.300 C 
ATOM     12  C   LIG    1       -5.155  -1.993   5.066  0.00  0.00    +0.090 C 
ATOM     13  C   LIG    1       -6.652  -2.313   5.250  0.00  0.00    +0.090 C 
ATOM     14  C   LIG    1       -7.292  -0.985   5.712  0.00  0.00    +0.280 C 
ATOM     15  N   LIG    1       -6.371   0.068   5.213  0.00  0.00    -0.510 N 
ATOM     16  H   LIG    1       -6.527   0.237   4.231  0.00  0.00    +0.440 HD
ATOM     17  H   LIG    1       -6.487   0.918   5.742  0.00  0.00    +0.440 HD
ENDBRANCH   6  11
BRANCH   1  18
ATOM     18  C   LIG    1       -0.166   1.194   2.384  0.00  0.00    +0.480 C 
ATOM     19  O   LIG    1        0.829   0.510   2.418  0.00  0.00    -0.490 OA
BRANCH  18  20
ATOM     20  O   LIG    1       -0.692   1.554   1.203  0.00  0.00    -0.330 OA
BRANCH  20  22
ATOM     21  C   LIG    1       -0.753   1.593  -1.232  0.00  0.00    +0.070 C 
ATOM     22  C   LIG    1       -0.013   1.086   0.008  0.00  0.00    +0.200 C 
ENDBRANCH  20  22
ENDBRANCH  18  20
ENDBRANCH   1  18
TORSDOF 4
