REMARK  Name = ZINCrD0000075Ntx.0
REMARK                            x       y       z     vdW  Elec       q    Type
REMARK                         _______ _______ _______ _____ _____    ______ ____
ROOT
ATOM      1  O   LIG    1        0.002  -0.004   0.002  0.00  0.00    -0.480 OA
ATOM      2  C   LIG    1       -0.014   1.212   0.009  0.00  0.00    +0.560 C 
ATOM      3  N   LIG    1        1.143   1.901   0.001  0.00  0.00    -0.620 N 
ATOM      4  H   LIG    1        1.130   2.871   0.007  0.00  0.00    +0.420 HD
ENDROOT
BRANCH   2   5
ATOM      5  C   LIG    1       -1.302   1.932   0.019  0.00  0.00    -0.140 A 
ATOM      6  C   LIG    1       -1.306   3.316   0.032  0.00  0.00    +0.180 A 
ATOM      7  C   LIG    1       -2.531   3.998   0.037  0.00  0.00    -0.000 A 
ATOM      8  N   LIG    1       -2.921   5.265   0.045  0.00  0.00    -0.240 NA
ATOM      9  N   LIG    1       -4.208   5.303   0.052  0.00  0.00    -0.180 N 
ATOM     10  H   LIG    1       -4.721   6.126   0.059  0.00  0.00    +0.480 HD
ATOM     11  N   LIG    1       -4.742   4.131   0.048  0.00  0.00    -0.260 NA
ATOM     12  C   LIG    1       -3.781   3.222   0.038  0.00  0.00    +0.070 A 
ATOM     13  C   LIG    1       -3.714   1.816   0.030  0.00  0.00    +0.050 A 
ATOM     14  C   LIG    1       -2.506   1.198   0.020  0.00  0.00    +0.170 A 
ATOM     15  F   LIG    1       -2.456  -0.152   0.012  0.00  0.00    -0.100 F 
ENDBRANCH   2   5
BRANCH   3  16
ATOM     16  C   LIG    1        2.355   1.224  -0.014  0.00  0.00    +0.240 A 
ATOM     17  N   LIG    1        3.519   1.791  -0.027  0.00  0.00    -0.510 NA
ATOM     18  C   LIG    1        4.577   0.991  -0.037  0.00  0.00    +0.180 A 
ATOM     19  C   LIG    1        4.275  -0.322  -0.042  0.00  0.00    -0.140 A 
ATOM     20  S   LIG    1        2.521  -0.477  -0.025  0.00  0.00    +0.250 S 
BRANCH  18  21
ATOM     21  C   LIG    1        5.971   1.497  -0.048  0.00  0.00    -0.150 A 
ATOM     22  C   LIG    1        7.135   0.752  -0.058  0.00  0.00    +0.270 A 
ATOM     23  N   LIG    1        8.188   1.567  -0.070  0.00  0.00    -0.550 NA
ATOM     24  C   LIG    1        7.832   2.840  -0.059  0.00  0.00    +0.260 A 
ATOM     25  N   LIG    1        8.540   4.017  -0.060  0.00  0.00    -0.500 N 
ATOM     26  H   LIG    1        9.510   3.994  -0.070  0.00  0.00    +0.430 HD
ATOM     27  C   LIG    1        7.904   5.199  -0.047  0.00  0.00    +0.330 A 
ATOM     28  C   LIG    1        6.545   5.283  -0.033  0.00  0.00    -0.080 A 
ATOM     29  C   LIG    1        5.771   4.127  -0.032  0.00  0.00    +0.200 A 
ATOM     30  C   LIG    1        6.411   2.894  -0.045  0.00  0.00    -0.150 A 
ENDBRANCH  18  21
ENDBRANCH   3  16
TORSDOF 3
