REMARK  Name = ZINCrH000004v9Qy.0
REMARK                            x       y       z     vdW  Elec       q    Type
REMARK                         _______ _______ _______ _____ _____    ______ ____
ROOT
ATOM      1  C   LIG    1       -1.224   1.776   0.011  0.00  0.00    -0.220 A 
ATOM      2  C   LIG    1       -0.013   1.076  -0.008  0.00  0.00    +0.140 A 
ATOM      3  C   LIG    1        1.166   1.801  -0.023  0.00  0.00    -0.070 A 
ATOM      4  C   LIG    1        1.115   3.183  -0.013  0.00  0.00    +0.350 A 
ATOM      5  N   LIG    1       -0.038   3.823   0.011  0.00  0.00    -0.540 NA
ATOM      6  C   LIG    1       -1.193   3.179   0.026  0.00  0.00    +0.380 A 
ENDROOT
BRANCH   1   8
ATOM      7  O   LIG    1       -3.555   1.673   0.038  0.00  0.00    -0.490 OA
ATOM      8  C   LIG    1       -2.510   1.054   0.021  0.00  0.00    +0.570 C 
ATOM      9  N   LIG    1       -2.525  -0.294   0.011  0.00  0.00    -0.670 N 
ATOM     10  H   LIG    1       -1.694  -0.788  -0.070  0.00  0.00    +0.410 HD
BRANCH   9  11
ATOM     11  C   LIG    1       -3.740  -0.981   0.118  0.00  0.00    +0.160 A 
ATOM     12  C   LIG    1       -3.798  -2.187   0.803  0.00  0.00    +0.010 A 
ATOM     13  C   LIG    1       -4.998  -2.864   0.913  0.00  0.00    +0.060 A 
ATOM     14  C   LIG    1       -6.144  -2.347   0.333  0.00  0.00    +0.020 A 
ATOM     15  O   LIG    1       -7.427  -2.813   0.294  0.00  0.00    -0.310 OA
ATOM     16  C   LIG    1       -8.067  -2.088  -0.773  0.00  0.00    +0.430 C 
ATOM     17  O   LIG    1       -7.336  -0.849  -0.832  0.00  0.00    -0.310 OA
ATOM     18  C   LIG    1       -6.088  -1.139  -0.359  0.00  0.00    +0.050 A 
ATOM     19  C   LIG    1       -4.887  -0.459  -0.465  0.00  0.00    +0.050 A 
ENDBRANCH   9  11
ENDBRANCH   1   8
BRANCH   6  20
ATOM     20  O   LIG    1       -2.353   3.878   0.051  0.00  0.00    -0.270 OA
BRANCH  20  21
ATOM     21  C   LIG    1       -2.252   5.303   0.060  0.00  0.00    +0.290 C 
BRANCH  21  22
ATOM     22  C   LIG    1       -3.634   5.905   0.088  0.00  0.00    -0.130 A 
ATOM     23  C   LIG    1       -4.745   5.083   0.101  0.00  0.00    +0.080 A 
ATOM     24  C   LIG    1       -6.012   5.635   0.126  0.00  0.00    +0.000 A 
ATOM     25  C   LIG    1       -6.170   7.008   0.139  0.00  0.00    +0.040 A 
ATOM     26  C   LIG    1       -5.060   7.832   0.126  0.00  0.00    -0.010 A 
ATOM     27  C   LIG    1       -3.790   7.280   0.107  0.00  0.00    +0.110 A 
ATOM     28  F   LIG    1       -2.704   8.084   0.100  0.00  0.00    -0.140 F 
ENDBRANCH  21  22
ENDBRANCH  20  21
ENDBRANCH   6  20
TORSDOF 5
