REMARK  Name = ZINCvU0000000GVL.0
REMARK                            x       y       z     vdW  Elec       q    Type
REMARK                         _______ _______ _______ _____ _____    ______ ____
ROOT
ATOM      1  N   LIG    1       -2.737   4.414   4.772  0.00  0.00    -0.590 N 
ATOM      2  C   LIG    1       -3.698   5.197   4.241  0.00  0.00    +0.570 C 
ATOM      3  C   LIG    1       -3.366   6.618   4.449  0.00  0.00    +0.090 A 
ATOM      4  C   LIG    1       -2.177   6.686   5.117  0.00  0.00    -0.250 A 
ATOM      5  C   LIG    1       -1.577   7.979   5.461  0.00  0.00    +0.460 A 
ATOM      6  C   LIG    1       -2.255   9.134   4.821  0.00  0.00    -0.180 A 
ATOM      7  C   LIG    1       -1.688  10.407   4.883  0.00  0.00    +0.090 A 
ATOM      8  C   LIG    1       -2.327  11.468   4.277  0.00  0.00    +0.080 A 
ATOM      9  C   LIG    1       -3.528  11.265   3.608  0.00  0.00    +0.070 A 
ATOM     10  C   LIG    1       -4.097  10.013   3.544  0.00  0.00    +0.060 A 
ATOM     11  F   LIG    1       -1.785  12.704   4.332  0.00  0.00    -0.130 F 
ATOM     12  C   LIG    1       -3.471   8.925   4.152  0.00  0.00    +0.130 A 
ATOM     13  O   LIG    1       -0.616   8.094   6.201  0.00  0.00    -0.430 OA
ATOM     14  O   LIG    1       -4.062   7.711   4.081  0.00  0.00    -0.170 OA
ATOM     15  O   LIG    1       -4.692   4.790   3.673  0.00  0.00    -0.480 OA
ATOM     16  C   LIG    1       -1.714   5.288   5.369  0.00  0.00    +0.360 C 
ENDROOT
BRANCH  16  17
ATOM     17  C   LIG    1       -0.381   5.057   4.705  0.00  0.00    -0.120 A 
ATOM     18  C   LIG    1       -0.315   4.859   3.339  0.00  0.00    +0.070 A 
ATOM     19  C   LIG    1        0.907   4.652   2.728  0.00  0.00    -0.020 A 
ATOM     20  C   LIG    1        2.065   4.633   3.487  0.00  0.00    +0.110 A 
ATOM     21  C   LIG    1        1.997   4.827   4.857  0.00  0.00    -0.020 A 
ATOM     22  F   LIG    1        3.260   4.425   2.893  0.00  0.00    -0.140 F 
ATOM     23  C   LIG    1        0.774   5.039   5.464  0.00  0.00    +0.080 A 
ENDBRANCH  16  17
BRANCH   1  24
ATOM     24  C   LIG    1       -2.718   2.949   4.763  0.00  0.00    +0.380 C 
BRANCH  24  29
ATOM     25  C   LIG    1       -0.013   1.086   0.008  0.00  0.00    +0.090 C 
ATOM     26  C   LIG    1       -0.718   1.572   1.248  0.00  0.00    -0.070 A 
ATOM     27  C   LIG    1       -2.083   1.789   1.226  0.00  0.00    -0.010 A 
ATOM     28  C   LIG    1       -2.731   2.231   2.365  0.00  0.00    +0.040 A 
ATOM     29  C   LIG    1       -2.012   2.464   3.522  0.00  0.00    -0.130 A 
ATOM     30  C   LIG    1       -0.646   2.251   3.543  0.00  0.00    +0.040 A 
ATOM     31  C   LIG    1        0.001   1.806   2.405  0.00  0.00    +0.000 A 
ENDBRANCH  24  29
ENDBRANCH   1  24
TORSDOF 3
