REMARK  Name = ZINCqH00000012ja.0
REMARK                            x       y       z     vdW  Elec       q    Type
REMARK                         _______ _______ _______ _____ _____    ______ ____
ROOT
ATOM      1  C   LIG    1       -0.087   1.063  -2.472  0.00  0.00    +0.470 C 
ATOM      2  O   LIG    1        0.885   0.351  -2.377  0.00  0.00    -0.500 OA
ENDROOT
BRANCH   1   3
ATOM      3  C   LIG    1       -0.756   1.594  -1.230  0.00  0.00    +0.040 C 
ATOM      4  C   LIG    1       -0.013   1.086   0.008  0.00  0.00    +0.040 C 
ATOM      5  C   LIG    1       -0.732   1.581   1.266  0.00  0.00    +0.050 C 
ATOM      6  C   LIG    1       -2.185   1.096   1.239  0.00  0.00    +0.210 C 
ATOM      7  N   LIG    1       -2.852   1.610   0.036  0.00  0.00    -0.460 N 
ATOM      8  C   LIG    1       -2.207   1.109  -1.184  0.00  0.00    +0.240 C 
BRANCH   7   9
ATOM      9  C   LIG    1       -4.201   1.299   0.047  0.00  0.00    +0.490 A 
ATOM     10  N   LIG    1       -4.720   0.637  -0.977  0.00  0.00    -0.550 NA
ATOM     11  C   LIG    1       -6.004   0.320  -0.995  0.00  0.00    +0.340 A 
ATOM     12  C   LIG    1       -6.810   0.698   0.067  0.00  0.00    -0.110 A 
ATOM     13  C   LIG    1       -6.235   1.395   1.119  0.00  0.00    +0.350 A 
ATOM     14  N   LIG    1       -4.944   1.676   1.078  0.00  0.00    -0.530 NA
ENDBRANCH   7   9
ENDBRANCH   1   3
BRANCH   1  15
ATOM     15  O   LIG    1       -0.570   1.382  -3.683  0.00  0.00    -0.350 OA
BRANCH  15  16
ATOM     16  C   LIG    1        0.125   0.835  -4.835  0.00  0.00    +0.270 C 
BRANCH  16  20
ATOM     17  C   LIG    1       -1.803   2.142  -8.415  0.00  0.00    -0.060 A 
ATOM     18  C   LIG    1       -0.782   2.895  -7.866  0.00  0.00    +0.000 A 
ATOM     19  C   LIG    1       -0.158   2.472  -6.707  0.00  0.00    +0.030 A 
ATOM     20  C   LIG    1       -0.555   1.296  -6.098  0.00  0.00    -0.100 A 
ATOM     21  C   LIG    1       -1.573   0.541  -6.650  0.00  0.00    +0.030 A 
ATOM     22  C   LIG    1       -2.200   0.966  -7.807  0.00  0.00    +0.010 A 
BRANCH  17  24
ATOM     23  C   LIG    1       -1.453   2.708 -10.804  0.00  0.00    +0.040 C 
ATOM     24  C   LIG    1       -2.484   2.604  -9.678  0.00  0.00    -0.030 C 
ATOM     25  C   LIG    1       -3.121   3.975  -9.441  0.00  0.00    +0.040 C 
ATOM     26  C   LIG    1       -3.568   1.599 -10.070  0.00  0.00    +0.030 C 
ENDBRANCH  17  24
ENDBRANCH  16  20
ENDBRANCH  15  16
ENDBRANCH   1  15
TORSDOF 6
