REMARK  Name = ZINCpk00000e9PHy.0
REMARK                            x       y       z     vdW  Elec       q    Type
REMARK                         _______ _______ _______ _____ _____    ______ ____
ROOT
ATOM      1  C   LIG    1       -5.839   3.652   0.913  0.00  0.00    +0.230 C 
ATOM      2  C   LIG    1       -4.880   4.209  -0.145  0.00  0.00    +0.320 C 
ATOM      3  N   LIG    1       -3.605   3.481  -0.049  0.00  0.00    -0.590 N 
ATOM      4  C   LIG    1       -3.640   2.011  -0.065  0.00  0.00    +0.300 C 
ATOM      5  C   LIG    1       -4.648   1.541   0.996  0.00  0.00    +0.180 C 
ATOM      6  C   LIG    1       -2.436   4.145   0.046  0.00  0.00    +0.580 C 
ATOM      7  O   LIG    1       -2.431   5.351   0.187  0.00  0.00    -0.520 OA
ATOM      8  N   LIG    1       -5.942   2.195   0.758  0.00  0.00    -0.520 NA
ATOM      9  C   LIG    1       -6.980   1.644   1.640  0.00  0.00    +0.200 C 
ENDROOT
BRANCH   6  10
ATOM     10  C   LIG    1       -1.155   3.402  -0.023  0.00  0.00    +0.060 A 
ATOM     11  N   LIG    1       -1.156   2.122  -0.352  0.00  0.00    -0.380 NA
ATOM     12  C   LIG    1       -0.003   1.454  -0.409  0.00  0.00    +0.070 A 
ATOM     13  C   LIG    1        0.028   0.089  -0.753  0.00  0.00    +0.070 A 
ATOM     14  C   LIG    1        1.220  -0.565  -0.808  0.00  0.00    +0.040 A 
ATOM     15  C   LIG    1        2.415   0.096  -0.528  0.00  0.00    +0.060 A 
ATOM     16  C   LIG    1        2.425   1.415  -0.193  0.00  0.00    +0.050 A 
ATOM     17  C   LIG    1        1.215   2.127  -0.124  0.00  0.00    +0.100 A 
ATOM     18  N   LIG    1        1.196   3.424   0.203  0.00  0.00    -0.420 NA
ATOM     19  C   LIG    1        0.052   4.066   0.259  0.00  0.00    +0.320 A 
ENDBRANCH   6  10
BRANCH   1  25
ATOM     20  C   LIG    1       -7.111   5.842   2.698  0.00  0.00    +0.320 C 
ATOM     21  N   LIG    1       -7.738   5.229   1.524  0.00  0.00    -0.460 N 
ATOM     22  C   LIG    1       -8.977   5.519   1.021  0.00  0.00    +0.130 A 
ATOM     23  C   LIG    1       -9.157   4.726  -0.052  0.00  0.00    +0.140 A 
ATOM     24  N   LIG    1       -8.056   3.976  -0.204  0.00  0.00    -0.460 NA
ATOM     25  C   LIG    1       -7.200   4.274   0.735  0.00  0.00    +0.200 A 
ENDBRANCH   1  25
TORSDOF 2
