REMARK  Name = ZINCrD0000070Zut.0
REMARK                            x       y       z     vdW  Elec       q    Type
REMARK                         _______ _______ _______ _____ _____    ______ ____
ROOT
ATOM      1  C   LIG    1       -0.486  -4.647   4.426  0.00  0.00    +0.510 C 
ATOM      2  O   LIG    1       -1.550  -5.219   4.300  0.00  0.00    -0.500 OA
ENDROOT
BRANCH   1   3
ATOM      3  C   LIG    1        0.102  -3.918   3.284  0.00  0.00    -0.110 A 
ATOM      4  C   LIG    1       -0.562  -3.885   2.056  0.00  0.00    +0.080 A 
ATOM      5  C   LIG    1       -0.007  -3.204   0.993  0.00  0.00    +0.050 A 
ATOM      6  C   LIG    1        1.206  -2.554   1.141  0.00  0.00    -0.080 A 
ATOM      7  C   LIG    1        1.872  -2.588   2.353  0.00  0.00    +0.020 A 
ATOM      8  C   LIG    1        1.326  -3.261   3.426  0.00  0.00    +0.080 A 
BRANCH   6   9
ATOM      9  C   LIG    1        1.806  -1.812  -0.025  0.00  0.00    +0.380 C 
BRANCH   9  10
ATOM     10  N   LIG    1        1.339  -0.424  -0.013  0.00  0.00    -0.370 N 
ATOM     11  C   LIG    1        2.119   0.677  -0.015  0.00  0.00    +0.220 A 
ATOM     12  C   LIG    1        1.307   1.759  -0.001  0.00  0.00    -0.120 A 
ATOM     13  C   LIG    1       -0.016   1.304   0.009  0.00  0.00    +0.230 A 
ATOM     14  N   LIG    1        0.002  -0.004   0.002  0.00  0.00    -0.290 NA
ENDBRANCH   9  10
ENDBRANCH   6   9
ENDBRANCH   1   3
BRANCH   1  15
ATOM     15  O   LIG    1        0.158  -4.677   5.609  0.00  0.00    -0.340 OA
BRANCH  15  16
ATOM     16  C   LIG    1       -0.478  -5.412   6.688  0.00  0.00    +0.260 C 
BRANCH  16  17
ATOM     17  C   LIG    1        0.394  -5.334   7.942  0.00  0.00    +0.220 C 
BRANCH  17  18
ATOM     18  O   LIG    1        0.459  -3.980   8.394  0.00  0.00    -0.280 OA
BRANCH  18  24
ATOM     19  C   LIG    1        1.313  -2.429  10.004  0.00  0.00    -0.210 A 
ATOM     20  C   LIG    1        2.075  -2.193  11.155  0.00  0.00    +0.110 A 
ATOM     21  C   LIG    1        2.714  -3.240  11.781  0.00  0.00    -0.040 A 
ATOM     22  C   LIG    1        2.603  -4.528  11.281  0.00  0.00    +0.080 A 
ATOM     23  C   LIG    1        1.850  -4.777  10.150  0.00  0.00    -0.100 A 
ATOM     24  C   LIG    1        1.199  -3.737   9.505  0.00  0.00    +0.180 A 
BRANCH  19  26
ATOM     25  C   LIG    1        0.760   0.084   9.867  0.00  0.00    +0.060 C 
ATOM     26  C   LIG    1        0.634  -1.317   9.327  0.00  0.00    +0.390 C 
ATOM     27  O   LIG    1       -0.029  -1.527   8.333  0.00  0.00    -0.440 OA
ENDBRANCH  19  26
ENDBRANCH  18  24
ENDBRANCH  17  18
ENDBRANCH  16  17
ENDBRANCH  15  16
ENDBRANCH   1  15
TORSDOF 9
