REMARK  Name = ZINCrg00000IXTaN.0
REMARK                            x       y       z     vdW  Elec       q    Type
REMARK                         _______ _______ _______ _____ _____    ______ ____
ROOT
ATOM      1  C   LIG    1        0.533  -1.951  -1.083  0.00  0.00    +0.160 C 
ATOM      2  C   LIG    1        0.548  -2.258  -2.595  0.00  0.00    +0.070 C 
ATOM      3  C   LIG    1       -0.945  -2.540  -2.907  0.00  0.00    +0.040 C 
ATOM      4  C   LIG    1       -1.405  -3.251  -1.610  0.00  0.00    +0.260 C 
ATOM      5  N   LIG    1       -0.683  -2.562  -0.525  0.00  0.00    -0.610 N 
ATOM      6  C   LIG    1       -1.072  -2.502   0.764  0.00  0.00    +0.570 C 
ATOM      7  O   LIG    1       -0.438  -1.838   1.560  0.00  0.00    -0.480 OA
ENDROOT
BRANCH   6   8
ATOM      8  C   LIG    1       -2.268  -3.244   1.208  0.00  0.00    -0.120 A 
ATOM      9  C   LIG    1       -2.908  -4.129   0.335  0.00  0.00    +0.060 A 
ATOM     10  C   LIG    1       -4.024  -4.822   0.747  0.00  0.00    +0.030 A 
ATOM     11  C   LIG    1       -4.518  -4.643   2.033  0.00  0.00    +0.110 A 
ATOM     12  N   LIG    1       -5.596  -5.186   2.720  0.00  0.00    -0.640 N 
ATOM     13  H   LIG    1       -6.226  -5.834   2.366  0.00  0.00    +0.440 HD
ATOM     14  C   LIG    1       -5.621  -4.661   3.959  0.00  0.00    +0.680 A 
ATOM     15  N   LIG    1       -4.600  -3.797   4.107  0.00  0.00    -0.510 N 
ATOM     16  O   LIG    1       -6.443  -4.928   4.816  0.00  0.00    -0.550 OA
ATOM     17  C   LIG    1       -3.883  -3.760   2.912  0.00  0.00    +0.090 A 
ATOM     18  C   LIG    1       -2.759  -3.067   2.504  0.00  0.00    +0.100 A 
BRANCH  15  19
ATOM     19  C   LIG    1       -4.295  -3.026   5.315  0.00  0.00    +0.210 C 
ATOM     20  C   LIG    1       -5.084  -3.360   6.583  0.00  0.00    +0.060 C 
ATOM     21  C   LIG    1       -5.366  -2.061   5.826  0.00  0.00    +0.030 C 
ENDBRANCH  15  19
ENDBRANCH   6   8
BRANCH   1  25
ATOM     22  C   LIG    1       -0.702   1.654  -0.756  0.00  0.00    +0.280 C 
ATOM     23  N   LIG    1       -0.617   0.238  -1.125  0.00  0.00    -0.730 N 
ATOM     24  H   LIG    1       -1.369  -0.196  -1.558  0.00  0.00    +0.400 HD
ATOM     25  C   LIG    1        0.505  -0.461  -0.862  0.00  0.00    +0.530 C 
ATOM     26  O   LIG    1        1.492   0.110  -0.448  0.00  0.00    -0.520 OA
ENDBRANCH   1  25
BRANCH   1  27
ATOM     27  C   LIG    1        1.771  -2.553  -0.414  0.00  0.00    +0.200 C 
BRANCH  27  28
ATOM     28  O   LIG    1        1.683  -2.372   1.001  0.00  0.00    -0.350 OA
ATOM     29  C   LIG    1        2.796  -2.901   1.725  0.00  0.00    +0.180 C 
ENDBRANCH  27  28
ENDBRANCH   1  27
TORSDOF 5
