REMARK  Name = ZINCrD00000lCcV9.0
REMARK                            x       y       z     vdW  Elec       q    Type
REMARK                         _______ _______ _______ _____ _____    ______ ____
ROOT
ATOM      1  C   LIG    1        0.879   3.866   0.402  0.00  0.00    +0.520 C 
ATOM      2  N   LIG    1        0.327   2.718   0.842  0.00  0.00    -0.610 N 
ATOM      3  C   LIG    1       -0.276   2.694   2.189  0.00  0.00    +0.270 C 
ATOM      4  C   LIG    1        0.071   1.405   2.958  0.00  0.00    +0.020 C 
ATOM      5  C   LIG    1        1.513   1.032   2.718  0.00  0.00    +0.020 C 
ATOM      6  C   LIG    1        1.598   0.083   1.526  0.00  0.00    +0.010 C 
ATOM      7  C   LIG    1        1.651   0.755   0.219  0.00  0.00    +0.030 C 
ATOM      8  C   LIG    1        0.350   1.561  -0.024  0.00  0.00    +0.360 C 
ATOM      9  O   LIG    1        1.322   3.933  -0.725  0.00  0.00    -0.490 OA
ENDROOT
BRANCH   8  10
ATOM     10  C   LIG    1        0.299   2.009  -1.462  0.00  0.00    +0.180 A 
ATOM     11  N   LIG    1        1.298   2.042  -2.293  0.00  0.00    -0.340 NA
ATOM     12  O   LIG    1        0.930   2.451  -3.374  0.00  0.00    +0.090 OA
ATOM     13  C   LIG    1       -0.377   2.727  -3.334  0.00  0.00    +0.170 A 
ATOM     14  N   LIG    1       -0.789   2.444  -2.122  0.00  0.00    -0.460 NA
BRANCH  13  15
ATOM     15  C   LIG    1       -1.217   3.256  -4.467  0.00  0.00    +0.340 C 
BRANCH  15  16
ATOM     16  O   LIG    1       -1.205   4.685  -4.442  0.00  0.00    -0.380 OA
ATOM     17  C   LIG    1       -1.976   5.291  -5.481  0.00  0.00    +0.220 C 
ENDBRANCH  15  16
ENDBRANCH  13  15
ENDBRANCH   8  10
BRANCH   1  18
ATOM     18  C   LIG    1        0.946   5.066   1.310  0.00  0.00    +0.010 C 
BRANCH  18  19
ATOM     19  C   LIG    1        0.967   6.343   0.467  0.00  0.00    +0.160 C 
ATOM     20  C   LIG    1        1.183   7.553   1.379  0.00  0.00    +0.000 C 
ATOM     21  C   LIG    1        1.204   8.829   0.536  0.00  0.00    +0.010 C 
ATOM     22  C   LIG    1       -0.130   8.977  -0.199  0.00  0.00    +0.000 C 
ATOM     23  C   LIG    1       -0.346   7.767  -1.111  0.00  0.00    +0.000 C 
ATOM     24  C   LIG    1       -0.367   6.490  -0.268  0.00  0.00    -0.010 C 
BRANCH  19  25
ATOM     25  O   LIG    1        2.030   6.268  -0.485  0.00  0.00    -0.520 OA
ATOM     26  H   LIG    1        2.103   7.046  -1.055  0.00  0.00    +0.360 HD
ENDBRANCH  19  25
ENDBRANCH  18  19
BRANCH  18  28
ATOM     27  C   LIG    1        3.443   5.017   1.242  0.00  0.00    +0.030 C 
ATOM     28  C   LIG    1        2.218   4.994   2.158  0.00  0.00    +0.020 C 
ENDBRANCH  18  28
ENDBRANCH   1  18
TORSDOF 7
