REMARK  Name = ZINCkj000005iILa.0
REMARK                            x       y       z     vdW  Elec       q    Type
REMARK                         _______ _______ _______ _____ _____    ______ ____
ROOT
ATOM      1  C   LIG    1        4.759   5.665  -0.013  0.00  0.00    +0.070 C 
ENDROOT
BRANCH   1   2
ATOM      2  C   LIG    1        6.144   6.260  -0.023  0.00  0.00    +0.520 C 
ATOM      3  N   LIG    1        6.303   7.598  -0.017  0.00  0.00    -0.730 N 
ATOM      4  H   LIG    1        5.525   8.179  -0.007  0.00  0.00    +0.410 HD
ATOM      5  O   LIG    1        7.116   5.534  -0.035  0.00  0.00    -0.520 OA
BRANCH   3   6
ATOM      6  C   LIG    1        7.648   8.177  -0.026  0.00  0.00    +0.260 C 
ATOM      7  C   LIG    1        7.612   9.609  -0.598  0.00  0.00    +0.070 C 
ATOM      8  C   LIG    1        8.120  10.511   0.548  0.00  0.00    +0.280 C 
ATOM      9  N   LIG    1        8.936   9.609   1.401  0.00  0.00    -0.520 N 
ATOM     10  H   LIG    1        9.018   9.984   2.334  0.00  0.00    +0.440 HD
ATOM     11  H   LIG    1        9.849   9.470   0.995  0.00  0.00    +0.440 HD
ATOM     12  C   LIG    1        8.176   8.331   1.416  0.00  0.00    +0.260 C 
ENDBRANCH   3   6
ENDBRANCH   1   2
BRANCH   1  13
ATOM     13  C   LIG    1        4.860   4.138  -0.022  0.00  0.00    +0.050 C 
BRANCH  13  14
ATOM     14  C   LIG    1        3.454   3.534  -0.012  0.00  0.00    +0.180 C 
BRANCH  14  15
ATOM     15  O   LIG    1        3.549   2.108  -0.020  0.00  0.00    -0.310 OA
BRANCH  15  19
ATOM     16  C   LIG    1        0.002  -0.004   0.002  0.00  0.00    +0.100 A 
ATOM     17  C   LIG    1       -0.017   1.383   0.010  0.00  0.00    +0.030 A 
ATOM     18  C   LIG    1        1.170   2.090   0.002  0.00  0.00    -0.040 A 
ATOM     19  C   LIG    1        2.380   1.413  -0.013  0.00  0.00    +0.090 A 
ATOM     20  C   LIG    1        2.399   0.026  -0.021  0.00  0.00    +0.020 A 
ATOM     21  C   LIG    1        1.212  -0.681  -0.013  0.00  0.00    -0.030 A 
BRANCH  16  23
ATOM     22  C   LIG    1       -1.072  -2.126   0.001  0.00  0.00    +0.250 C 
ATOM     23  O   LIG    1       -1.166  -0.700   0.010  0.00  0.00    -0.320 OA
ENDBRANCH  16  23
ENDBRANCH  15  19
ENDBRANCH  14  15
ENDBRANCH  13  14
ENDBRANCH   1  13
TORSDOF 7
