REMARK  Name = ZINCpe000000UmVt.0
REMARK                            x       y       z     vdW  Elec       q    Type
REMARK                         _______ _______ _______ _____ _____    ______ ____
ROOT
ATOM      1  C   LIG    1        1.249   0.941   4.524  0.00  0.00    +0.220 C 
ATOM      2  C   LIG    1        0.310   0.074   5.401  0.00  0.00    +0.060 C 
ATOM      3  C   LIG    1        1.089   0.029   6.741  0.00  0.00    +0.040 C 
ATOM      4  C   LIG    1        1.731   1.431   6.816  0.00  0.00    +0.250 C 
ATOM      5  N   LIG    1        1.796   1.956   5.442  0.00  0.00    -0.610 N 
ATOM      6  C   LIG    1        2.276   3.163   5.083  0.00  0.00    +0.540 C 
ATOM      7  O   LIG    1        2.367   3.454   3.909  0.00  0.00    -0.510 OA
ENDROOT
BRANCH   1  10
ATOM      8  C   LIG    1        0.866  -0.368   2.037  0.00  0.00    +0.290 C 
ATOM      9  N   LIG    1        0.343   0.987   2.223  0.00  0.00    -0.600 N 
ATOM     10  C   LIG    1        0.470   1.601   3.416  0.00  0.00    +0.520 C 
ATOM     11  O   LIG    1       -0.042   2.686   3.598  0.00  0.00    -0.510 OA
BRANCH   9  12
ATOM     12  C   LIG    1       -0.319   1.676   1.112  0.00  0.00    +0.270 C 
ATOM     13  C   LIG    1        0.654   1.821  -0.072  0.00  0.00    +0.060 C 
ATOM     14  C   LIG    1       -0.151   2.227  -1.323  0.00  0.00    -0.310 C 
ATOM     15  S   LIG    1       -1.825   1.539  -1.055  0.00  0.00    +2.400 S 
ATOM     16  O   LIG    1       -2.055   0.486  -1.982  0.00  0.00    -0.930 OA
ATOM     17  O   LIG    1       -2.760   2.603  -0.947  0.00  0.00    -0.930 OA
ATOM     18  C   LIG    1       -1.513   0.832   0.607  0.00  0.00    -0.330 C 
ENDBRANCH   9  12
ENDBRANCH   1  10
BRANCH   6  19
ATOM     19  C   LIG    1        2.699   4.151   6.140  0.00  0.00    +0.110 C 
BRANCH  19  20
ATOM     20  C   LIG    1        3.193   5.412   5.479  0.00  0.00    -0.070 A 
ATOM     21  C   LIG    1        4.531   5.544   5.157  0.00  0.00    +0.010 A 
ATOM     22  C   LIG    1        4.984   6.699   4.548  0.00  0.00    +0.000 A 
ATOM     23  C   LIG    1        4.101   7.726   4.269  0.00  0.00    +0.000 A 
ATOM     24  C   LIG    1        2.764   7.595   4.596  0.00  0.00    +0.000 A 
ATOM     25  C   LIG    1        2.310   6.438   5.202  0.00  0.00    +0.020 A 
ENDBRANCH  19  20
ENDBRANCH   6  19
TORSDOF 4
