REMARK  Name = ZINCpk000000nNRt.0
REMARK                            x       y       z     vdW  Elec       q    Type
REMARK                         _______ _______ _______ _____ _____    ______ ____
ROOT
ATOM      1  C   LIG    1        1.452   0.587  -0.335  0.00  0.00    +0.170 C 
ENDROOT
BRANCH   1   2
ATOM      2  C   LIG    1        2.202   0.255   0.930  0.00  0.00    +0.520 C 
ATOM      3  N   LIG    1        1.940   0.932   2.066  0.00  0.00    -0.610 N 
ATOM      4  C   LIG    1        0.857   1.926   2.120  0.00  0.00    +0.270 C 
ATOM      5  C   LIG    1       -0.034   1.604   3.330  0.00  0.00    +0.170 C 
ATOM      6  N   LIG    1        0.799   1.527   4.538  0.00  0.00    -0.530 NA
ATOM      7  C   LIG    1        1.772   0.430   4.446  0.00  0.00    +0.190 C 
ATOM      8  C   LIG    1        2.732   0.700   3.283  0.00  0.00    +0.300 C 
ATOM      9  O   LIG    1        3.041  -0.620   0.926  0.00  0.00    -0.510 OA
BRANCH   6  10
ATOM     10  C   LIG    1       -0.031   1.395   5.742  0.00  0.00    +0.190 C 
BRANCH  10  11
ATOM     11  C   LIG    1       -0.915   0.152   5.618  0.00  0.00    +0.160 C 
ATOM     12  C   LIG    1       -1.895   0.103   6.793  0.00  0.00    +0.010 C 
BRANCH  11  13
ATOM     13  O   LIG    1       -0.095  -1.019   5.633  0.00  0.00    -0.560 OA
ATOM     14  H   LIG    1        0.430  -1.121   6.439  0.00  0.00    +0.380 HD
ENDBRANCH  11  13
ENDBRANCH  10  11
ENDBRANCH   6  10
ENDBRANCH   1   2
BRANCH   1  16
ATOM     15  C   LIG    1       -0.582   0.069  -1.689  0.00  0.00    +0.040 C 
ATOM     16  C   LIG    1        0.246  -0.345  -0.472  0.00  0.00    -0.020 C 
ATOM     17  C   LIG    1       -0.617  -0.252   0.788  0.00  0.00    +0.040 C 
ENDBRANCH   1  16
BRANCH   1  18
ATOM     18  O   LIG    1        2.317   0.416  -1.460  0.00  0.00    -0.280 OA
BRANCH  18  19
ATOM     19  C   LIG    1        2.138   1.260  -2.507  0.00  0.00    +0.180 A 
ATOM     20  C   LIG    1        1.212   2.288  -2.423  0.00  0.00    -0.070 A 
ATOM     21  C   LIG    1        1.034   3.149  -3.489  0.00  0.00    +0.090 A 
ATOM     22  C   LIG    1        1.771   2.988  -4.650  0.00  0.00    -0.020 A 
ATOM     23  C   LIG    1        2.694   1.968  -4.752  0.00  0.00    +0.110 A 
ATOM     24  C   LIG    1        2.886   1.094  -3.681  0.00  0.00    -0.060 A 
BRANCH  24  25
ATOM     25  C   LIG    1        3.843   0.033  -3.780  0.00  0.00    +0.260 C 
ATOM     26  N   LIG    1        4.602  -0.809  -3.859  0.00  0.00    -0.410 NA
ENDBRANCH  24  25
ENDBRANCH  18  19
ENDBRANCH   1  18
TORSDOF 8
