REMARK  Name = ZINCrH00000tj1ql.0
REMARK                            x       y       z     vdW  Elec       q    Type
REMARK                         _______ _______ _______ _____ _____    ______ ____
ROOT
ATOM      1  C   LIG    1        3.839  -1.467  -1.365  0.00  0.00    +0.520 C 
ATOM      2  N   LIG    1        4.841  -2.358  -1.500  0.00  0.00    -0.670 N 
ATOM      3  H   LIG    1        5.552  -2.392  -0.841  0.00  0.00    +0.410 HD
ATOM      4  O   LIG    1        3.003  -1.358  -2.237  0.00  0.00    -0.500 OA
ENDROOT
BRANCH   2   5
ATOM      5  C   LIG    1        4.856  -3.236  -2.592  0.00  0.00    +0.160 A 
ATOM      6  C   LIG    1        6.066  -3.634  -3.146  0.00  0.00    +0.010 A 
ATOM      7  C   LIG    1        6.088  -4.500  -4.221  0.00  0.00    +0.060 A 
ATOM      8  C   LIG    1        4.897  -4.973  -4.752  0.00  0.00    +0.070 A 
ATOM      9  N   LIG    1        4.597  -5.834  -5.807  0.00  0.00    -0.640 N 
ATOM     10  H   LIG    1        5.242  -6.273  -6.383  0.00  0.00    +0.440 HD
ATOM     11  C   LIG    1        3.258  -5.952  -5.890  0.00  0.00    +0.680 A 
ATOM     12  N   LIG    1        2.677  -5.204  -4.933  0.00  0.00    -0.640 N 
ATOM     13  H   LIG    1        1.723  -5.119  -4.781  0.00  0.00    +0.440 HD
ATOM     14  O   LIG    1        2.664  -6.632  -6.705  0.00  0.00    -0.550 OA
ATOM     15  C   LIG    1        3.679  -4.574  -4.198  0.00  0.00    +0.110 A 
ATOM     16  C   LIG    1        3.661  -3.710  -3.115  0.00  0.00    +0.030 A 
ENDBRANCH   2   5
BRANCH   1  17
ATOM     17  C   LIG    1        3.759  -0.605  -0.132  0.00  0.00    +0.040 C 
ATOM     18  C   LIG    1        3.630  -1.496   1.105  0.00  0.00    +0.080 C 
BRANCH  17  24
ATOM     19  C   LIG    1       -0.630   4.124  -0.474  0.00  0.00    +0.130 A 
ATOM     20  C   LIG    1       -0.802   2.769  -0.502  0.00  0.00    -0.030 A 
ATOM     21  C   LIG    1        0.316   1.925  -0.407  0.00  0.00    -0.010 A 
ATOM     22  C   LIG    1        0.178   0.527  -0.428  0.00  0.00    +0.010 A 
ATOM     23  C   LIG    1        1.285  -0.261  -0.339  0.00  0.00    +0.050 A 
ATOM     24  C   LIG    1        2.556   0.298  -0.228  0.00  0.00    -0.080 A 
ATOM     25  C   LIG    1        2.728   1.649  -0.205  0.00  0.00    +0.050 A 
ATOM     26  C   LIG    1        1.610   2.494  -0.294  0.00  0.00    -0.080 A 
ATOM     27  C   LIG    1        1.750   3.893  -0.274  0.00  0.00    +0.070 A 
ATOM     28  C   LIG    1        0.647   4.683  -0.363  0.00  0.00    -0.060 A 
BRANCH  19  30
ATOM     29  C   LIG    1       -1.470   6.347  -0.531  0.00  0.00    +0.250 C 
ATOM     30  O   LIG    1       -1.714   4.939  -0.561  0.00  0.00    -0.320 OA
ENDBRANCH  19  30
ENDBRANCH  17  24
ENDBRANCH   1  17
TORSDOF 4
