REMARK  Name = ZINCqH0000008lEu.0
REMARK                            x       y       z     vdW  Elec       q    Type
REMARK                         _______ _______ _______ _____ _____    ______ ____
ROOT
ATOM      1  C   LIG    1        1.695   3.213   0.002  0.00  0.00    +0.210 C 
ENDROOT
BRANCH   1   2
ATOM      2  C   LIG    1        1.255   1.772  -0.000  0.00  0.00    +0.200 A 
ATOM      3  N   LIG    1        2.049   0.738  -0.013  0.00  0.00    -0.480 NA
ATOM      4  C   LIG    1        1.307  -0.380  -0.013  0.00  0.00    +0.190 A 
ATOM      5  C   LIG    1        0.002  -0.004   0.002  0.00  0.00    -0.020 A 
ATOM      6  O   LIG    1       -0.016   1.347   0.009  0.00  0.00    -0.190 OA
BRANCH   5   7
ATOM      7  C   LIG    1       -1.173  -0.901   0.009  0.00  0.00    -0.060 A 
ATOM      8  C   LIG    1       -1.268  -1.938  -0.920  0.00  0.00    +0.120 A 
ATOM      9  C   LIG    1       -2.366  -2.772  -0.909  0.00  0.00    -0.010 A 
ATOM     10  C   LIG    1       -3.375  -2.584   0.022  0.00  0.00    +0.150 A 
ATOM     11  C   LIG    1       -3.288  -1.557   0.948  0.00  0.00    -0.030 A 
ATOM     12  F   LIG    1       -4.448  -3.405   0.027  0.00  0.00    -0.120 F 
ATOM     13  C   LIG    1       -2.190  -0.718   0.950  0.00  0.00    +0.160 A 
ATOM     14  F   LIG    1       -2.103   0.280   1.856  0.00  0.00    -0.120 F 
ENDBRANCH   5   7
ENDBRANCH   1   2
BRANCH   1  15
ATOM     15  C   LIG    1        1.831   3.708  -1.439  0.00  0.00    +0.060 C 
BRANCH  15  18
ATOM     16  N   LIG    1        2.457   5.799  -2.602  0.00  0.00    -0.720 N 
ATOM     17  H   LIG    1        2.308   5.339  -3.443  0.00  0.00    +0.400 HD
ATOM     18  C   LIG    1        2.271   5.149  -1.436  0.00  0.00    +0.520 C 
ATOM     19  O   LIG    1        2.458   5.724  -0.385  0.00  0.00    -0.540 OA
BRANCH  16  21
ATOM     20  C   LIG    1        1.661   8.107  -2.458  0.00  0.00    +0.020 C 
ATOM     21  C   LIG    1        2.885   7.200  -2.599  0.00  0.00    +0.310 C 
BRANCH  21  22
ATOM     22  C   LIG    1        3.595   7.511  -3.893  0.00  0.00    -0.180 A 
ATOM     23  C   LIG    1        4.698   8.273  -4.034  0.00  0.00    +0.160 A 
ATOM     24  N   LIG    1        5.024   8.309  -5.358  0.00  0.00    -0.450 N 
ATOM     25  C   LIG    1        4.119   7.562  -6.052  0.00  0.00    +0.150 A 
ATOM     26  C   LIG    1        6.160   9.029  -5.938  0.00  0.00    +0.300 C 
ATOM     27  C   LIG    1        3.230   7.054  -5.174  0.00  0.00    -0.060 A 
ENDBRANCH  21  22
ENDBRANCH  16  21
ENDBRANCH  15  18
ENDBRANCH   1  15
TORSDOF 6
