REMARK  Name = ZINCrg00000f5uQW.0
REMARK                            x       y       z     vdW  Elec       q    Type
REMARK                         _______ _______ _______ _____ _____    ______ ____
ROOT
ATOM      1  N   LIG    1        1.230   2.352  -4.586  0.00  0.00    -0.660 N 
ATOM      2  H   LIG    1        0.293   2.105  -4.633  0.00  0.00    +0.400 HD
ATOM      3  C   LIG    1        1.933   2.117  -3.460  0.00  0.00    +0.720 C 
ATOM      4  N   LIG    1        1.363   1.448  -2.438  0.00  0.00    -0.620 N 
ATOM      5  C   LIG    1        2.149   1.085  -1.251  0.00  0.00    +0.320 C 
ATOM      6  C   LIG    1        1.428   1.606  -0.004  0.00  0.00    +0.020 C 
ATOM      7  C   LIG    1       -0.008   1.077   0.008  0.00  0.00    +0.270 C 
ATOM      8  C   LIG    1       -0.751   1.589  -1.228  0.00  0.00    +0.020 C 
ATOM      9  C   LIG    1       -0.055   1.068  -2.490  0.00  0.00    +0.270 C 
ATOM     10  O   LIG    1        3.080   2.509  -3.366  0.00  0.00    -0.550 OA
ENDROOT
BRANCH   7  11
ATOM     11  N   LIG    1       -0.691   1.547   1.216  0.00  0.00    -0.550 N 
ATOM     12  C   LIG    1       -0.892   2.859   1.568  0.00  0.00    +0.490 A 
ATOM     13  N   LIG    1       -1.530   2.897   2.693  0.00  0.00    -0.280 NA
ATOM     14  N   LIG    1       -1.756   1.579   3.111  0.00  0.00    -0.550 N 
ATOM     15  H   LIG    1       -2.210   1.303   3.923  0.00  0.00    +0.460 HD
ATOM     16  C   LIG    1       -1.224   0.764   2.176  0.00  0.00    +0.650 A 
ATOM     17  O   LIG    1       -1.227  -0.454   2.194  0.00  0.00    -0.550 OA
ENDBRANCH   7  11
BRANCH   1  23
ATOM     18  C   LIG    1       -0.127   2.984  -7.231  0.00  0.00    +0.360 C 
ATOM     19  N   LIG    1        1.270   3.240  -6.870  0.00  0.00    -0.390 N 
ATOM     20  N   LIG    1        2.239   3.829  -7.691  0.00  0.00    -0.280 NA
ATOM     21  C   LIG    1        3.363   3.891  -7.024  0.00  0.00    +0.100 A 
ATOM     22  C   LIG    1        3.150   3.348  -5.754  0.00  0.00    -0.100 A 
ATOM     23  C   LIG    1        1.851   2.948  -5.684  0.00  0.00    +0.320 A 
BRANCH  21  24
ATOM     24  C   LIG    1        4.663   4.455  -7.536  0.00  0.00    +0.050 C 
ATOM     25  C   LIG    1        4.794   5.918  -7.099  0.00  0.00    +0.030 C 
ATOM     26  C   LIG    1        6.152   6.457  -7.557  0.00  0.00    -0.010 C 
ATOM     27  C   LIG    1        7.263   5.576  -6.980  0.00  0.00    +0.200 C 
ATOM     28  O   LIG    1        7.065   4.224  -7.400  0.00  0.00    -0.380 OA
ATOM     29  C   LIG    1        5.832   3.651  -6.961  0.00  0.00    +0.230 C 
ENDBRANCH  21  24
ENDBRANCH   1  23
TORSDOF 3
