REMARK  Name = ZINCvU00000007T1.1
REMARK                            x       y       z     vdW  Elec       q    Type
REMARK                         _______ _______ _______ _____ _____    ______ ____
ROOT
ATOM      1  C   LIG    1        2.340   1.518  -0.011  0.00  0.00    +0.200 C 
ATOM      2  C   LIG    1        2.530   0.185  -0.020  0.00  0.00    -0.120 C 
ATOM      3  C   LIG    1        1.294  -0.697  -0.014  0.00  0.00    +0.390 C 
ATOM      4  N   LIG    1        0.002  -0.004   0.002  0.00  0.00    -0.470 N 
ATOM      5  N   LIG    1       -1.330  -0.424   0.013  0.00  0.00    -0.490 N 
ATOM      6  H   LIG    1       -1.650  -1.340   0.011  0.00  0.00    +0.450 HD
ATOM      7  C   LIG    1       -2.091   0.705   0.026  0.00  0.00    +0.630 A 
ATOM      8  N   LIG    1       -1.314   1.753   0.029  0.00  0.00    -0.520 NA
ATOM      9  C   LIG    1       -0.017   1.376   0.010  0.00  0.00    +0.570 A 
ATOM     10  N   LIG    1        1.099   2.066   0.003  0.00  0.00    -0.580 NA
ENDROOT
BRANCH   1  14
ATOM     11  C   LIG    1        5.729   4.085  -0.027  0.00  0.00    +0.010 A 
ATOM     12  C   LIG    1        4.456   4.625  -0.013  0.00  0.00    -0.010 A 
ATOM     13  C   LIG    1        3.352   3.797  -0.008  0.00  0.00    +0.060 A 
ATOM     14  C   LIG    1        3.522   2.414  -0.017  0.00  0.00    -0.040 A 
ATOM     15  C   LIG    1        4.808   1.875  -0.025  0.00  0.00    +0.020 A 
ATOM     16  C   LIG    1        5.904   2.713  -0.036  0.00  0.00    -0.010 A 
ENDBRANCH   1  14
BRANCH   3  17
ATOM     17  C   LIG    1        1.362  -1.589   1.199  0.00  0.00    -0.240 A 
ATOM     18  C   LIG    1        0.618  -1.467   2.319  0.00  0.00    +0.240 A 
ATOM     19  N   LIG    1        0.977  -2.463   3.170  0.00  0.00    -0.310 N 
ATOM     20  N   LIG    1        1.983  -3.219   2.554  0.00  0.00    -0.260 NA
ATOM     21  C   LIG    1        2.219  -2.697   1.367  0.00  0.00    +0.170 A 
BRANCH  19  22
ATOM     22  C   LIG    1        0.439  -2.691   4.443  0.00  0.00    +0.160 A 
ATOM     23  C   LIG    1       -0.555  -1.857   4.938  0.00  0.00    -0.010 A 
ATOM     24  C   LIG    1       -1.087  -2.088   6.192  0.00  0.00    +0.050 A 
ATOM     25  C   LIG    1       -0.622  -3.141   6.958  0.00  0.00    +0.000 A 
ATOM     26  C   LIG    1        0.371  -3.970   6.470  0.00  0.00    +0.050 A 
ATOM     27  C   LIG    1        0.903  -3.748   5.215  0.00  0.00    +0.020 A 
ENDBRANCH  19  22
BRANCH  21  28
ATOM     28  C   LIG    1        3.208  -3.188   0.384  0.00  0.00    -0.130 A 
ATOM     29  C   LIG    1        4.406  -3.727   0.687  0.00  0.00    +0.050 A 
ATOM     30  C   LIG    1        5.157  -4.113  -0.404  0.00  0.00    +0.010 A 
ATOM     31  C   LIG    1        4.585  -3.895  -1.591  0.00  0.00    -0.030 A 
ATOM     32  S   LIG    1        3.001  -3.166  -1.363  0.00  0.00    +0.140 S 
ENDBRANCH  21  28
ENDBRANCH   3  17
TORSDOF 4
