REMARK  Name = ZINCqH0000008XkZ.0
REMARK                            x       y       z     vdW  Elec       q    Type
REMARK                         _______ _______ _______ _____ _____    ______ ____
ROOT
ATOM      1  N   LIG    1       -1.304   8.290  -2.264  0.00  0.00    -0.680 NA
ATOM      2  C   LIG    1       -1.229   9.620  -2.314  0.00  0.00    +0.480 A 
ATOM      3  C   LIG    1       -0.576  10.456  -1.385  0.00  0.00    -0.110 A 
ATOM      4  C   LIG    1       -0.727  11.736  -1.790  0.00  0.00    +0.350 A 
ATOM      5  N   LIG    1       -1.452  11.752  -2.944  0.00  0.00    -0.390 N 
ATOM      6  N   LIG    1       -1.767  10.430  -3.283  0.00  0.00    -0.480 N 
ATOM      7  H   LIG    1       -2.273  10.140  -4.059  0.00  0.00    +0.450 HD
ENDROOT
BRANCH   1   8
ATOM      8  C   LIG    1       -0.729   7.629  -1.265  0.00  0.00    +0.500 C 
ATOM      9  O   LIG    1       -0.133   8.237  -0.397  0.00  0.00    -0.560 OA
BRANCH   8  10
ATOM     10  C   LIG    1       -0.814   6.125  -1.208  0.00  0.00    +0.070 C 
BRANCH  10  12
ATOM     11  C   LIG    1       -0.791   6.113   1.290  0.00  0.00    +0.030 C 
ATOM     12  C   LIG    1       -0.074   5.619   0.032  0.00  0.00    +0.050 C 
BRANCH  12  13
ATOM     13  C   LIG    1       -0.054   4.112   0.024  0.00  0.00    -0.080 A 
ATOM     14  C   LIG    1        1.153   3.438   0.009  0.00  0.00    +0.040 A 
ATOM     15  C   LIG    1        1.173   2.056   0.002  0.00  0.00    -0.020 A 
ATOM     16  C   LIG    1       -0.016   1.347   0.009  0.00  0.00    +0.090 A 
ATOM     17  C   LIG    1       -1.224   2.023   0.019  0.00  0.00    -0.020 A 
ATOM     18  F   LIG    1        0.002  -0.004   0.002  0.00  0.00    -0.140 F 
ATOM     19  C   LIG    1       -1.242   3.405   0.032  0.00  0.00    +0.040 A 
ENDBRANCH  12  13
ENDBRANCH  10  12
ENDBRANCH   8  10
ENDBRANCH   1   8
BRANCH   5  20
ATOM     20  C   LIG    1       -1.832  12.947  -3.702  0.00  0.00    +0.350 C 
BRANCH  20  21
ATOM     21  C   LIG    1       -3.119  13.533  -3.118  0.00  0.00    +0.080 C 
BRANCH  21  22
ATOM     22  C   LIG    1       -3.510  14.762  -3.897  0.00  0.00    -0.050 A 
ATOM     23  C   LIG    1       -3.056  16.016  -3.520  0.00  0.00    -0.030 A 
ATOM     24  C   LIG    1       -3.432  17.120  -4.262  0.00  0.00    +0.260 A 
ATOM     25  N   LIG    1       -4.221  16.991  -5.311  0.00  0.00    -0.480 NA
ATOM     26  C   LIG    1       -4.676  15.815  -5.696  0.00  0.00    +0.260 A 
ATOM     27  C   LIG    1       -4.338  14.666  -5.005  0.00  0.00    -0.030 A 
ENDBRANCH  21  22
ENDBRANCH  20  21
ENDBRANCH   5  20
TORSDOF 7
