REMARK  Name = ZINCkj000005kukq.0
REMARK                            x       y       z     vdW  Elec       q    Type
REMARK                         _______ _______ _______ _____ _____    ______ ____
ROOT
ATOM      1  C   UNK A  0       -0.548   3.291   3.652  0.00  0.00    +0.230 C 
ENDROOT
BRANCH   1   8
ATOM      2  C   UNK A  0       -2.555   1.890   5.188  0.00  0.00    +0.100 C 
ATOM      3  C   UNK A  0       -2.099   3.261   5.617  0.00  0.00    -0.050 A 
ATOM      4  C   UNK A  0       -2.641   3.848   6.744  0.00  0.00    +0.040 A 
ATOM      5  C   UNK A  0       -2.223   5.105   7.138  0.00  0.00    +0.050 A 
ATOM      6  C   UNK A  0       -1.262   5.775   6.404  0.00  0.00    +0.030 A 
ATOM      7  C   UNK A  0       -0.717   5.186   5.278  0.00  0.00    -0.010 A 
ATOM      8  C   UNK A  0       -1.139   3.931   4.882  0.00  0.00    -0.140 A 
ENDBRANCH   1   8
BRANCH   1   9
ATOM      9  N   ALA A  1        0.787   3.852   3.402  0.00  0.00    -0.500 N 
ATOM     10  H1  ALA A  1        0.723   4.857   3.341  0.00  0.00    +0.420 HD
ATOM     11  H2  ALA A  1        1.148   3.485   2.534  0.00  0.00    +0.440 HD
BRANCH   9  12
ATOM     12  CA  ALA A  1        1.687   3.483   4.503  0.00  0.00    +0.170 C 
ATOM     13  CB  ALA A  1        1.881   1.966   4.516  0.00  0.00    +0.100 C 
BRANCH  12  14
ATOM     14  C   ALA A  1        3.040   4.169   4.306  0.00  0.00    +0.220 C 
BRANCH  14  15
ATOM     15  O   ALA A  1        3.663   3.664   3.123  0.00  0.00    -0.580 OA
ATOM     16  H   ALA A  1        4.527   4.055   2.935  0.00  0.00    +0.410 HD
ENDBRANCH  14  15
ENDBRANCH  12  14
ENDBRANCH   9  12
ENDBRANCH   1   9
BRANCH   1  17
ATOM     17  C   UNK A  0       -1.451   3.568   2.449  0.00  0.00    +0.230 C 
BRANCH  17  18
ATOM     18  N   UNK A  0       -0.817   3.048   1.230  0.00  0.00    -0.550 NA
ATOM     19  C   UNK A  0       -0.731   1.580   1.266  0.00  0.00    +0.140 C 
ATOM     20  C   UNK A  0       -0.013   1.086   0.008  0.00  0.00    +0.230 C 
ATOM     21  O   UNK A  0       -0.706   1.560  -1.149  0.00  0.00    -0.380 OA
ATOM     22  C   UNK A  0       -0.807   2.985  -1.216  0.00  0.00    +0.230 C 
ATOM     23  C   UNK A  0       -1.534   3.499   0.029  0.00  0.00    +0.180 C 
ENDBRANCH  17  18
ENDBRANCH   1  17
TORSDOF 7
