REMARK  Name = ZINCrH000004sGMa.0
REMARK                            x       y       z     vdW  Elec       q    Type
REMARK                         _______ _______ _______ _____ _____    ______ ____
ROOT
ATOM      1  C   LIG    1       -2.120   2.087  -2.718  0.00  0.00    +0.600 C 
ATOM      2  N   LIG    1       -1.592   1.542  -1.603  0.00  0.00    -0.720 N 
ATOM      3  H   LIG    1       -1.069   0.728  -1.662  0.00  0.00    +0.410 HD
ATOM      4  O   LIG    1       -2.775   3.108  -2.644  0.00  0.00    -0.530 OA
ENDROOT
BRANCH   1  11
ATOM      5  C   LIG    1       -3.976  -0.129  -4.029  0.00  0.00    +0.160 C 
ATOM      6  C   LIG    1       -2.720   0.456  -4.622  0.00  0.00    +0.110 A 
ATOM      7  N   LIG    1       -2.199   0.143  -5.776  0.00  0.00    -0.290 NA
ATOM      8  N   LIG    1       -1.035   0.896  -5.967  0.00  0.00    -0.350 N 
ATOM      9  C   LIG    1       -0.859   1.688  -4.897  0.00  0.00    +0.130 A 
ATOM     10  C   LIG    1        0.269   2.663  -4.685  0.00  0.00    +0.150 C 
ATOM     11  C   LIG    1       -1.903   1.443  -4.026  0.00  0.00    -0.290 A 
BRANCH   8  12
ATOM     12  C   LIG    1       -0.157   0.832  -7.138  0.00  0.00    +0.180 C 
ATOM     13  C   LIG    1       -0.220   2.160  -7.896  0.00  0.00    +0.050 C 
ATOM     14  C   LIG    1       -0.614  -0.302  -8.057  0.00  0.00    +0.070 C 
ATOM     15  C   LIG    1        1.281   0.572  -6.683  0.00  0.00    +0.050 C 
ENDBRANCH   8  12
ENDBRANCH   1  11
BRANCH   2  16
ATOM     16  C   LIG    1       -1.808   2.182  -0.303  0.00  0.00    +0.270 C 
BRANCH  16  17
ATOM     17  C   LIG    1       -0.982   1.460   0.763  0.00  0.00    +0.050 C 
BRANCH  17  18
ATOM     18  C   LIG    1       -1.339   1.998   2.125  0.00  0.00    -0.070 A 
ATOM     19  C   LIG    1       -1.398   3.363   2.335  0.00  0.00    +0.010 A 
ATOM     20  C   LIG    1       -1.730   3.857   3.583  0.00  0.00    +0.000 A 
ATOM     21  C   LIG    1       -1.995   2.985   4.623  0.00  0.00    +0.000 A 
ATOM     22  C   LIG    1       -1.931   1.620   4.414  0.00  0.00    +0.000 A 
ATOM     23  C   LIG    1       -1.603   1.127   3.165  0.00  0.00    +0.020 A 
ENDBRANCH  17  18
BRANCH  17  24
ATOM     24  C   LIG    1        0.507   1.692   0.498  0.00  0.00    -0.050 C 
ATOM     25  C   LIG    1        0.903   1.016  -0.816  0.00  0.00    +0.030 C 
ATOM     26  C   LIG    1        0.780   3.194   0.401  0.00  0.00    +0.040 C 
BRANCH  24  27
ATOM     27  C   LIG    1        1.328   1.098   1.645  0.00  0.00    +0.180 C 
BRANCH  27  28
ATOM     28  O   LIG    1        0.995  -0.282   1.804  0.00  0.00    -0.570 OA
ATOM     29  H   LIG    1        1.479  -0.725   2.515  0.00  0.00    +0.380 HD
ENDBRANCH  27  28
ENDBRANCH  24  27
ENDBRANCH  17  24
ENDBRANCH  16  17
ENDBRANCH   2  16
TORSDOF 8
