REMARK  Name = ZINCkj00000a7RZi.0
REMARK                            x       y       z     vdW  Elec       q    Type
REMARK                         _______ _______ _______ _____ _____    ______ ____
ROOT
ATOM      1  O   LIG    1       -3.387   2.780   0.161  0.00  0.00    -0.500 OA
ATOM      2  C   LIG    1       -2.507   1.948   0.049  0.00  0.00    +0.580 C 
ATOM      3  N   LIG    1       -2.823   0.642  -0.055  0.00  0.00    -0.740 N 
ATOM      4  H   LIG    1       -2.121  -0.027  -0.069  0.00  0.00    +0.390 HD
ENDROOT
BRANCH   3   5
ATOM      5  C   LIG    1       -4.227   0.234  -0.147  0.00  0.00    +0.170 C 
ATOM      6  C   LIG    1       -4.858   0.832  -1.377  0.00  0.00    +0.070 C 
ATOM      7  C   LIG    1       -4.425  -0.119  -2.533  0.00  0.00    +0.060 C 
ATOM      8  C   LIG    1       -3.706  -1.325  -1.848  0.00  0.00    +0.070 C 
ATOM      9  C   LIG    1       -4.858   0.241   1.224  0.00  0.00    +0.090 C 
ATOM     10  C   LIG    1       -4.434  -1.113   1.829  0.00  0.00    +0.290 C 
ATOM     11  N   LIG    1       -3.729  -1.858   0.732  0.00  0.00    -0.500 N 
ATOM     12  H   LIG    1       -2.736  -1.678   0.756  0.00  0.00    +0.420 HD
ATOM     13  H   LIG    1       -3.913  -2.848   0.798  0.00  0.00    +0.440 HD
ATOM     14  C   LIG    1       -4.319  -1.307  -0.467  0.00  0.00    +0.140 C 
ENDBRANCH   3   5
BRANCH   2  15
ATOM     15  C   LIG    1       -1.095   2.368   0.027  0.00  0.00    -0.150 A 
ATOM     16  C   LIG    1       -0.072   1.429   0.005  0.00  0.00    +0.120 A 
ATOM     17  C   LIG    1        1.255   1.867  -0.022  0.00  0.00    -0.040 A 
ATOM     18  C   LIG    1        1.559   3.183  -0.021  0.00  0.00    +0.350 A 
ATOM     19  N   LIG    1        0.592   4.143   0.006  0.00  0.00    -0.290 N 
ATOM     20  N   LIG    1        0.648   5.542   0.012  0.00  0.00    -0.300 NA
ATOM     21  C   LIG    1       -0.577   6.017   0.042  0.00  0.00    +0.290 A 
ATOM     22  C   LIG    1       -1.471   4.954   0.056  0.00  0.00    -0.080 A 
ATOM     23  C   LIG    1       -0.732   3.787   0.033  0.00  0.00    +0.120 A 
ENDBRANCH   2  15
TORSDOF 2
