REMARK  Name = ZINCvU00000005Ax.0
REMARK                            x       y       z     vdW  Elec       q    Type
REMARK                         _______ _______ _______ _____ _____    ______ ____
ROOT
ATOM      1  C   LIG    1        1.213   0.053   1.335  0.00  0.00    +0.150 A 
ATOM      2  N   LIG    1        1.942   0.984   1.907  0.00  0.00    -0.280 NA
ATOM      3  N   LIG    1        2.578   0.489   2.908  0.00  0.00    -0.270 NA
ATOM      4  C   LIG    1        2.298  -0.778   3.036  0.00  0.00    +0.210 A 
ATOM      5  N   LIG    1        1.413  -1.101   2.042  0.00  0.00    -0.420 N 
ENDROOT
BRANCH   5   6
ATOM      6  C   LIG    1        0.835  -2.356   1.797  0.00  0.00    +0.110 A 
ATOM      7  C   LIG    1       -0.065  -2.896   2.705  0.00  0.00    +0.050 A 
ATOM      8  C   LIG    1       -0.637  -4.129   2.459  0.00  0.00    +0.050 A 
ATOM      9  C   LIG    1       -0.305  -4.830   1.314  0.00  0.00    -0.020 A 
ATOM     10  C   LIG    1        0.596  -4.297   0.409  0.00  0.00    +0.060 A 
ATOM     11 CL   LIG    1       -1.020  -6.383   1.011  0.00  0.00    -0.050 Cl
ATOM     12  C   LIG    1        1.167  -3.062   0.648  0.00  0.00    +0.060 A 
ENDBRANCH   5   6
BRANCH   1  13
ATOM     13  S   LIG    1        0.170   0.255  -0.070  0.00  0.00    +0.090 S 
BRANCH  13  15
ATOM     14  C   LIG    1       -0.110   2.843   0.757  0.00  0.00    +0.080 C 
ATOM     15  C   LIG    1        0.434   2.013  -0.408  0.00  0.00    +0.020 C 
BRANCH  15  16
ATOM     16  C   LIG    1       -0.286   2.394  -1.676  0.00  0.00    +0.540 C 
ATOM     17  N   LIG    1        0.138   3.450  -2.400  0.00  0.00    -0.660 N 
ATOM     18  H   LIG    1        0.862   4.005  -2.070  0.00  0.00    +0.410 HD
ATOM     19  O   LIG    1       -1.246   1.752  -2.045  0.00  0.00    -0.500 OA
BRANCH  17  20
ATOM     20  C   LIG    1       -0.468   3.745  -3.626  0.00  0.00    +0.140 A 
ATOM     21  C   LIG    1        0.291   4.254  -4.672  0.00  0.00    -0.010 A 
ATOM     22  C   LIG    1       -0.308   4.540  -5.883  0.00  0.00    +0.030 A 
ATOM     23  C   LIG    1       -1.665   4.330  -6.051  0.00  0.00    -0.010 A 
ATOM     24  C   LIG    1       -2.424   3.828  -5.010  0.00  0.00    +0.030 A 
ATOM     25  C   LIG    1       -1.830   3.535  -3.798  0.00  0.00    +0.020 A 
ENDBRANCH  17  20
ENDBRANCH  15  16
ENDBRANCH  13  15
ENDBRANCH   1  13
BRANCH   4  26
ATOM     26  C   LIG    1        2.842  -1.711   4.086  0.00  0.00    +0.210 C 
BRANCH  26  27
ATOM     27  C   LIG    1        4.176  -2.250   3.638  0.00  0.00    -0.090 A 
ATOM     28  C   LIG    1        4.244  -3.461   2.974  0.00  0.00    +0.010 A 
ATOM     29  C   LIG    1        5.468  -3.953   2.558  0.00  0.00    +0.000 A 
ATOM     30  C   LIG    1        6.623  -3.239   2.816  0.00  0.00    +0.010 A 
ATOM     31  C   LIG    1        6.555  -2.031   3.485  0.00  0.00    +0.000 A 
ATOM     32  C   LIG    1        5.331  -1.536   3.896  0.00  0.00    +0.030 A 
ENDBRANCH  26  27
ENDBRANCH   4  26
TORSDOF 7
