REMARK  Name = ZINC9u0000000C5E.0
REMARK                            x       y       z     vdW  Elec       q    Type
REMARK                         _______ _______ _______ _____ _____    ______ ____
ROOT
ATOM      1  C   LIG    1        0.016  -2.821  -2.516  0.00  0.00    +0.100 C 
ATOM      2  C   LIG    1        0.019  -2.073  -1.208  0.00  0.00    -0.040 A 
ATOM      3  C   LIG    1       -0.006  -0.692  -1.203  0.00  0.00    +0.000 A 
ATOM      4  C   LIG    1        0.002  -0.004   0.002  0.00  0.00    +0.130 A 
ATOM      5  C   LIG    1        0.023  -0.705   1.199  0.00  0.00    -0.010 A 
ATOM      6  C   LIG    1        0.042  -2.086   1.189  0.00  0.00    +0.070 A 
ATOM      7  C   LIG    1        0.040  -2.771  -0.013  0.00  0.00    -0.110 A 
ATOM      8 BR   LIG    1        0.066  -4.661  -0.024  0.00  0.00    -0.040 Br
ENDROOT
BRANCH   4   9
ATOM      9  O   LIG    1       -0.016   1.355   0.009  0.00  0.00    -0.500 OA
ATOM     10  H   LIG    1        0.862   1.760   0.003  0.00  0.00    +0.400 HD
ENDBRANCH   4   9
TORSDOF 1
