REMARK  Name = ZINCrD00000F5LJ0.0
REMARK                            x       y       z     vdW  Elec       q    Type
REMARK                         _______ _______ _______ _____ _____    ______ ____
ROOT
ATOM      1  C   LIG    1       -1.855   1.083  -2.141  0.00  0.00    +0.270 C 
ENDROOT
BRANCH   1   2
ATOM      2  C   LIG    1       -3.056   1.945  -2.432  0.00  0.00    +0.510 C 
ATOM      3  N   LIG    1       -4.114   1.428  -3.088  0.00  0.00    -0.720 N 
ATOM      4  H   LIG    1       -4.102   0.501  -3.372  0.00  0.00    +0.400 HD
ATOM      5  O   LIG    1       -3.071   3.105  -2.076  0.00  0.00    -0.510 OA
BRANCH   3   6
ATOM      6  C   LIG    1       -5.281   2.267  -3.371  0.00  0.00    +0.290 C 
ATOM      7  C   LIG    1       -6.002   1.726  -4.604  0.00  0.00    +0.020 C 
ATOM      8  C   LIG    1       -7.330   2.478  -4.756  0.00  0.00    +0.030 C 
ATOM      9  C   LIG    1       -8.261   2.045  -3.625  0.00  0.00    +0.080 C 
ATOM     10  C   LIG    1       -7.567   2.166  -2.293  0.00  0.00    -0.070 A 
ATOM     11  C   LIG    1       -8.358   2.174  -1.151  0.00  0.00    -0.010 A 
ATOM     12  C   LIG    1       -7.782   2.270   0.099  0.00  0.00    +0.010 A 
ATOM     13  C   LIG    1       -6.408   2.360   0.217  0.00  0.00    -0.010 A 
ATOM     14  C   LIG    1       -5.621   2.356  -0.917  0.00  0.00    +0.020 A 
ATOM     15  C   LIG    1       -6.199   2.260  -2.176  0.00  0.00    -0.100 A 
ENDBRANCH   3   6
ENDBRANCH   1   2
BRANCH   1  16
ATOM     16  O   LIG    1       -0.858   1.865  -1.431  0.00  0.00    -0.330 OA
BRANCH  16  17
ATOM     17  C   LIG    1        0.285   1.236  -1.093  0.00  0.00    +0.520 C 
ATOM     18  O   LIG    1        0.446   0.067  -1.384  0.00  0.00    -0.480 OA
BRANCH  17  19
ATOM     19  C   LIG    1        1.343   1.968  -0.377  0.00  0.00    -0.100 C 
ATOM     20  C   LIG    1        2.449   1.296   0.089  0.00  0.00    +0.250 C 
BRANCH  20  21
ATOM     21  C   LIG    1        2.474  -0.171   0.082  0.00  0.00    -0.110 A 
ATOM     22  C   LIG    1        1.354  -0.897   0.508  0.00  0.00    +0.080 A 
ATOM     23  C   LIG    1        1.385  -2.275   0.494  0.00  0.00    +0.000 A 
ATOM     24  C   LIG    1        2.521  -2.942   0.068  0.00  0.00    +0.030 A 
ATOM     25  C   LIG    1        3.634  -2.232  -0.351  0.00  0.00    +0.000 A 
ATOM     26  C   LIG    1        3.619  -0.854  -0.347  0.00  0.00    +0.050 A 
ENDBRANCH  20  21
BRANCH  19  28
ATOM     27  N   LIG    1        1.123   4.498   0.000  0.00  0.00    -0.390 NA
ATOM     28  C   LIG    1        1.220   3.379  -0.167  0.00  0.00    +0.250 C 
ENDBRANCH  19  28
ENDBRANCH  17  19
ENDBRANCH  16  17
ENDBRANCH   1  16
TORSDOF 7
