REMARK  Name = ZINCpk00000l7r4e.0
REMARK                            x       y       z     vdW  Elec       q    Type
REMARK                         _______ _______ _______ _____ _____    ______ ____
ROOT
ATOM      1  O   LIG    1       -2.049  -0.169   1.329  0.00  0.00    -0.520 OA
ATOM      2  C   LIG    1       -1.548   0.768   1.920  0.00  0.00    +0.570 C 
ATOM      3  N   LIG    1       -0.457   1.377   1.416  0.00  0.00    -0.590 N 
ATOM      4  C   LIG    1        0.044   2.585   1.974  0.00  0.00    +0.250 C 
ATOM      5  C   LIG    1       -0.660   3.882   1.457  0.00  0.00    +0.010 C 
ATOM      6  C   LIG    1       -0.955   3.675  -0.065  0.00  0.00    +0.280 C 
ATOM      7  N   LIG    1        0.061   2.982  -0.776  0.00  0.00    -0.600 N 
ATOM      8  C   LIG    1       -0.122   1.520  -0.963  0.00  0.00    +0.270 C 
ATOM      9  C   LIG    1        1.143   3.623  -1.260  0.00  0.00    +0.520 C 
ATOM     10  O   LIG    1        1.266   4.818  -1.092  0.00  0.00    -0.510 OA
ATOM     11  C   LIG    1        0.277   0.817   0.252  0.00  0.00    +0.290 C 
ENDROOT
BRANCH   2  12
ATOM     12  C   LIG    1       -2.135   1.238   3.193  0.00  0.00    -0.130 A 
ATOM     13  C   LIG    1       -1.905   2.543   3.631  0.00  0.00    +0.110 A 
ATOM     14  C   LIG    1       -2.456   2.975   4.820  0.00  0.00    +0.040 A 
ATOM     15  C   LIG    1       -3.235   2.119   5.577  0.00  0.00    +0.130 A 
ATOM     16  C   LIG    1       -3.468   0.824   5.147  0.00  0.00    -0.050 A 
ATOM     17  C   LIG    1       -2.928   0.381   3.958  0.00  0.00    +0.160 A 
BRANCH  16  18
ATOM     18  N   LIG    1       -4.304  -0.086   5.963  0.00  0.00    +0.030 N 
ATOM     19  O   LIG    1       -4.510  -1.225   5.586  0.00  0.00    -0.150 OA
ATOM     20  O   LIG    1       -4.786   0.306   7.011  0.00  0.00    -0.150 OA
ENDBRANCH  16  18
ENDBRANCH   2  12
BRANCH   9  21
ATOM     21  C   LIG    1        2.202   2.855  -2.009  0.00  0.00    +0.160 C 
ATOM     22  C   LIG    1        2.922   1.869  -1.063  0.00  0.00    +0.020 C 
ATOM     23  C   LIG    1        4.393   1.903  -1.535  0.00  0.00    +0.010 C 
ATOM     24  C   LIG    1        4.388   2.906  -2.710  0.00  0.00    +0.210 C 
ATOM     25  O   LIG    1        3.237   3.749  -2.473  0.00  0.00    -0.340 OA
ENDBRANCH   9  21
TORSDOF 3
