REMARK  Name = ZINCvU00000004WJ.0
REMARK                            x       y       z     vdW  Elec       q    Type
REMARK                         _______ _______ _______ _____ _____    ______ ____
ROOT
ATOM      1  C   LIG    1        4.272  -1.632   1.288  0.00  0.00    +0.200 A 
ATOM      2  N   LIG    1        5.240  -2.465   0.976  0.00  0.00    -0.490 NA
ATOM      3  C   LIG    1        4.851  -3.246  -0.040  0.00  0.00    +0.200 A 
ATOM      4  C   LIG    1        3.583  -2.897  -0.383  0.00  0.00    +0.020 A 
ATOM      5  N   LIG    1        3.215  -1.863   0.462  0.00  0.00    -0.430 N 
ENDROOT
BRANCH   4   6
ATOM      6  C   LIG    1        2.759  -3.500  -1.450  0.00  0.00    -0.010 A 
ATOM      7  C   LIG    1        3.056  -4.779  -1.927  0.00  0.00    +0.030 A 
ATOM      8  C   LIG    1        2.280  -5.338  -2.920  0.00  0.00    +0.020 A 
ATOM      9  C   LIG    1        1.215  -4.632  -3.451  0.00  0.00    +0.010 A 
ATOM     10  C   LIG    1        0.919  -3.362  -2.988  0.00  0.00    +0.020 A 
ATOM     11  C   LIG    1        1.684  -2.793  -1.991  0.00  0.00    -0.010 A 
ENDBRANCH   4   6
BRANCH   1  12
ATOM     12  S   LIG    1        4.333  -0.418   2.564  0.00  0.00    +0.060 S 
BRANCH  12  13
ATOM     13  C   LIG    1        6.003  -0.712   3.197  0.00  0.00    +0.260 C 
BRANCH  13  17
ATOM     14  C   LIG    1        6.460   1.151   6.237  0.00  0.00    +0.210 A 
ATOM     15  N   LIG    1        6.918   1.967   5.324  0.00  0.00    -0.360 NA
ATOM     16  O   LIG    1        6.825   1.460   4.227  0.00  0.00    +0.100 OA
ATOM     17  C   LIG    1        6.285   0.241   4.330  0.00  0.00    +0.190 A 
ATOM     18  N   LIG    1        6.043   0.033   5.601  0.00  0.00    -0.430 NA
BRANCH  14  25
ATOM     19 CL   LIG    1        5.290  -1.064   7.920  0.00  0.00    -0.030 Cl
ATOM     20  C   LIG    1        5.877   0.440   8.557  0.00  0.00    -0.000 A 
ATOM     21  C   LIG    1        5.832   0.681   9.916  0.00  0.00    +0.020 A 
ATOM     22  C   LIG    1        6.293   1.882  10.424  0.00  0.00    +0.050 A 
ATOM     23  C   LIG    1        6.809   2.845   9.576  0.00  0.00    +0.020 A 
ATOM     24  C   LIG    1        6.865   2.613   8.216  0.00  0.00    +0.070 A 
ATOM     25  C   LIG    1        6.402   1.406   7.698  0.00  0.00    -0.020 A 
ENDBRANCH  14  25
ENDBRANCH  13  17
ENDBRANCH  12  13
ENDBRANCH   1  12
BRANCH   5  26
ATOM     26  C   LIG    1        1.932  -1.156   0.468  0.00  0.00    +0.330 C 
BRANCH  26  27
ATOM     27  C   LIG    1        2.039   0.103  -0.394  0.00  0.00    +0.130 C 
ATOM     28  C   LIG    1        0.662   0.794  -0.509  0.00  0.00    +0.010 C 
ATOM     29  C   LIG    1        0.996   2.303  -0.483  0.00  0.00    +0.010 C 
ATOM     30  C   LIG    1        2.535   2.344  -0.356  0.00  0.00    +0.200 C 
ATOM     31  O   LIG    1        2.890   1.079   0.244  0.00  0.00    -0.350 OA
ENDBRANCH  26  27
ENDBRANCH   5  26
TORSDOF 7
