REMARK  Name = ZINCrD000000CeQr.1
REMARK                            x       y       z     vdW  Elec       q    Type
REMARK                         _______ _______ _______ _____ _____    ______ ____
ROOT
ATOM      1  O   LIG    1       -0.534  -0.613  -0.899  0.00  0.00    -0.540 OA
ATOM      2  C   LIG    1        0.002  -0.004   0.002  0.00  0.00    +0.480 C 
ATOM      3  N   LIG    1        0.617  -0.675   0.996  0.00  0.00    -0.690 NA
ENDROOT
BRANCH   2   4
ATOM      4  C   LIG    1       -0.018   1.503   0.010  0.00  0.00    +0.130 C 
ATOM      5  C   LIG    1       -0.788   2.024   1.243  0.00  0.00    +0.040 C 
ATOM      6  C   LIG    1       -1.554   3.266   0.742  0.00  0.00    +0.010 C 
ATOM      7  C   LIG    1       -1.182   3.390  -0.752  0.00  0.00    +0.150 C 
ATOM      8  N   LIG    1       -0.781   2.017  -1.156  0.00  0.00    -0.480 NA
BRANCH   8   9
ATOM      9  C   LIG    1        0.056   2.044  -2.363  0.00  0.00    +0.220 C 
BRANCH   9  10
ATOM     10  C   LIG    1       -0.805   2.332  -3.565  0.00  0.00    -0.080 A 
ATOM     11  C   LIG    1       -1.377   1.290  -4.272  0.00  0.00    +0.080 A 
ATOM     12  C   LIG    1       -2.171   1.554  -5.371  0.00  0.00    -0.030 A 
ATOM     13  C   LIG    1       -2.386   2.861  -5.772  0.00  0.00    +0.090 A 
ATOM     14  C   LIG    1       -1.809   3.904  -5.067  0.00  0.00    -0.030 A 
ATOM     15  F   LIG    1       -3.158   3.120  -6.850  0.00  0.00    -0.140 F 
ATOM     16  C   LIG    1       -1.019   3.638  -3.965  0.00  0.00    +0.040 A 
ENDBRANCH   9  10
ENDBRANCH   8   9
ENDBRANCH   2   4
BRANCH   3  17
ATOM     17  C   LIG    1        0.635  -2.065   0.989  0.00  0.00    +0.360 A 
ATOM     18  N   LIG    1        0.090  -2.810   0.079  0.00  0.00    -0.570 NA
ATOM     19  C   LIG    1        0.208  -4.116   0.226  0.00  0.00    +0.260 A 
ATOM     20  C   LIG    1        0.876  -4.493   1.318  0.00  0.00    -0.370 A 
ATOM     21  S   LIG    1        1.376  -3.041   2.181  0.00  0.00    -0.000 S 
BRANCH  20  22
ATOM     22  C   LIG    1        1.156  -5.913   1.739  0.00  0.00    +0.110 C 
ATOM     23  C   LIG    1        0.535  -6.171   3.115  0.00  0.00    +0.060 C 
ATOM     24  C   LIG    1        0.891  -7.587   3.571  0.00  0.00    +0.250 C 
ATOM     25  N   LIG    1        2.350  -7.728   3.655  0.00  0.00    -0.500 N 
ATOM     26  C   LIG    1        2.944  -7.553   2.325  0.00  0.00    +0.250 C 
ATOM     27  H   LIG    1        2.718  -7.028   4.282  0.00  0.00    +0.430 HD
ATOM     28  H   LIG    1        2.579  -8.645   4.007  0.00  0.00    +0.430 HD
ATOM     29  C   LIG    1        2.669  -6.135   1.821  0.00  0.00    +0.060 C 
ENDBRANCH  20  22
ENDBRANCH   3  17
TORSDOF 5
