REMARK  Name = ZINCqH0000038igm.1
REMARK                            x       y       z     vdW  Elec       q    Type
REMARK                         _______ _______ _______ _____ _____    ______ ____
ROOT
ATOM      1  C   LIG    1        1.354   5.358  -3.665  0.00  0.00    +0.210 C 
ATOM      2  C   LIG    1        1.572   5.840  -5.122  0.00  0.00    +0.060 C 
ATOM      3  C   LIG    1        0.153   5.754  -5.730  0.00  0.00    +0.020 C 
ATOM      4  C   LIG    1       -0.804   5.797  -4.525  0.00  0.00    +0.180 C 
ATOM      5  N   LIG    1        0.031   5.932  -3.312  0.00  0.00    -0.470 NA
ENDROOT
BRANCH   1  12
ATOM      6  C   LIG    1        7.311   6.913   0.517  0.00  0.00    +0.100 C 
ATOM      7  C   LIG    1        5.970   7.013  -0.164  0.00  0.00    -0.070 A 
ATOM      8  C   LIG    1        5.174   8.130   0.044  0.00  0.00    +0.000 A 
ATOM      9  C   LIG    1        3.955   8.240  -0.565  0.00  0.00    +0.070 A 
ATOM     10  C   LIG    1        3.502   7.221  -1.405  0.00  0.00    +0.040 A 
ATOM     11  N   LIG    1        2.369   7.041  -2.133  0.00  0.00    -0.450 NA
ATOM     12  C   LIG    1        2.429   5.902  -2.759  0.00  0.00    +0.290 A 
ATOM     13  N   LIG    1        3.599   5.270  -2.472  0.00  0.00    -0.600 N 
ATOM     14  H   LIG    1        3.884   4.407  -2.809  0.00  0.00    +0.420 HD
ATOM     15  C   LIG    1        4.308   6.089  -1.616  0.00  0.00    +0.050 A 
ATOM     16  C   LIG    1        5.543   5.995  -0.990  0.00  0.00    +0.000 A 
ENDBRANCH   1  12
BRANCH   5  17
ATOM     17  C   LIG    1       -0.568   5.214  -2.178  0.00  0.00    +0.190 C 
BRANCH  17  18
ATOM     18  C   LIG    1       -1.871   5.870  -1.801  0.00  0.00    +0.520 C 
ATOM     19  N   LIG    1       -2.554   5.439  -0.721  0.00  0.00    -0.610 N 
ATOM     20  C   LIG    1       -3.885   5.980  -0.413  0.00  0.00    +0.220 C 
ATOM     21  C   LIG    1       -4.868   4.814  -0.262  0.00  0.00    +0.010 C 
ATOM     22  C   LIG    1       -4.331   3.832   0.782  0.00  0.00    +0.020 C 
ATOM     23  C   LIG    1       -2.985   3.273   0.315  0.00  0.00    +0.020 C 
ATOM     24  C   LIG    1       -4.345   6.892  -1.552  0.00  0.00    +0.040 C 
ATOM     25  C   LIG    1       -1.982   4.421   0.170  0.00  0.00    +0.220 C 
ATOM     26  C   LIG    1       -1.706   5.037   1.542  0.00  0.00    +0.020 C 
ATOM     27  O   LIG    1       -2.306   6.784  -2.468  0.00  0.00    -0.510 OA
ENDBRANCH  17  18
ENDBRANCH   5  17
TORSDOF 3
