REMARK  Name = ZINCqH0000038igm.0
REMARK                            x       y       z     vdW  Elec       q    Type
REMARK                         _______ _______ _______ _____ _____    ______ ____
ROOT
ATOM      1  C   LIG    1       -2.416   0.913   0.863  0.00  0.00    +0.260 C 
ATOM      2  C   LIG    1       -2.812   0.598  -0.595  0.00  0.00    +0.040 C 
ATOM      3  C   LIG    1       -4.279   1.095  -0.674  0.00  0.00    +0.030 C 
ATOM      4  C   LIG    1       -4.236   2.344   0.241  0.00  0.00    +0.200 C 
ATOM      5  N   LIG    1       -3.320   1.975   1.341  0.00  0.00    -0.490 NA
ENDROOT
BRANCH   1  13
ATOM      6  C   LIG    1        4.150   4.213  -0.046  0.00  0.00    +0.100 C 
ATOM      7  C   LIG    1        3.080   3.298   0.490  0.00  0.00    -0.090 A 
ATOM      8  C   LIG    1        3.385   2.408   1.510  0.00  0.00    +0.030 A 
ATOM      9  C   LIG    1        2.418   1.563   2.012  0.00  0.00    +0.010 A 
ATOM     10  C   LIG    1        1.131   1.605   1.493  0.00  0.00    +0.040 A 
ATOM     11  N   LIG    1       -0.036   0.917   1.760  0.00  0.00    -0.590 N 
ATOM     12  H   LIG    1       -0.154   0.221   2.426  0.00  0.00    +0.420 HD
ATOM     13  C   LIG    1       -0.988   1.394   0.914  0.00  0.00    +0.270 A 
ATOM     14  N   LIG    1       -0.489   2.327   0.158  0.00  0.00    -0.480 NA
ATOM     15  C   LIG    1        0.823   2.507   0.461  0.00  0.00    +0.050 A 
ATOM     16  C   LIG    1        1.819   3.353  -0.033  0.00  0.00    +0.060 A 
ENDBRANCH   1  13
BRANCH   5  17
ATOM     17  C   LIG    1       -2.560   3.142   1.808  0.00  0.00    +0.210 C 
BRANCH  17  18
ATOM     18  C   LIG    1       -3.517   4.233   2.218  0.00  0.00    +0.520 C 
ATOM     19  N   LIG    1       -3.045   5.446   2.567  0.00  0.00    -0.600 N 
ATOM     20  C   LIG    1       -3.968   6.553   2.857  0.00  0.00    +0.210 C 
ATOM     21  C   LIG    1       -3.626   7.124   4.241  0.00  0.00    +0.010 C 
ATOM     22  C   LIG    1       -2.147   7.514   4.275  0.00  0.00    +0.020 C 
ATOM     23  C   LIG    1       -1.284   6.272   4.041  0.00  0.00    +0.020 C 
ATOM     24  C   LIG    1       -5.407   6.034   2.854  0.00  0.00    +0.040 C 
ATOM     25  C   LIG    1       -1.599   5.689   2.659  0.00  0.00    +0.230 C 
ATOM     26  C   LIG    1       -1.176   6.683   1.575  0.00  0.00    +0.030 C 
ATOM     27  O   LIG    1       -4.710   4.018   2.234  0.00  0.00    -0.520 OA
ENDBRANCH  17  18
ENDBRANCH   5  17
TORSDOF 3
