REMARK  Name = ZINCrD00000hQ5H8.1
REMARK                            x       y       z     vdW  Elec       q    Type
REMARK                         _______ _______ _______ _____ _____    ______ ____
ROOT
ATOM      1  C   LIG    1        2.780   4.006   0.295  0.00  0.00    +0.230 C 
ENDROOT
BRANCH   1   2
ATOM      2  O   LIG    1        3.156   3.490   1.573  0.00  0.00    -0.540 OA
ATOM      3  H   LIG    1        2.563   3.748   2.292  0.00  0.00    +0.370 HD
ENDBRANCH   1   2
BRANCH   1   4
ATOM      4  C   LIG    1        1.383   3.500  -0.069  0.00  0.00    +0.160 C 
BRANCH   4   5
ATOM      5  N   LIG    1        1.394   2.032  -0.127  0.00  0.00    -0.530 NA
ATOM      6  C   LIG    1        2.240   1.555  -1.231  0.00  0.00    +0.190 C 
ATOM      7  C   LIG    1        2.288   0.026  -1.208  0.00  0.00    +0.200 C 
ATOM      8  N   LIG    1        0.924  -0.507  -1.326  0.00  0.00    -0.490 N 
ATOM      9  C   LIG    1        0.079  -0.031  -0.223  0.00  0.00    +0.210 C 
ATOM     10  C   LIG    1        0.030   1.499  -0.245  0.00  0.00    +0.200 C 
BRANCH   8  11
ATOM     11  C   LIG    1        0.935  -1.903  -1.382  0.00  0.00    +0.130 A 
ATOM     12  C   LIG    1       -0.259  -2.604  -1.494  0.00  0.00    -0.010 A 
ATOM     13  C   LIG    1       -0.246  -3.984  -1.549  0.00  0.00    +0.050 A 
ATOM     14  C   LIG    1        0.954  -4.668  -1.492  0.00  0.00    -0.010 A 
ATOM     15  C   LIG    1        2.146  -3.973  -1.380  0.00  0.00    -0.010 A 
ATOM     16 CL   LIG    1        3.650  -4.837  -1.308  0.00  0.00    -0.070 Cl
ATOM     17  C   LIG    1        2.140  -2.592  -1.330  0.00  0.00    -0.020 A 
ENDBRANCH   8  11
ENDBRANCH   4   5
ENDBRANCH   1   4
BRANCH   1  18
ATOM     18  C   LIG    1        2.771   5.535   0.345  0.00  0.00    +0.170 C 
BRANCH  18  19
ATOM     19  O   LIG    1        4.099   6.013   0.569  0.00  0.00    -0.300 OA
BRANCH  19  20
ATOM     20  C   LIG    1        4.267   7.359   0.641  0.00  0.00    +0.130 A 
ATOM     21  C   LIG    1        3.177   8.205   0.499  0.00  0.00    -0.080 A 
ATOM     22  C   LIG    1        3.352   9.572   0.573  0.00  0.00    +0.050 A 
ATOM     23  C   LIG    1        4.613  10.104   0.789  0.00  0.00    -0.140 A 
ATOM     24  C   LIG    1        5.061  11.545   0.908  0.00  0.00    +0.070 C 
ATOM     25  C   LIG    1        6.453  11.481   1.571  0.00  0.00    +0.030 C 
ATOM     26  C   LIG    1        6.955  10.082   1.155  0.00  0.00    +0.080 C 
ATOM     27  C   LIG    1        5.702   9.263   0.931  0.00  0.00    -0.060 A 
ATOM     28  C   LIG    1        5.528   7.892   0.863  0.00  0.00    -0.010 A 
ENDBRANCH  19  20
ENDBRANCH  18  19
ENDBRANCH   1  18
TORSDOF 7
