REMARK  Name = ZINCpk000000oNew.0
REMARK                            x       y       z     vdW  Elec       q    Type
REMARK                         _______ _______ _______ _____ _____    ______ ____
ROOT
ATOM      1  N   LIG    1       -2.420   3.082   0.746  0.00  0.00    -0.540 NA
ATOM      2  C   LIG    1       -1.052   2.892   1.222  0.00  0.00    +0.180 C 
ATOM      3  C   LIG    1       -0.738   1.413   1.242  0.00  0.00    +0.040 C 
ATOM      4  C   LIG    1       -0.087   1.004  -0.090  0.00  0.00    +0.250 C 
ATOM      5  N   LIG    1       -0.735   1.680  -1.232  0.00  0.00    -0.610 N 
ATOM      6  C   LIG    1       -2.171   1.843  -1.327  0.00  0.00    +0.300 C 
ATOM      7  C   LIG    1        0.039   2.163  -2.223  0.00  0.00    +0.520 C 
ATOM      8  O   LIG    1       -0.472   2.644  -3.212  0.00  0.00    -0.530 OA
ATOM      9  C   LIG    1       -2.590   3.173  -0.656  0.00  0.00    +0.180 C 
ENDROOT
BRANCH   1  10
ATOM     10  C   LIG    1       -3.063   4.213   1.428  0.00  0.00    +0.200 C 
BRANCH  10  13
ATOM     11  N   LIG    1       -5.356   5.069   1.785  0.00  0.00    -0.740 N 
ATOM     12  H   LIG    1       -4.971   5.798   2.296  0.00  0.00    +0.400 HD
ATOM     13  C   LIG    1       -4.556   4.130   1.242  0.00  0.00    +0.510 C 
ATOM     14  O   LIG    1       -5.037   3.219   0.604  0.00  0.00    -0.520 OA
BRANCH  11  16
ATOM     15  C   LIG    1       -7.476   6.167   2.315  0.00  0.00    +0.030 C 
ATOM     16  C   LIG    1       -6.807   4.989   1.604  0.00  0.00    +0.250 C 
ENDBRANCH  11  16
ENDBRANCH  10  13
ENDBRANCH   1  10
BRANCH   7  17
ATOM     17  C   LIG    1        1.540   2.107  -2.103  0.00  0.00    +0.040 C 
BRANCH  17  18
ATOM     18  C   LIG    1        2.035   3.347  -1.403  0.00  0.00    -0.120 A 
ATOM     19  C   LIG    1        2.736   3.248  -0.211  0.00  0.00    +0.060 A 
ATOM     20  C   LIG    1        3.172   4.415   0.397  0.00  0.00    -0.030 A 
ATOM     21  C   LIG    1        2.895   5.630  -0.201  0.00  0.00    +0.260 A 
ATOM     22  N   LIG    1        2.225   5.687  -1.335  0.00  0.00    -0.480 NA
ATOM     23  C   LIG    1        1.800   4.597  -1.944  0.00  0.00    +0.270 A 
ENDBRANCH  17  18
BRANCH  17  24
ATOM     24  C   LIG    1        2.162   2.028  -3.499  0.00  0.00    +0.000 C 
ATOM     25  C   LIG    1        1.698   0.744  -4.191  0.00  0.00    +0.020 C 
ATOM     26  C   LIG    1        3.687   2.021  -3.378  0.00  0.00    +0.020 C 
ENDBRANCH  17  24
ENDBRANCH   7  17
TORSDOF 6
