REMARK  Name = ZINCtV00000vpTF0.0
REMARK                            x       y       z     vdW  Elec       q    Type
REMARK                         _______ _______ _______ _____ _____    ______ ____
ROOT
ATOM      1  C   LIG    1       -1.361  -0.810  -0.068  0.00  0.00    -0.130 A 
ATOM      2  C   LIG    1       -2.608  -0.193   0.067  0.00  0.00    +0.080 A 
ATOM      3  C   LIG    1       -3.747  -0.961   0.176  0.00  0.00    +0.010 A 
ATOM      4  C   LIG    1       -3.664  -2.345   0.154  0.00  0.00    +0.070 A 
ATOM      5  C   LIG    1       -2.440  -2.969   0.022  0.00  0.00    +0.010 A 
ATOM      6  C   LIG    1       -1.281  -2.212  -0.096  0.00  0.00    +0.210 A 
ENDROOT
BRANCH   1   8
ATOM      7  O   LIG    1        0.929  -0.531  -0.403  0.00  0.00    -0.480 OA
ATOM      8  C   LIG    1       -0.140   0.004  -0.185  0.00  0.00    +0.510 C 
BRANCH   8   9
ATOM      9  O   LIG    1       -0.208   1.344  -0.052  0.00  0.00    -0.350 OA
BRANCH   9  10
ATOM     10  C   LIG    1        1.035   2.083  -0.180  0.00  0.00    +0.290 C 
BRANCH  10  11
ATOM     11  C   LIG    1        0.765   3.555  -0.003  0.00  0.00    -0.130 A 
ATOM     12  C   LIG    1        0.826   4.123   1.258  0.00  0.00    +0.140 A 
ATOM     13  C   LIG    1        0.578   5.476   1.419  0.00  0.00    +0.000 A 
ATOM     14  C   LIG    1        0.270   6.258   0.322  0.00  0.00    +0.090 A 
ATOM     15  C   LIG    1        0.208   5.690  -0.937  0.00  0.00    +0.030 A 
ATOM     16  F   LIG    1        1.128   3.359   2.330  0.00  0.00    -0.120 F 
ATOM     17  C   LIG    1        0.461   4.340  -1.101  0.00  0.00    +0.010 A 
ATOM     18 CL   LIG    1        0.391   3.630  -2.683  0.00  0.00    -0.040 Cl
ENDBRANCH  10  11
ENDBRANCH   9  10
ENDBRANCH   8   9
ENDBRANCH   1   8
BRANCH   6  19
ATOM     19  N   LIG    1       -0.050  -2.839  -0.236  0.00  0.00    -0.690 N 
ATOM     20  H   LIG    1        0.234  -3.162  -1.105  0.00  0.00    +0.410 HD
BRANCH  19  21
ATOM     21  C   LIG    1        0.781  -3.003   0.876  0.00  0.00    +0.230 A 
ATOM     22  C   LIG    1        0.361  -2.572   2.128  0.00  0.00    -0.040 A 
ATOM     23  C   LIG    1        1.182  -2.741   3.226  0.00  0.00    +0.060 A 
ATOM     24  C   LIG    1        2.425  -3.327   3.078  0.00  0.00    +0.000 A 
ATOM     25  C   LIG    1        2.849  -3.752   1.831  0.00  0.00    -0.140 A 
ATOM     26  C   LIG    1        2.031  -3.592   0.731  0.00  0.00    +0.000 A 
BRANCH  25  27
ATOM     27  C   LIG    1        4.205  -4.390   1.675  0.00  0.00    +0.510 C 
ATOM     28  F   LIG    1        4.170  -5.307   0.618  0.00  0.00    -0.180 F 
ATOM     29  F   LIG    1        4.547  -5.055   2.857  0.00  0.00    -0.180 F 
ATOM     30  F   LIG    1        5.157  -3.402   1.403  0.00  0.00    -0.180 F 
ENDBRANCH  25  27
ENDBRANCH  19  21
ENDBRANCH   6  19
TORSDOF 7
