REMARK  Name = ZINCpk00000ebnTP.0
REMARK                            x       y       z     vdW  Elec       q    Type
REMARK                         _______ _______ _______ _____ _____    ______ ____
ROOT
ATOM      1  N   LIG    1        2.294   3.925   0.001  0.00  0.00    -0.470 N 
ATOM      2  C   LIG    1        3.137   3.553  -1.142  0.00  0.00    +0.200 C 
ATOM      3  C   LIG    1        4.485   4.271  -1.038  0.00  0.00    +0.060 C 
ATOM      4  C   LIG    1        4.252   5.784  -1.021  0.00  0.00    +0.120 C 
ATOM      5  C   LIG    1        3.332   6.138   0.150  0.00  0.00    +0.050 C 
ATOM      6  C   LIG    1        2.018   5.367   0.011  0.00  0.00    +0.230 C 
ENDROOT
BRANCH   1  11
ATOM      7  C   LIG    1       -1.199   3.159   0.029  0.00  0.00    +0.100 A 
ATOM      8  C   LIG    1       -1.216   1.768   0.017  0.00  0.00    +0.020 A 
ATOM      9  C   LIG    1       -0.013   1.076   0.008  0.00  0.00    +0.090 A 
ATOM     10  C   LIG    1        1.166   1.798   0.001  0.00  0.00    -0.020 A 
ATOM     11  C   LIG    1        1.113   3.192   0.008  0.00  0.00    +0.310 A 
ATOM     12  N   LIG    1       -0.047   3.822   0.022  0.00  0.00    -0.500 NA
BRANCH   7  16
ATOM     13  N   LIG    1       -2.468   5.256   0.052  0.00  0.00    -0.830 N 
ATOM     14  H   LIG    1       -3.304   5.747   0.062  0.00  0.00    +0.410 HD
ATOM     15  H   LIG    1       -1.624   5.736   0.046  0.00  0.00    +0.410 HD
ATOM     16  C   LIG    1       -2.477   3.909   0.045  0.00  0.00    +0.580 C 
ATOM     17  O   LIG    1       -3.533   3.308   0.052  0.00  0.00    -0.530 OA
ENDBRANCH   7  16
ENDBRANCH   1  11
BRANCH   4  18
ATOM     18  C   LIG    1        5.571   6.496  -0.859  0.00  0.00    +0.190 A 
ATOM     19  N   LIG    1        6.104   7.353  -1.696  0.00  0.00    -0.480 NA
ATOM     20  C   LIG    1        7.270   7.725  -1.140  0.00  0.00    +0.180 A 
ATOM     21  N   LIG    1        7.389   7.080  -0.018  0.00  0.00    -0.380 NA
ATOM     22  O   LIG    1        6.423   6.369   0.162  0.00  0.00    +0.090 OA
BRANCH  20  23
ATOM     23  C   LIG    1        8.261   8.704  -1.715  0.00  0.00    +0.090 C 
ATOM     24  C   LIG    1        8.469   9.893  -0.750  0.00  0.00    +0.030 C 
ATOM     25  C   LIG    1        9.969   9.826  -0.389  0.00  0.00    +0.200 C 
ATOM     26  O   LIG    1       10.582   9.120  -1.490  0.00  0.00    -0.370 OA
ATOM     27  C   LIG    1        9.660   8.059  -1.823  0.00  0.00    +0.230 C 
ENDBRANCH  20  23
ENDBRANCH   4  18
TORSDOF 4
