REMARK  Name = ZINCAx0000000aha.0
REMARK                            x       y       z     vdW  Elec       q    Type
REMARK                         _______ _______ _______ _____ _____    ______ ____
ROOT
ATOM      1  C   LIG    1        1.498   3.306   0.004  0.00  0.00    +0.370 C 
ENDROOT
BRANCH   1   2
ATOM      2  N   LIG    1        1.216   1.869   0.000  0.00  0.00    -0.560 N 
ATOM      3  C   LIG    1       -0.015   1.344   0.001  0.00  0.00    +0.710 C 
ATOM      4  N   LIG    1        0.000  -0.001  -0.004  0.00  0.00    -0.710 N 
ATOM      5  H   LIG    1       -0.771  -0.589  -0.004  0.00  0.00    +0.440 HD
ATOM      6  C   LIG    1        1.416  -0.407  -0.010  0.00  0.00    +0.170 C 
ATOM      7  C   LIG    1        1.741  -1.211  -1.270  0.00  0.00    +0.110 C 
ATOM      8  O   LIG    1       -1.032   2.008   0.002  0.00  0.00    -0.530 OA
ATOM      9  C   LIG    1        2.165   0.911  -0.006  0.00  0.00    +0.540 C 
ATOM     10  O   LIG    1        3.366   1.071  -0.010  0.00  0.00    -0.450 OA
BRANCH   6  11
ATOM     11  C   LIG    1        1.744  -1.206   1.225  0.00  0.00    -0.120 A 
ATOM     12  C   LIG    1        3.014  -1.147   1.769  0.00  0.00    +0.080 A 
ATOM     13  C   LIG    1        3.315  -1.873   2.905  0.00  0.00    -0.040 A 
ATOM     14  C   LIG    1        2.345  -2.672   3.493  0.00  0.00    +0.120 A 
ATOM     15  C   LIG    1        1.073  -2.735   2.942  0.00  0.00    +0.010 A 
ATOM     16  C   LIG    1        0.775  -2.001   1.810  0.00  0.00    +0.070 A 
BRANCH  14  17
ATOM     17  O   LIG    1        2.640  -3.392   4.607  0.00  0.00    -0.320 OA
BRANCH  17  18
ATOM     18  C   LIG    1        3.970  -3.280   5.119  0.00  0.00    +0.600 C 
ATOM     19  F   LIG    1        4.229  -1.946   5.453  0.00  0.00    -0.200 F 
ATOM     20  F   LIG    1        4.881  -3.702   4.146  0.00  0.00    -0.200 F 
ENDBRANCH  17  18
ENDBRANCH  14  17
ENDBRANCH   6  11
ENDBRANCH   1   2
BRANCH   1  23
ATOM     21  N   LIG    1        1.854   5.094   1.677  0.00  0.00    -0.670 N 
ATOM     22  H   LIG    1        2.040   5.701   0.944  0.00  0.00    +0.420 HD
ATOM     23  C   LIG    1        1.599   3.794   1.427  0.00  0.00    +0.500 C 
ATOM     24  O   LIG    1        1.450   3.018   2.346  0.00  0.00    -0.500 OA
BRANCH  21  28
ATOM     25  C   LIG    1        1.847   6.501   5.598  0.00  0.00    -0.690 A 
ATOM     26  C   LIG    1        2.305   5.225   5.324  0.00  0.00    +0.140 A 
ATOM     27  C   LIG    1        2.308   4.755   4.025  0.00  0.00    +0.010 A 
ATOM     28  C   LIG    1        1.852   5.566   2.994  0.00  0.00    +0.200 A 
ATOM     29  C   LIG    1        1.399   6.849   3.272  0.00  0.00    -0.020 A 
ATOM     30  C   LIG    1        1.392   7.311   4.574  0.00  0.00    +0.140 A 
BRANCH  25  31
ATOM     31  S   LIG    1        1.843   7.096   7.257  0.00  0.00    +2.690 S 
ATOM     32  O   LIG    1        1.815   5.948   8.094  0.00  0.00    -0.950 OA
ATOM     33  O   LIG    1        0.863   8.123   7.312  0.00  0.00    -0.950 OA
BRANCH  31  34
ATOM     34  N   LIG    1        3.305   7.829   7.517  0.00  0.00    -1.000 NA
ATOM     35  C   LIG    1        3.468   9.258   7.236  0.00  0.00    +0.300 C 
BRANCH  34  37
ATOM     36  C   LIG    1        5.586   7.099   7.023  0.00  0.00    +0.020 C 
ATOM     37  C   LIG    1        4.435   7.050   8.030  0.00  0.00    +0.240 C 
ATOM     38  C   LIG    1        4.898   7.639   9.364  0.00  0.00    +0.030 C 
ENDBRANCH  34  37
ENDBRANCH  31  34
ENDBRANCH  25  31
ENDBRANCH  21  28
ENDBRANCH   1  23
TORSDOF 9
