REMARK  Name = ZINCqH0000007le0.0
REMARK                            x       y       z     vdW  Elec       q    Type
REMARK                         _______ _______ _______ _____ _____    ______ ____
ROOT
ATOM      1  N   LIG    1       -1.103   4.742   9.216  0.00  0.00    -0.660 N 
ATOM      2  H   LIG    1       -1.718   5.246   8.660  0.00  0.00    +0.420 HD
ATOM      3  C   LIG    1       -0.365   3.752   8.678  0.00  0.00    +0.560 C 
ATOM      4  O   LIG    1        0.477   3.187   9.349  0.00  0.00    -0.510 OA
ENDROOT
BRANCH   1   9
ATOM      5  C   LIG    1       -0.425   4.376  12.816  0.00  0.00    +0.120 A 
ATOM      6  C   LIG    1       -0.749   5.644  13.276  0.00  0.00    -0.060 A 
ATOM      7  C   LIG    1       -1.190   6.611  12.391  0.00  0.00    -0.010 A 
ATOM      8  C   LIG    1       -1.309   6.316  11.043  0.00  0.00    +0.060 A 
ATOM      9  C   LIG    1       -0.984   5.043  10.579  0.00  0.00    +0.160 A 
ATOM     10  C   LIG    1       -0.547   4.073  11.469  0.00  0.00    +0.030 A 
BRANCH   5  12
ATOM     11  C   LIG    1        0.104   3.806  15.064  0.00  0.00    +0.250 C 
ATOM     12  O   LIG    1        0.007   3.427  13.689  0.00  0.00    -0.310 OA
ENDBRANCH   5  12
BRANCH   8  13
ATOM     13  O   LIG    1       -1.743   7.268  10.174  0.00  0.00    -0.320 OA
ATOM     14  C   LIG    1       -2.058   8.550  10.720  0.00  0.00    +0.250 C 
ENDBRANCH   8  13
ENDBRANCH   1   9
BRANCH   3  15
ATOM     15  C   LIG    1       -0.578   3.352   7.272  0.00  0.00    -0.140 A 
ATOM     16  C   LIG    1        0.187   2.326   6.712  0.00  0.00    +0.120 A 
ATOM     17  C   LIG    1       -0.015   1.956   5.401  0.00  0.00    +0.020 A 
ATOM     18  C   LIG    1       -0.979   2.602   4.635  0.00  0.00    +0.190 A 
ATOM     19  C   LIG    1       -1.738   3.627   5.188  0.00  0.00    +0.000 A 
ATOM     20  C   LIG    1       -1.545   4.000   6.500  0.00  0.00    +0.080 A 
BRANCH  18  21
ATOM     21  N   LIG    1       -1.181   2.224   3.304  0.00  0.00    -0.330 N 
ATOM     22  N   LIG    1       -0.193   1.793   2.409  0.00  0.00    -0.290 NA
ATOM     23  C   LIG    1       -0.765   1.529   1.263  0.00  0.00    +0.090 A 
ATOM     24  C   LIG    1       -2.135   1.788   1.384  0.00  0.00    -0.100 A 
ATOM     25  C   LIG    1       -0.067   1.037   0.021  0.00  0.00    +0.160 C 
ATOM     26  C   LIG    1       -2.370   2.208   2.648  0.00  0.00    +0.090 A 
ATOM     27  C   LIG    1       -3.708   2.596   3.223  0.00  0.00    +0.160 C 
ENDBRANCH  18  21
ENDBRANCH   3  15
TORSDOF 5
