REMARK  Name = ZINCkj00000y7xaO.0
REMARK                            x       y       z     vdW  Elec       q    Type
REMARK                         _______ _______ _______ _____ _____    ______ ____
ROOT
ATOM      1  C   LIG    1        3.195   0.786  -1.330  0.00  0.00    +0.180 C 
ATOM      2  C   LIG    1        4.718   0.979  -1.135  0.00  0.00    +0.100 C 
ATOM      3  C   LIG    1        4.854   1.442   0.298  0.00  0.00    +0.520 C 
ATOM      4  N   LIG    1        3.721   1.188   0.976  0.00  0.00    -0.610 N 
ATOM      5  C   LIG    1        3.511   1.518   2.388  0.00  0.00    +0.330 C 
ATOM      6  O   LIG    1        5.841   1.967   0.768  0.00  0.00    -0.480 OA
ATOM      7  C   LIG    1        2.722   0.538   0.120  0.00  0.00    +0.290 C 
ENDROOT
BRANCH   7   8
ATOM      8  C   LIG    1        1.365   1.156   0.340  0.00  0.00    -0.200 A 
ATOM      9  C   LIG    1        0.225   0.368   0.325  0.00  0.00    +0.080 A 
ATOM     10  C   LIG    1       -1.003   0.981   0.526  0.00  0.00    -0.010 A 
ATOM     11  C   LIG    1       -1.047   2.344   0.745  0.00  0.00    +0.300 A 
ATOM     12  N   LIG    1        0.059   3.063   0.752  0.00  0.00    -0.470 NA
ATOM     13  C   LIG    1        1.243   2.515   0.559  0.00  0.00    +0.290 A 
ENDBRANCH   7   8
BRANCH   1  14
ATOM     14  N   LIG    1        2.914  -0.378  -2.181  0.00  0.00    -0.500 N 
ATOM     15  H   LIG    1        1.950  -0.653  -2.068  0.00  0.00    +0.430 HD
ATOM     16  H   LIG    1        3.516  -1.142  -1.913  0.00  0.00    +0.440 HD
BRANCH  14  17
ATOM     17  C   LIG    1        3.163  -0.028  -3.586  0.00  0.00    +0.190 C 
BRANCH  17  19
ATOM     18  C   LIG    1        1.130  -1.246  -4.378  0.00  0.00    +0.040 C 
ATOM     19  C   LIG    1        2.653  -1.153  -4.489  0.00  0.00    +0.070 C 
ENDBRANCH  17  19
BRANCH  17  20
ATOM     20  C   LIG    1        4.665   0.162  -3.807  0.00  0.00    +0.200 C 
BRANCH  20  21
ATOM     21  O   LIG    1        5.344  -1.067  -3.543  0.00  0.00    -0.400 OA
ATOM     22  C   LIG    1        6.760  -0.998  -3.720  0.00  0.00    +0.240 C 
ENDBRANCH  20  21
ENDBRANCH  17  20
ENDBRANCH  14  17
ENDBRANCH   1  14
TORSDOF 6
