REMARK  Name = ZINCrg000000sFzv.0
REMARK                            x       y       z     vdW  Elec       q    Type
REMARK                         _______ _______ _______ _____ _____    ______ ____
ROOT
ATOM      1  C   LIG    1        1.350   1.901   2.673  0.00  0.00    +0.600 C 
ATOM      2  N   LIG    1        2.225   1.659   1.677  0.00  0.00    -0.700 N 
ATOM      3  H   LIG    1        1.908   1.570   0.764  0.00  0.00    +0.410 HD
ATOM      4  O   LIG    1        1.756   2.105   3.803  0.00  0.00    -0.540 OA
ENDROOT
BRANCH   1  10
ATOM      5  C   LIG    1       -0.887   2.636   4.686  0.00  0.00    +0.340 C 
ATOM      6  N   LIG    1       -1.086   2.245   3.289  0.00  0.00    -0.400 N 
ATOM      7  C   LIG    1       -2.282   2.139   2.661  0.00  0.00    +0.340 A 
ATOM      8  C   LIG    1       -2.071   1.758   1.378  0.00  0.00    -0.750 A 
ATOM      9  C   LIG    1       -0.693   1.611   1.196  0.00  0.00    +0.110 A 
ATOM     10  C   LIG    1       -0.090   1.918   2.397  0.00  0.00    -0.050 A 
BRANCH   8  11
ATOM     11  S   LIG    1       -3.314   1.488   0.158  0.00  0.00    +2.730 S 
ATOM     12  O   LIG    1       -2.679   1.646  -1.103  0.00  0.00    -0.960 OA
ATOM     13  O   LIG    1       -4.444   2.250   0.561  0.00  0.00    -0.970 OA
BRANCH  11  14
ATOM     14  N   LIG    1       -3.763  -0.103   0.260  0.00  0.00    -1.250 NA
ATOM     15  H   LIG    1       -3.122  -0.770   0.551  0.00  0.00    +0.420 HD
ATOM     16  H   LIG    1       -4.667  -0.367   0.028  0.00  0.00    +0.420 HD
ENDBRANCH  11  14
ENDBRANCH   8  11
ENDBRANCH   1  10
BRANCH   2  17
ATOM     17  C   LIG    1        3.654   1.531   1.972  0.00  0.00    +0.400 C 
BRANCH  17  18
ATOM     18  C   LIG    1        4.314   0.695   0.906  0.00  0.00    -0.110 A 
ATOM     19  C   LIG    1        3.947   0.848  -0.418  0.00  0.00    +0.080 A 
ATOM     20  C   LIG    1        4.555   0.085  -1.397  0.00  0.00    -0.010 A 
ATOM     21  C   LIG    1        5.525  -0.841  -1.050  0.00  0.00    +0.110 A 
ATOM     22  C   LIG    1        5.888  -0.997   0.277  0.00  0.00    -0.010 A 
ATOM     23  F   LIG    1        6.117  -1.590  -2.005  0.00  0.00    -0.140 F 
ATOM     24  C   LIG    1        5.282  -0.229   1.254  0.00  0.00    +0.060 A 
ENDBRANCH  17  18
BRANCH  17  25
ATOM     25  C   LIG    1        4.286   2.899   2.000  0.00  0.00    +0.190 A 
ATOM     26  N   LIG    1        4.091   3.845   1.122  0.00  0.00    -0.470 NA
ATOM     27  C   LIG    1        4.812   4.923   1.466  0.00  0.00    +0.140 A 
ATOM     28  C   LIG    1        5.485   4.631   2.595  0.00  0.00    +0.130 A 
ATOM     29  N   LIG    1        5.152   3.347   2.934  0.00  0.00    -0.450 N 
ATOM     30  C   LIG    1        5.644   2.599   4.094  0.00  0.00    +0.330 C 
ENDBRANCH  17  25
ENDBRANCH   2  17
TORSDOF 6
