REMARK  Name = ZINCrD000000fB6Z.0
REMARK                            x       y       z     vdW  Elec       q    Type
REMARK                         _______ _______ _______ _____ _____    ______ ____
ROOT
ATOM      1  S   LIG    1       -0.263   1.484   0.596  0.00  0.00    +2.700 S 
ATOM      2  O   LIG    1        0.877   2.333   0.585  0.00  0.00    -0.950 OA
ATOM      3  O   LIG    1       -0.175   0.067   0.649  0.00  0.00    -0.960 OA
ENDROOT
BRANCH   1  12
ATOM      4  C   LIG    1       -3.984   4.660   7.163  0.00  0.00    +0.110 C 
ATOM      5  C   LIG    1       -3.213   4.278   5.926  0.00  0.00    +0.510 C 
ATOM      6  N   LIG    1       -3.520   3.146   5.263  0.00  0.00    -0.560 N 
ATOM      7  C   LIG    1       -4.657   2.317   5.688  0.00  0.00    +0.270 C 
ATOM      8  C   LIG    1       -4.201   0.852   5.673  0.00  0.00    +0.030 C 
ATOM      9  C   LIG    1       -3.844   0.460   4.240  0.00  0.00    +0.090 C 
ATOM     10  C   LIG    1       -2.886   1.457   3.643  0.00  0.00    -0.140 A 
ATOM     11  C   LIG    1       -2.119   1.081   2.554  0.00  0.00    +0.140 A 
ATOM     12  C   LIG    1       -1.235   1.975   1.981  0.00  0.00    -0.700 A 
ATOM     13  C   LIG    1       -1.107   3.252   2.496  0.00  0.00    +0.130 A 
ATOM     14  C   LIG    1       -1.872   3.637   3.579  0.00  0.00    +0.000 A 
ATOM     15  C   LIG    1       -2.761   2.738   4.157  0.00  0.00    +0.210 A 
ATOM     16  O   LIG    1       -2.315   4.990   5.527  0.00  0.00    -0.510 OA
ENDBRANCH   1  12
BRANCH   1  17
ATOM     17  N   LIG    1       -1.131   1.848  -0.766  0.00  0.00    -1.110 NA
ATOM     18  H   LIG    1       -1.443   1.137  -1.347  0.00  0.00    +0.420 HD
BRANCH  17  19
ATOM     19  C   LIG    1       -1.428   3.245  -1.094  0.00  0.00    +0.300 C 
ATOM     20  C   LIG    1       -0.386   3.769  -2.083  0.00  0.00    +0.050 C 
BRANCH  19  21
ATOM     21  C   LIG    1       -2.799   3.334  -1.714  0.00  0.00    -0.130 A 
ATOM     22  C   LIG    1       -3.362   2.221  -2.309  0.00  0.00    +0.090 A 
ATOM     23  C   LIG    1       -4.621   2.301  -2.874  0.00  0.00    -0.010 A 
ATOM     24  C   LIG    1       -5.315   3.498  -2.853  0.00  0.00    +0.130 A 
ATOM     25  C   LIG    1       -4.750   4.615  -2.262  0.00  0.00    -0.040 A 
ATOM     26  F   LIG    1       -6.544   3.577  -3.409  0.00  0.00    -0.130 F 
ATOM     27  C   LIG    1       -3.492   4.533  -1.692  0.00  0.00    +0.140 A 
ATOM     28  F   LIG    1       -2.939   5.622  -1.114  0.00  0.00    -0.120 F 
ENDBRANCH  19  21
ENDBRANCH  17  19
ENDBRANCH   1  17
TORSDOF 4
