REMARK  Name = ZINCvU0000000HVc.0
REMARK                            x       y       z     vdW  Elec       q    Type
REMARK                         _______ _______ _______ _____ _____    ______ ____
ROOT
ATOM      1  S   LIG    1        2.157   4.133  -1.389  0.00  0.00    +0.040 S 
ENDROOT
BRANCH   1   2
ATOM      2  C   LIG    1        1.925   5.876  -1.275  0.00  0.00    +0.190 A 
ATOM      3  C   LIG    1        2.551   6.747  -2.202  0.00  0.00    -0.150 A 
ATOM      4  C   LIG    1        3.426   6.454  -3.330  0.00  0.00    -0.030 A 
ATOM      5  C   LIG    1        3.840   7.529  -3.999  0.00  0.00    +0.000 A 
ATOM      6  S   LIG    1        3.191   9.001  -3.304  0.00  0.00    +0.200 S 
ATOM      7  C   LIG    1        2.325   8.117  -2.056  0.00  0.00    +0.100 A 
ATOM      8  N   LIG    1        1.538   8.544  -1.060  0.00  0.00    -0.490 NA
ATOM      9  C   LIG    1        0.980   7.697  -0.226  0.00  0.00    +0.550 A 
ATOM     10  N   LIG    1        1.159   6.393  -0.324  0.00  0.00    -0.500 NA
BRANCH   4  11
ATOM     11  C   LIG    1        3.822   5.075  -3.701  0.00  0.00    -0.050 A 
ATOM     12  C   LIG    1        4.330   4.209  -2.734  0.00  0.00    +0.070 A 
ATOM     13  C   LIG    1        4.693   2.924  -3.083  0.00  0.00    +0.000 A 
ATOM     14  C   LIG    1        4.563   2.498  -4.395  0.00  0.00    +0.110 A 
ATOM     15  C   LIG    1        4.063   3.357  -5.361  0.00  0.00    -0.010 A 
ATOM     16  F   LIG    1        4.925   1.241  -4.734  0.00  0.00    -0.140 F 
ATOM     17  C   LIG    1        3.693   4.641  -5.020  0.00  0.00    +0.070 A 
ENDBRANCH   4  11
ENDBRANCH   1   2
BRANCH   1  18
ATOM     18  C   LIG    1        1.148   3.590   0.012  0.00  0.00    +0.050 C 
BRANCH  18  19
ATOM     19  C   LIG    1        1.097   2.084   0.041  0.00  0.00    -0.090 A 
ATOM     20  C   LIG    1        2.268   1.352  -0.024  0.00  0.00    +0.050 A 
ATOM     21  C   LIG    1        2.223  -0.029   0.002  0.00  0.00    +0.000 A 
ATOM     22  C   LIG    1        1.004  -0.679   0.093  0.00  0.00    +0.110 A 
ATOM     23  C   LIG    1       -0.168   0.055   0.158  0.00  0.00    -0.010 A 
ATOM     24  F   LIG    1        0.959  -2.029   0.119  0.00  0.00    -0.130 F 
ATOM     25  C   LIG    1       -0.120   1.435   0.131  0.00  0.00    +0.080 A 
ENDBRANCH  18  19
BRANCH  18  27
ATOM     26  O   LIG    1        1.128   4.856   2.004  0.00  0.00    -0.500 OA
ATOM     27  C   LIG    1        1.754   4.097   1.295  0.00  0.00    +0.540 C 
ATOM     28  N   LIG    1        2.993   3.706   1.655  0.00  0.00    -0.700 N 
ATOM     29  H   LIG    1        3.523   3.159   1.054  0.00  0.00    +0.400 HD
BRANCH  28  30
ATOM     30  C   LIG    1        3.539   4.107   2.954  0.00  0.00    +0.220 C 
ATOM     31  C   LIG    1        4.989   4.592   2.991  0.00  0.00    +0.010 C 
ATOM     32  C   LIG    1        4.625   3.222   3.568  0.00  0.00    +0.020 C 
ENDBRANCH  28  30
ENDBRANCH  18  27
ENDBRANCH   1  18
TORSDOF 6
