REMARK  Name = ZINCvU0000000D5k.0
REMARK                            x       y       z     vdW  Elec       q    Type
REMARK                         _______ _______ _______ _____ _____    ______ ____
ROOT
ATOM      1  O   LIG    1        6.359  -7.337  -0.196  0.00  0.00    -0.510 OA
ATOM      2  C   LIG    1        5.511  -8.207  -0.192  0.00  0.00    +0.560 C 
ATOM      3  N   LIG    1        4.209  -7.879  -0.076  0.00  0.00    -0.670 N 
ATOM      4  H   LIG    1        3.538  -8.575   0.004  0.00  0.00    +0.410 HD
ENDROOT
BRANCH   2   5
ATOM      5  C   LIG    1        5.907  -9.626  -0.314  0.00  0.00    -0.130 A 
ATOM      6  C   LIG    1        4.936 -10.628  -0.303  0.00  0.00    +0.050 A 
ATOM      7  C   LIG    1        5.312 -11.950  -0.423  0.00  0.00    +0.040 A 
ATOM      8  C   LIG    1        6.650 -12.284  -0.542  0.00  0.00    -0.080 A 
ATOM      9  C   LIG    1        7.618 -11.296  -0.547  0.00  0.00    +0.020 A 
ATOM     10  C   LIG    1        7.255  -9.970  -0.433  0.00  0.00    +0.080 A 
BRANCH   8  11
ATOM     11  C   LIG    1        7.054 -13.730  -0.666  0.00  0.00    +0.350 C 
BRANCH  11  12
ATOM     12  N   LIG    1        7.284 -14.290   0.668  0.00  0.00    -0.620 N 
ATOM     13  C   LIG    1        8.580 -14.281   1.357  0.00  0.00    +0.260 C 
ATOM     14  C   LIG    1        8.255 -14.554   2.844  0.00  0.00    +0.040 C 
ATOM     15  C   LIG    1        6.923 -15.332   2.736  0.00  0.00    +0.050 C 
ATOM     16  C   LIG    1        6.337 -14.883   1.415  0.00  0.00    +0.520 C 
ATOM     17  O   LIG    1        5.182 -15.035   1.080  0.00  0.00    -0.530 OA
ENDBRANCH  11  12
ENDBRANCH   8  11
ENDBRANCH   2   5
BRANCH   3  18
ATOM     18  C   LIG    1        3.825  -6.537  -0.072  0.00  0.00    +0.170 A 
ATOM     19  C   LIG    1        4.533  -5.610  -0.831  0.00  0.00    +0.020 A 
ATOM     20  C   LIG    1        4.157  -4.285  -0.829  0.00  0.00    +0.100 A 
ATOM     21  C   LIG    1        3.063  -3.872  -0.065  0.00  0.00    -0.060 A 
ATOM     22  C   LIG    1        2.358  -4.804   0.699  0.00  0.00    +0.060 A 
ATOM     23  C   LIG    1        2.736  -6.128   0.689  0.00  0.00    +0.000 A 
BRANCH  21  24
ATOM     24  C   LIG    1        2.657  -2.451  -0.061  0.00  0.00    +0.170 A 
ATOM     25  N   LIG    1        3.245  -1.515  -0.727  0.00  0.00    -0.460 NA
ATOM     26  C   LIG    1        2.757  -0.266  -0.622  0.00  0.00    +0.090 A 
ATOM     27  C   LIG    1        3.215   0.917  -1.242  0.00  0.00    +0.080 A 
ATOM     28  C   LIG    1        2.588   2.104  -1.015  0.00  0.00    +0.030 A 
ATOM     29  C   LIG    1        1.489   2.176  -0.171  0.00  0.00    +0.040 A 
ATOM     30  C   LIG    1        1.019   1.039   0.447  0.00  0.00    +0.060 A 
ATOM     31  C   LIG    1        1.648  -0.185   0.227  0.00  0.00    -0.170 A 
ATOM     32  S   LIG    1        1.305  -1.796   0.852  0.00  0.00    +0.070 S 
ENDBRANCH  21  24
ENDBRANCH   3  18
TORSDOF 5
