REMARK  Name = ZINCvU0000000JYu.0
REMARK                            x       y       z     vdW  Elec       q    Type
REMARK                         _______ _______ _______ _____ _____    ______ ____
ROOT
ATOM      1  C   LIG    1       -2.307   0.549   0.054  0.00  0.00    -0.120 A 
ATOM      2  C   LIG    1       -2.253  -0.831   0.259  0.00  0.00    +0.050 A 
ATOM      3  C   LIG    1       -3.422  -1.550   0.403  0.00  0.00    +0.020 A 
ATOM      4  C   LIG    1       -4.645  -0.907   0.344  0.00  0.00    +0.050 A 
ATOM      5  C   LIG    1       -4.705   0.461   0.141  0.00  0.00    +0.040 A 
ATOM      6  C   LIG    1       -3.545   1.192   0.002  0.00  0.00    -0.020 A 
ENDROOT
BRANCH   1   9
ATOM      7  N   LIG    1        0.130   0.692  -0.131  0.00  0.00    -0.660 N 
ATOM      8  H   LIG    1        0.163  -0.278  -0.121  0.00  0.00    +0.410 HD
ATOM      9  C   LIG    1       -1.059   1.325  -0.100  0.00  0.00    +0.550 C 
ATOM     10  O   LIG    1       -1.105   2.536  -0.200  0.00  0.00    -0.490 OA
BRANCH   7  15
ATOM     11  C   LIG    1        2.540   3.367  -0.921  0.00  0.00    -0.110 A 
ATOM     12  C   LIG    1        3.680   2.886  -0.273  0.00  0.00    +0.070 A 
ATOM     13  C   LIG    1        3.631   1.689   0.412  0.00  0.00    +0.020 A 
ATOM     14  C   LIG    1        2.457   0.962   0.460  0.00  0.00    -0.070 A 
ATOM     15  C   LIG    1        1.316   1.431  -0.182  0.00  0.00    +0.130 A 
ATOM     16  C   LIG    1        2.412  -0.345   1.209  0.00  0.00    +0.110 C 
ATOM     17  C   LIG    1        1.356   2.630  -0.877  0.00  0.00    +0.110 A 
BRANCH  11  18
ATOM     18  C   LIG    1        2.589   4.648  -1.654  0.00  0.00    +0.510 C 
ATOM     19  O   LIG    1        1.596   5.064  -2.217  0.00  0.00    -0.500 OA
BRANCH  18  21
ATOM     20  C   LIG    1        3.710   6.605  -2.438  0.00  0.00    +0.260 C 
ATOM     21  O   LIG    1        3.735   5.355  -1.699  0.00  0.00    -0.360 OA
ENDBRANCH  18  21
ENDBRANCH  11  18
ENDBRANCH   7  15
ENDBRANCH   1   9
BRANCH   6  22
ATOM     22  C   LIG    1       -3.612   2.683  -0.212  0.00  0.00    +0.160 C 
BRANCH  22  23
ATOM     23  S   LIG    1       -3.464   3.046  -1.979  0.00  0.00    +0.080 S 
BRANCH  23  24
ATOM     24  C   LIG    1       -3.572   4.804  -1.940  0.00  0.00    +0.230 A 
ATOM     25  N   LIG    1       -3.724   5.523  -0.857  0.00  0.00    -0.480 NA
ATOM     26  C   LIG    1       -3.763   6.837  -1.207  0.00  0.00    +0.030 A 
ATOM     27  C   LIG    1       -3.904   8.023  -0.485  0.00  0.00    +0.080 A 
ATOM     28  C   LIG    1       -3.912   9.231  -1.149  0.00  0.00    +0.020 A 
ATOM     29  C   LIG    1       -3.782   9.274  -2.528  0.00  0.00    +0.040 A 
ATOM     30  C   LIG    1       -3.643   8.108  -3.254  0.00  0.00    +0.050 A 
ATOM     31  C   LIG    1       -3.632   6.886  -2.603  0.00  0.00    +0.010 A 
ATOM     32  O   LIG    1       -3.516   5.604  -3.021  0.00  0.00    -0.200 OA
ENDBRANCH  23  24
ENDBRANCH  22  23
ENDBRANCH   6  22
TORSDOF 7
