REMARK  Name = ZINCrg00000I5BjP.0
REMARK                            x       y       z     vdW  Elec       q    Type
REMARK                         _______ _______ _______ _____ _____    ______ ____
ROOT
ATOM      1  C   LIG    1       -3.231   0.228   0.796  0.00  0.00    +0.300 C 
ATOM      2  N   LIG    1       -2.115   0.756   1.586  0.00  0.00    -0.580 N 
ATOM      3  C   LIG    1       -1.905   0.306   2.839  0.00  0.00    +0.610 C 
ATOM      4  O   LIG    1       -1.041   0.812   3.530  0.00  0.00    -0.520 OA
ENDROOT
BRANCH   3   5
ATOM      5  C   LIG    1       -2.721  -0.799   3.372  0.00  0.00    +0.020 A 
ATOM      6  N   LIG    1       -3.617  -1.505   2.717  0.00  0.00    -0.190 NA
ATOM      7  N   LIG    1       -4.158  -2.402   3.458  0.00  0.00    -0.410 N 
ATOM      8  H   LIG    1       -4.839  -3.024   3.157  0.00  0.00    +0.450 HD
ATOM      9  C   LIG    1       -3.653  -2.365   4.732  0.00  0.00    +0.110 A 
ATOM     10  C   LIG    1       -3.885  -3.088   5.897  0.00  0.00    +0.000 A 
ATOM     11  C   LIG    1       -3.181  -2.782   7.042  0.00  0.00    +0.170 A 
ATOM     12  C   LIG    1       -2.240  -1.756   7.045  0.00  0.00    -0.150 A 
ATOM     13  C   LIG    1       -1.999  -1.034   5.908  0.00  0.00    +0.180 A 
ATOM     14 BR   LIG    1       -1.289  -1.358   8.630  0.00  0.00    -0.010 Br
ATOM     15  F   LIG    1       -3.406  -3.484   8.174  0.00  0.00    -0.110 F 
ATOM     16  C   LIG    1       -2.699  -1.329   4.743  0.00  0.00    -0.120 A 
ENDBRANCH   3   5
BRANCH   2  17
ATOM     17  C   LIG    1       -1.229   1.772   1.014  0.00  0.00    +0.250 C 
ATOM     18  C   LIG    1       -0.498   1.325  -0.260  0.00  0.00    +0.270 C 
ATOM     19  N   LIG    1       -1.660   1.793  -1.030  0.00  0.00    -0.650 N 
ATOM     20  C   LIG    1       -2.230   1.483  -2.211  0.00  0.00    +0.530 C 
ATOM     21  O   LIG    1       -1.752   0.611  -2.905  0.00  0.00    -0.520 OA
ATOM     22  C   LIG    1       -1.927   2.749   0.056  0.00  0.00    +0.290 C 
BRANCH  20  23
ATOM     23  C   LIG    1       -3.463   2.220  -2.670  0.00  0.00    +0.230 C 
ATOM     24  C   LIG    1       -3.074   3.588  -3.272  0.00  0.00    +0.070 C 
ATOM     25  C   LIG    1       -2.959   3.249  -4.777  0.00  0.00    +0.060 C 
ATOM     26  C   LIG    1       -3.848   2.037  -4.953  0.00  0.00    +0.530 C 
ATOM     27  O   LIG    1       -4.258   1.625  -6.017  0.00  0.00    -0.520 OA
ATOM     28  N   LIG    1       -4.118   1.484  -3.757  0.00  0.00    -0.710 N 
ATOM     29  H   LIG    1       -4.675   0.701  -3.630  0.00  0.00    +0.420 HD
ENDBRANCH  20  23
ENDBRANCH   2  17
TORSDOF 3
