REMARK  Name = ZINCrg00000I5BjP.1
REMARK                            x       y       z     vdW  Elec       q    Type
REMARK                         _______ _______ _______ _____ _____    ______ ____
ROOT
ATOM      1  C   LIG    1        2.673   6.001   0.114  0.00  0.00    +0.300 C 
ATOM      2  N   LIG    1        1.220   5.816   0.126  0.00  0.00    -0.590 N 
ATOM      3  C   LIG    1        0.698   4.579   0.009  0.00  0.00    +0.590 C 
ATOM      4  O   LIG    1       -0.508   4.433  -0.073  0.00  0.00    -0.500 OA
ENDROOT
BRANCH   3   5
ATOM      5  C   LIG    1        1.580   3.411  -0.018  0.00  0.00    +0.010 A 
ATOM      6  C   LIG    1        2.367   2.977  -1.093  0.00  0.00    -0.140 A 
ATOM      7  C   LIG    1        2.615   3.403  -2.404  0.00  0.00    +0.150 A 
ATOM      8  C   LIG    1        3.477   2.698  -3.187  0.00  0.00    -0.130 A 
ATOM      9  C   LIG    1        4.125   1.554  -2.713  0.00  0.00    +0.140 A 
ATOM     10  C   LIG    1        3.927   1.090  -1.450  0.00  0.00    +0.060 A 
ATOM     11  F   LIG    1        4.971   0.891  -3.531  0.00  0.00    -0.120 F 
ATOM     12 BR   LIG    1        3.805   3.280  -4.956  0.00  0.00    -0.020 Br
ATOM     13  C   LIG    1        3.046   1.774  -0.588  0.00  0.00    +0.090 A 
ATOM     14  N   LIG    1        2.631   1.611   0.655  0.00  0.00    -0.260 NA
ATOM     15  N   LIG    1        1.800   2.529   0.997  0.00  0.00    -0.310 N 
ATOM     16  H   LIG    1        1.381   2.587   1.869  0.00  0.00    +0.460 HD
ENDBRANCH   3   5
BRANCH   2  17
ATOM     17  C   LIG    1        0.335   6.975   0.264  0.00  0.00    +0.250 C 
ATOM     18  C   LIG    1        0.842   8.233  -0.464  0.00  0.00    +0.290 C 
ATOM     19  N   LIG    1        0.415   8.977   0.737  0.00  0.00    -0.640 N 
ATOM     20  C   LIG    1        0.050  10.252   0.978  0.00  0.00    +0.530 C 
ATOM     21  O   LIG    1       -0.262  10.592   2.099  0.00  0.00    -0.510 OA
ATOM     22  C   LIG    1        0.547   7.765   1.568  0.00  0.00    +0.280 C 
BRANCH  20  23
ATOM     23  C   LIG    1        0.029  11.255  -0.147  0.00  0.00    +0.230 C 
ATOM     24  C   LIG    1       -1.275  11.116  -0.963  0.00  0.00    +0.080 C 
ATOM     25  C   LIG    1       -2.188  12.161  -0.280  0.00  0.00    +0.060 C 
ATOM     26  C   LIG    1       -1.222  13.152   0.333  0.00  0.00    +0.530 C 
ATOM     27  O   LIG    1       -1.519  14.263   0.717  0.00  0.00    -0.520 OA
ATOM     28  N   LIG    1        0.013  12.621   0.390  0.00  0.00    -0.710 N 
ATOM     29  H   LIG    1        0.792  13.080   0.740  0.00  0.00    +0.420 HD
ENDBRANCH  20  23
ENDBRANCH   2  17
TORSDOF 3
