REMARK  Name = ZINCpk00000FbV9u.1
REMARK                            x       y       z     vdW  Elec       q    Type
REMARK                         _______ _______ _______ _____ _____    ______ ____
ROOT
ATOM      1  O   LIG    1       -3.910   0.173  -2.061  0.00  0.00    -0.530 OA
ATOM      2  C   LIG    1       -2.747   0.505  -2.148  0.00  0.00    +0.520 C 
ATOM      3  N   LIG    1       -2.163   1.185  -1.141  0.00  0.00    -0.600 N 
ATOM      4  C   LIG    1       -0.755   1.594  -1.232  0.00  0.00    +0.260 C 
ATOM      5  C   LIG    1       -0.013   1.086   0.008  0.00  0.00    +0.030 C 
ATOM      6  C   LIG    1       -0.730   1.580   1.266  0.00  0.00    +0.060 C 
ATOM      7  C   LIG    1       -2.156   1.023   1.294  0.00  0.00    +0.210 C 
ATOM      8  C   LIG    1       -2.923   1.530   0.068  0.00  0.00    +0.270 C 
ENDROOT
BRANCH   7   9
ATOM      9  C   LIG    1       -2.852   1.483   2.548  0.00  0.00    -0.050 A 
ATOM     10  C   LIG    1       -4.089   1.125   2.966  0.00  0.00    +0.170 A 
ATOM     11  N   LIG    1       -4.295   1.775   4.135  0.00  0.00    -0.390 N 
ATOM     12  H   LIG    1       -5.094   1.720   4.682  0.00  0.00    +0.450 HD
ATOM     13  N   LIG    1       -3.251   2.482   4.393  0.00  0.00    -0.070 NA
ATOM     14  N   LIG    1       -2.372   2.330   3.466  0.00  0.00    -0.240 NA
ENDBRANCH   7   9
BRANCH   7  15
ATOM     15  O   LIG    1       -2.110  -0.405   1.270  0.00  0.00    -0.540 OA
ATOM     16  H   LIG    1       -2.980  -0.827   1.283  0.00  0.00    +0.380 HD
ENDBRANCH   7  15
BRANCH   2  17
ATOM     17  C   LIG    1       -1.955   0.159  -3.382  0.00  0.00    +0.120 C 
BRANCH  17  18
ATOM     18  C   LIG    1       -2.833  -0.595  -4.348  0.00  0.00    -0.120 A 
ATOM     19  C   LIG    1       -3.560   0.084  -5.283  0.00  0.00    +0.100 A 
ATOM     20  C   LIG    1       -4.367  -0.660  -6.165  0.00  0.00    -0.100 A 
ATOM     21  C   LIG    1       -5.142  -0.031  -7.153  0.00  0.00    +0.030 A 
ATOM     22  C   LIG    1       -5.909  -0.786  -7.987  0.00  0.00    +0.010 A 
ATOM     23  C   LIG    1       -5.936  -2.174  -7.874  0.00  0.00    +0.030 A 
ATOM     24  C   LIG    1       -5.197  -2.816  -6.928  0.00  0.00    +0.050 A 
ATOM     25  C   LIG    1       -4.393  -2.072  -6.048  0.00  0.00    +0.130 A 
ATOM     26  N   LIG    1       -3.656  -2.675  -5.109  0.00  0.00    -0.470 NA
ATOM     27  C   LIG    1       -2.899  -1.986  -4.290  0.00  0.00    +0.310 A 
ENDBRANCH  17  18
ENDBRANCH   2  17
TORSDOF 4
