REMARK  Name = ZINCpk00000FbV9u.0
REMARK                            x       y       z     vdW  Elec       q    Type
REMARK                         _______ _______ _______ _____ _____    ______ ____
ROOT
ATOM      1  O   LIG    1        2.937   3.291   0.914  0.00  0.00    -0.530 OA
ATOM      2  C   LIG    1        1.792   2.893   0.934  0.00  0.00    +0.520 C 
ATOM      3  N   LIG    1        1.366   2.019  -0.000  0.00  0.00    -0.600 N 
ATOM      4  C   LIG    1       -0.019   1.528   0.010  0.00  0.00    +0.260 C 
ATOM      5  C   LIG    1        0.002  -0.004   0.002  0.00  0.00    +0.030 C 
ATOM      6  C   LIG    1        0.834  -0.492  -1.186  0.00  0.00    +0.060 C 
ATOM      7  C   LIG    1        2.272   0.009  -1.045  0.00  0.00    +0.210 C 
ATOM      8  C   LIG    1        2.277   1.541  -1.048  0.00  0.00    +0.280 C 
ENDROOT
BRANCH   7   9
ATOM      9  C   LIG    1        3.098  -0.500  -2.198  0.00  0.00    -0.020 A 
ATOM     10  N   LIG    1        2.671  -1.180  -3.238  0.00  0.00    -0.260 NA
ATOM     11  N   LIG    1        3.672  -1.433  -4.005  0.00  0.00    -0.240 N 
ATOM     12  H   LIG    1        3.617  -1.925  -4.839  0.00  0.00    +0.470 HD
ATOM     13  N   LIG    1        4.756  -0.945  -3.515  0.00  0.00    -0.280 NA
ATOM     14  C   LIG    1        4.473  -0.339  -2.384  0.00  0.00    +0.190 A 
ENDBRANCH   7   9
BRANCH   7  15
ATOM     15  O   LIG    1        2.825  -0.467   0.184  0.00  0.00    -0.540 OA
ATOM     16  H   LIG    1        3.737  -0.186   0.340  0.00  0.00    +0.380 HD
ENDBRANCH   7  15
BRANCH   2  17
ATOM     17  C   LIG    1        0.844   3.374   2.003  0.00  0.00    +0.120 C 
BRANCH  17  18
ATOM     18  C   LIG    1        1.562   4.335   2.915  0.00  0.00    -0.120 A 
ATOM     19  C   LIG    1        1.563   5.672   2.635  0.00  0.00    +0.100 A 
ATOM     20  C   LIG    1        2.246   6.534   3.513  0.00  0.00    -0.100 A 
ATOM     21  C   LIG    1        2.289   7.920   3.290  0.00  0.00    +0.030 A 
ATOM     22  C   LIG    1        2.961   8.721   4.163  0.00  0.00    +0.010 A 
ATOM     23  C   LIG    1        3.605   8.184   5.276  0.00  0.00    +0.030 A 
ATOM     24  C   LIG    1        3.583   6.845   5.522  0.00  0.00    +0.050 A 
ATOM     25  C   LIG    1        2.901   5.986   4.644  0.00  0.00    +0.130 A 
ATOM     26  N   LIG    1        2.862   4.667   4.860  0.00  0.00    -0.470 NA
ATOM     27  C   LIG    1        2.222   3.862   4.047  0.00  0.00    +0.310 A 
ENDBRANCH  17  18
ENDBRANCH   2  17
TORSDOF 4
