REMARK  Name = ZINCqH0000002rcP.0
REMARK                            x       y       z     vdW  Elec       q    Type
REMARK                         _______ _______ _______ _____ _____    ______ ____
ROOT
ATOM      1  C   LIG    1       -1.024   7.671  -0.071  0.00  0.00    +0.200 A 
ATOM      2  N   LIG    1        0.277   7.859  -0.072  0.00  0.00    -0.490 NA
ATOM      3  C   LIG    1        0.901   6.678   0.025  0.00  0.00    +0.190 A 
ATOM      4  C   LIG    1       -0.043   5.702   0.081  0.00  0.00    +0.010 A 
ATOM      5  N   LIG    1       -1.272   6.336   0.023  0.00  0.00    -0.430 N 
ENDROOT
BRANCH   4   6
ATOM      6  C   LIG    1        0.196   4.248   0.188  0.00  0.00    -0.010 A 
ATOM      7  C   LIG    1       -0.807   3.406   0.673  0.00  0.00    -0.020 A 
ATOM      8  C   LIG    1       -0.577   2.050   0.772  0.00  0.00    +0.010 A 
ATOM      9  C   LIG    1        0.645   1.522   0.391  0.00  0.00    +0.000 A 
ATOM     10  C   LIG    1        1.645   2.352  -0.085  0.00  0.00    +0.020 A 
ATOM     11  C   LIG    1        1.426   3.709  -0.194  0.00  0.00    +0.030 A 
ENDBRANCH   4   6
BRANCH   1  12
ATOM     12  S   LIG    1       -2.244   8.938  -0.175  0.00  0.00    +0.080 S 
BRANCH  12  13
ATOM     13  C   LIG    1       -1.176  10.396  -0.270  0.00  0.00    +0.090 C 
BRANCH  13  16
ATOM     14  N   LIG    1       -1.444  12.849  -0.450  0.00  0.00    -0.730 N 
ATOM     15  H   LIG    1       -0.477  12.923  -0.446  0.00  0.00    +0.400 HD
ATOM     16  C   LIG    1       -2.027  11.637  -0.368  0.00  0.00    +0.530 C 
ATOM     17  O   LIG    1       -3.236  11.544  -0.374  0.00  0.00    -0.520 OA
BRANCH  14  18
ATOM     18  C   LIG    1       -2.271  14.055  -0.546  0.00  0.00    +0.260 C 
BRANCH  18  19
ATOM     19  C   LIG    1       -1.368  15.287  -0.626  0.00  0.00    +0.010 C 
BRANCH  19  21
ATOM     20  C   LIG    1       -1.329  17.779  -0.805  0.00  0.00    +0.010 C 
ATOM     21  C   LIG    1       -2.232  16.546  -0.726  0.00  0.00    +0.020 C 
ENDBRANCH  19  21
ENDBRANCH  18  19
ENDBRANCH  14  18
ENDBRANCH  13  16
ENDBRANCH  12  13
ENDBRANCH   1  12
BRANCH   5  22
ATOM     22  C   LIG    1       -2.588   5.693   0.057  0.00  0.00    +0.290 C 
BRANCH  22  23
ATOM     23  C   LIG    1       -3.099   5.652   1.499  0.00  0.00    +0.150 C 
ATOM     24  C   LIG    1       -4.477   4.960   1.547  0.00  0.00    +0.020 C 
ATOM     25  C   LIG    1       -5.239   5.818   2.596  0.00  0.00    +0.020 C 
ATOM     26  C   LIG    1       -4.644   7.221   2.317  0.00  0.00    +0.210 C 
ATOM     27  O   LIG    1       -3.265   6.986   1.994  0.00  0.00    -0.360 OA
ENDBRANCH  22  23
ENDBRANCH   5  22
TORSDOF 9
