REMARK  Name = ZINCpk00000xI5wF.0
REMARK                            x       y       z     vdW  Elec       q    Type
REMARK                         _______ _______ _______ _____ _____    ______ ____
ROOT
ATOM      1  N   LIG    1       -0.300   1.598   7.231  0.00  0.00    -0.720 N 
ATOM      2  H   LIG    1        0.499   1.049   7.253  0.00  0.00    +0.410 HD
ATOM      3  C   LIG    1       -0.834   1.964   6.048  0.00  0.00    +0.570 C 
ATOM      4  O   LIG    1       -1.835   2.652   6.020  0.00  0.00    -0.520 OA
ENDROOT
BRANCH   3   5
ATOM      5  C   LIG    1       -0.201   1.527   4.785  0.00  0.00    -0.100 A 
ATOM      6  C   LIG    1        0.949   0.737   4.815  0.00  0.00    +0.020 A 
ATOM      7  C   LIG    1        1.538   0.331   3.634  0.00  0.00    +0.050 A 
ATOM      8  C   LIG    1        0.988   0.701   2.421  0.00  0.00    -0.020 A 
ATOM      9  C   LIG    1       -0.153   1.491   2.381  0.00  0.00    +0.100 A 
ATOM     10  C   LIG    1       -0.751   1.903   3.560  0.00  0.00    +0.080 A 
BRANCH   9  11
ATOM     11  O   LIG    1       -0.686   1.856   1.185  0.00  0.00    -0.320 OA
BRANCH  11  12
ATOM     12  C   LIG    1       -0.017   1.395   0.010  0.00  0.00    +0.600 C 
ATOM     13  F   LIG    1        1.296   1.879  -0.000  0.00  0.00    -0.200 F 
ATOM     14  F   LIG    1        0.002  -0.004   0.002  0.00  0.00    -0.200 F 
ENDBRANCH  11  12
ENDBRANCH   9  11
ENDBRANCH   3   5
BRANCH   1  15
ATOM     15  C   LIG    1       -0.927   2.031   8.482  0.00  0.00    +0.370 C 
BRANCH  15  16
ATOM     16  C   LIG    1       -0.141   1.493   9.650  0.00  0.00    +0.460 C 
ATOM     17  O   LIG    1        0.842   0.817   9.457  0.00  0.00    -0.500 OA
BRANCH  16  18
ATOM     18  O   LIG    1       -0.533   1.764  10.905  0.00  0.00    -0.320 OA
BRANCH  18  19
ATOM     19  C   LIG    1        0.271   1.212  11.981  0.00  0.00    +0.250 C 
BRANCH  19  22
ATOM     20  N   LIG    1        0.267   1.219  14.454  0.00  0.00    -0.720 N 
ATOM     21  H   LIG    1        1.066   0.670  14.426  0.00  0.00    +0.400 HD
ATOM     22  C   LIG    1       -0.317   1.619  13.307  0.00  0.00    +0.520 C 
ATOM     23  O   LIG    1       -1.316   2.306  13.342  0.00  0.00    -0.510 OA
BRANCH  20  25
ATOM     24  C   LIG    1       -1.736   1.082  15.852  0.00  0.00    +0.040 C 
ATOM     25  C   LIG    1       -0.305   1.614  15.744  0.00  0.00    +0.170 C 
ATOM     26  C   LIG    1       -0.320   3.140  15.849  0.00  0.00    +0.040 C 
ATOM     27  C   LIG    1        0.542   1.033  16.877  0.00  0.00    +0.040 C 
ENDBRANCH  20  25
ENDBRANCH  19  22
ENDBRANCH  18  19
ENDBRANCH  16  18
ENDBRANCH  15  16
ENDBRANCH   1  15
TORSDOF 9
