REMARK  Name = ZINCrD00000752Dv.0
REMARK                            x       y       z     vdW  Elec       q    Type
REMARK                         _______ _______ _______ _____ _____    ______ ____
ROOT
ATOM      1  C   LIG    1       -7.177  -1.094  -1.300  0.00  0.00    +0.210 C 
ATOM      2  C   LIG    1       -5.987  -0.505  -2.012  0.00  0.00    +0.260 A 
ATOM      3  N   LIG    1       -4.879  -0.112  -1.434  0.00  0.00    -0.320 NA
ATOM      4  N   LIG    1       -4.035   0.369  -2.445  0.00  0.00    -0.370 N 
ATOM      5  C   LIG    1       -2.775   0.899  -2.453  0.00  0.00    +0.650 A 
ATOM      6  N   LIG    1       -2.179   1.292  -3.548  0.00  0.00    -0.550 NA
ATOM      7  C   LIG    1       -2.770   1.189  -4.763  0.00  0.00    +0.180 A 
ATOM      8  C   LIG    1       -4.074   0.653  -4.855  0.00  0.00    -0.120 A 
ATOM      9  C   LIG    1       -4.698   0.546  -6.096  0.00  0.00    +0.100 A 
ATOM     10  C   LIG    1       -4.036   0.965  -7.229  0.00  0.00    +0.000 A 
ATOM     11  C   LIG    1       -2.754   1.493  -7.143  0.00  0.00    +0.070 A 
ATOM     12  C   LIG    1       -2.120   1.608  -5.928  0.00  0.00    +0.020 A 
ATOM     13  C   LIG    1       -4.730   0.224  -3.615  0.00  0.00    +0.350 A 
ATOM     14  N   LIG    1       -5.900  -0.304  -3.324  0.00  0.00    -0.520 NA
ENDROOT
BRANCH   5  15
ATOM     15  N   LIG    1       -2.108   1.030  -1.258  0.00  0.00    -0.690 N 
ATOM     16  H   LIG    1       -2.532   0.749  -0.432  0.00  0.00    +0.420 HD
BRANCH  15  17
ATOM     17  C   LIG    1       -0.756   1.595  -1.231  0.00  0.00    +0.270 C 
ATOM     18  C   LIG    1       -0.838   3.123  -1.172  0.00  0.00    +0.010 C 
ATOM     19  C   LIG    1       -1.527   3.539   0.131  0.00  0.00    +0.210 C 
ATOM     20  O   LIG    1       -0.802   3.008   1.242  0.00  0.00    -0.370 OA
ATOM     21  C   LIG    1       -0.732   1.581   1.266  0.00  0.00    +0.200 C 
ATOM     22  C   LIG    1       -0.013   1.086   0.008  0.00  0.00    +0.040 C 
BRANCH  21  23
ATOM     23  C   LIG    1        0.028   1.134   2.488  0.00  0.00    -0.040 A 
ATOM     24  C   LIG    1        1.097   1.875   2.969  0.00  0.00    -0.010 A 
ATOM     25  C   LIG    1        1.767   1.437   4.096  0.00  0.00    +0.260 A 
ATOM     26  N   LIG    1        1.407   0.324   4.704  0.00  0.00    -0.480 NA
ATOM     27  C   LIG    1        0.400  -0.409   4.271  0.00  0.00    +0.260 A 
ATOM     28  C   LIG    1       -0.321  -0.031   3.154  0.00  0.00    -0.030 A 
ENDBRANCH  21  23
ENDBRANCH  15  17
ENDBRANCH   5  15
TORSDOF 3
