REMARK  Name = ZINCvU00000008TO.0
REMARK                            x       y       z     vdW  Elec       q    Type
REMARK                         _______ _______ _______ _____ _____    ______ ____
ROOT
ATOM      1  C   LIG    1       -1.453   7.972  -0.403  0.00  0.00    +0.350 A 
ATOM      2  N   LIG    1       -0.218   8.410  -0.391  0.00  0.00    -0.520 NA
ATOM      3  C   LIG    1        0.066   9.731  -0.468  0.00  0.00    +0.160 A 
ATOM      4  C   LIG    1        1.384  10.197  -0.456  0.00  0.00    +0.030 A 
ATOM      5  C   LIG    1        1.629  11.549  -0.536  0.00  0.00    +0.070 A 
ATOM      6  C   LIG    1        0.583  12.458  -0.630  0.00  0.00    +0.000 A 
ATOM      7  C   LIG    1       -0.724  12.024  -0.645  0.00  0.00    +0.100 A 
ATOM      8  C   LIG    1       -0.996  10.659  -0.564  0.00  0.00    -0.190 A 
ATOM      9  C   LIG    1       -2.371  10.142  -0.576  0.00  0.00    +0.560 A 
ATOM     10  O   LIG    1       -3.326  10.892  -0.656  0.00  0.00    -0.490 OA
ATOM     11  N   LIG    1       -2.536   8.801  -0.499  0.00  0.00    -0.480 N 
ENDROOT
BRANCH  11  12
ATOM     12  C   LIG    1       -3.828   8.258  -0.512  0.00  0.00    +0.090 A 
ATOM     13  C   LIG    1       -4.621   8.379  -1.645  0.00  0.00    +0.100 A 
ATOM     14  C   LIG    1       -5.894   7.843  -1.657  0.00  0.00    +0.030 A 
ATOM     15  C   LIG    1       -6.380   7.186  -0.539  0.00  0.00    +0.130 A 
ATOM     16  C   LIG    1       -5.590   7.064   0.593  0.00  0.00    -0.060 A 
ATOM     17 CL   LIG    1       -6.202   6.240   1.993  0.00  0.00    -0.030 Cl
ATOM     18  F   LIG    1       -7.626   6.663  -0.553  0.00  0.00    -0.120 F 
ATOM     19  C   LIG    1       -4.314   7.593   0.606  0.00  0.00    +0.090 A 
ENDBRANCH  11  12
BRANCH   1  20
ATOM     20  S   LIG    1       -1.730   6.235  -0.299  0.00  0.00    +0.090 S 
BRANCH  20  21
ATOM     21  C   LIG    1       -0.020   5.649  -0.204  0.00  0.00    +0.120 C 
BRANCH  21  23
ATOM     22  O   LIG    1       -1.055   3.531  -0.100  0.00  0.00    -0.500 OA
ATOM     23  C   LIG    1       -0.009   4.146  -0.106  0.00  0.00    +0.540 C 
ATOM     24  N   LIG    1        1.162   3.484  -0.024  0.00  0.00    -0.660 N 
ATOM     25  H   LIG    1        1.994   3.978   0.054  0.00  0.00    +0.420 HD
BRANCH  24  26
ATOM     26  C   LIG    1        1.179   2.085  -0.050  0.00  0.00    +0.160 A 
ATOM     27  C   LIG    1        0.141   1.388  -0.654  0.00  0.00    +0.030 A 
ATOM     28  C   LIG    1        0.161   0.007  -0.679  0.00  0.00    +0.050 A 
ATOM     29  C   LIG    1        1.212  -0.682  -0.103  0.00  0.00    +0.020 A 
ATOM     30  C   LIG    1        2.248   0.008   0.499  0.00  0.00    +0.050 A 
ATOM     31  C   LIG    1        2.235   1.389   0.527  0.00  0.00    -0.070 A 
ATOM     32 CL   LIG    1        3.536   2.256   1.283  0.00  0.00    -0.060 Cl
ENDBRANCH  24  26
ENDBRANCH  21  23
ENDBRANCH  20  21
ENDBRANCH   1  20
TORSDOF 5
