REMARK  Name = ZINCrg000000qPpz.0
REMARK                            x       y       z     vdW  Elec       q    Type
REMARK                         _______ _______ _______ _____ _____    ______ ____
ROOT
ATOM      1  C   LIG    1       -7.151  -0.618   0.300  0.00  0.00    +0.210 A 
ATOM      2  C   LIG    1       -5.914  -1.246   0.297  0.00  0.00    -0.070 A 
ATOM      3  C   LIG    1       -4.759  -0.496   0.201  0.00  0.00    +0.090 A 
ATOM      4  C   LIG    1       -4.834   0.888   0.119  0.00  0.00    +0.090 A 
ATOM      5  C   LIG    1       -6.073   1.516   0.123  0.00  0.00    +0.180 A 
ATOM      6  C   LIG    1       -7.228   0.765   0.213  0.00  0.00    -0.690 A 
ENDROOT
BRANCH   4   7
ATOM      7  N   LIG    1       -3.663   1.650   0.028  0.00  0.00    -0.670 N 
ATOM      8  H   LIG    1       -2.898   1.307  -0.461  0.00  0.00    +0.410 HD
ATOM      9  C   LIG    1       -3.597   2.859   0.620  0.00  0.00    +0.580 C 
ATOM     10  O   LIG    1       -4.581   3.325   1.161  0.00  0.00    -0.520 OA
BRANCH   9  11
ATOM     11  C   LIG    1       -2.332   3.616   0.611  0.00  0.00    -0.260 A 
ATOM     12  C   LIG    1       -2.259   4.854   1.216  0.00  0.00    +0.420 A 
ATOM     13  N   LIG    1       -1.104   5.546   1.216  0.00  0.00    -0.600 N 
ATOM     14  H   LIG    1       -1.067   6.414   1.649  0.00  0.00    +0.430 HD
ATOM     15  C   LIG    1       -0.000   5.054   0.625  0.00  0.00    +0.520 A 
ATOM     16  C   LIG    1       -0.029   3.797  -0.009  0.00  0.00    -0.070 A 
ATOM     17  O   LIG    1        1.034   5.701   0.639  0.00  0.00    -0.530 OA
ATOM     18  C   LIG    1       -1.184   3.080  -0.021  0.00  0.00    +0.140 A 
ENDBRANCH   9  11
ENDBRANCH   4   7
BRANCH   6  19
ATOM     19  S   LIG    1       -8.799   1.562   0.216  0.00  0.00    +2.700 S 
ATOM     20  O   LIG    1       -8.544   2.953   0.082  0.00  0.00    -0.950 OA
ATOM     21  O   LIG    1       -9.528   1.007   1.303  0.00  0.00    -0.940 OA
BRANCH  19  22
ATOM     22  N   LIG    1       -9.588   1.095  -1.163  0.00  0.00    -1.000 NA
ATOM     23  C   LIG    1       -9.458   1.868  -2.408  0.00  0.00    +0.280 C 
ATOM     24  C   LIG    1       -9.091   0.894  -3.540  0.00  0.00    +0.210 C 
ATOM     25  O   LIG    1      -10.033  -0.181  -3.556  0.00  0.00    -0.380 OA
ATOM     26  C   LIG    1      -10.036  -0.975  -2.367  0.00  0.00    +0.210 C 
ATOM     27  C   LIG    1      -10.446  -0.100  -1.177  0.00  0.00    +0.280 C 
ENDBRANCH  19  22
ENDBRANCH   6  19
BRANCH   1  29
ATOM     28  C   LIG    1       -8.135  -2.775   0.476  0.00  0.00    +0.250 C 
ATOM     29  O   LIG    1       -8.289  -1.357   0.389  0.00  0.00    -0.310 OA
ENDBRANCH   1  29
TORSDOF 5
