REMARK  Name = ZINCpk00000ebjgD.0
REMARK                            x       y       z     vdW  Elec       q    Type
REMARK                         _______ _______ _______ _____ _____    ______ ____
ROOT
ATOM      1  C   LIG    1        0.901  -2.003   1.166  0.00  0.00    +0.520 C 
ATOM      2  N   LIG    1       -0.221  -2.748   1.199  0.00  0.00    -0.720 N 
ATOM      3  H   LIG    1       -1.088  -2.317   1.248  0.00  0.00    +0.410 HD
ATOM      4  O   LIG    1        1.986  -2.543   1.105  0.00  0.00    -0.520 OA
ENDROOT
BRANCH   1  10
ATOM      5  C   LIG    1        2.216   0.101   1.149  0.00  0.00    +0.270 C 
ATOM      6  O   LIG    1        2.124   1.527   1.128  0.00  0.00    -0.380 OA
ATOM      7  C   LIG    1        1.420   2.050  -0.001  0.00  0.00    +0.220 C 
ATOM      8  C   LIG    1       -0.019   1.528   0.010  0.00  0.00    +0.000 C 
ATOM      9  C   LIG    1        0.002  -0.004   0.002  0.00  0.00    +0.040 C 
ATOM     10  C   LIG    1        0.809  -0.499   1.206  0.00  0.00    -0.030 C 
BRANCH   5  16
ATOM     11  C   LIG    1        2.559   1.675   3.797  0.00  0.00    +0.340 C 
ATOM     12  N   LIG    1        3.140   0.361   3.509  0.00  0.00    -0.360 N 
ATOM     13  N   LIG    1        3.937  -0.396   4.377  0.00  0.00    -0.300 NA
ATOM     14  C   LIG    1        4.268  -1.504   3.765  0.00  0.00    +0.210 A 
ATOM     15  C   LIG    1        3.689  -1.490   2.492  0.00  0.00    -0.060 A 
ATOM     16  C   LIG    1        2.998  -0.334   2.361  0.00  0.00    +0.080 A 
ENDBRANCH   5  16
ENDBRANCH   1  10
BRANCH   2  17
ATOM     17  C   LIG    1       -0.132  -4.210   1.161  0.00  0.00    +0.400 C 
BRANCH  17  18
ATOM     18  C   LIG    1       -1.518  -4.800   1.209  0.00  0.00    +0.250 A 
ATOM     19  N   LIG    1       -2.630  -4.100   1.281  0.00  0.00    -0.530 NA
ATOM     20  C   LIG    1       -3.666  -4.959   1.303  0.00  0.00    -0.010 A 
ATOM     21  C   LIG    1       -5.052  -4.819   1.370  0.00  0.00    +0.200 A 
ATOM     22  C   LIG    1       -5.840  -5.963   1.379  0.00  0.00    -0.030 A 
ATOM     23  C   LIG    1       -5.266  -7.197   1.323  0.00  0.00    +0.340 A 
ATOM     24  N   LIG    1       -3.933  -7.349   1.259  0.00  0.00    -0.480 N 
ATOM     25  H   LIG    1       -3.553  -8.240   1.220  0.00  0.00    +0.430 HD
ATOM     26  C   LIG    1       -3.107  -6.260   1.247  0.00  0.00    +0.230 A 
ATOM     27  N   LIG    1       -1.790  -6.098   1.190  0.00  0.00    -0.550 NA
ENDBRANCH  17  18
ENDBRANCH   2  17
TORSDOF 4
