REMARK  Name = ZINCpk00000xI6zd.0
REMARK                            x       y       z     vdW  Elec       q    Type
REMARK                         _______ _______ _______ _____ _____    ______ ____
ROOT
ATOM      1  S   LIG    1       -6.659  -0.426   3.959  0.00  0.00    +2.710 S 
ATOM      2  O   LIG    1       -5.612  -1.111   3.285  0.00  0.00    -0.920 OA
ATOM      3  O   LIG    1       -8.016  -0.477   3.540  0.00  0.00    -0.940 OA
ENDROOT
BRANCH   1   4
ATOM      4  C   LIG    1       -6.631  -0.992   5.627  0.00  0.00    -0.700 A 
ATOM      5  C   LIG    1       -5.660  -1.883   6.035  0.00  0.00    +0.210 A 
ATOM      6  C   LIG    1       -5.639  -2.331   7.358  0.00  0.00    -0.150 A 
ATOM      7  C   LIG    1       -6.603  -1.873   8.258  0.00  0.00    +0.150 A 
ATOM      8  C   LIG    1       -7.568  -0.982   7.837  0.00  0.00    -0.010 A 
ATOM      9  C   LIG    1       -7.579  -0.538   6.526  0.00  0.00    +0.050 A 
ATOM     10  C   LIG    1       -8.633   0.440   6.075  0.00  0.00    +0.110 C 
BRANCH   6  11
ATOM     11  C   LIG    1       -4.603  -3.285   7.802  0.00  0.00    +0.510 C 
ATOM     12  O   LIG    1       -3.766  -3.682   7.016  0.00  0.00    -0.500 OA
BRANCH  11  13
ATOM     13  O   LIG    1       -4.586  -3.715   9.079  0.00  0.00    -0.360 OA
ATOM     14  C   LIG    1       -3.539  -4.652   9.444  0.00  0.00    +0.290 C 
ENDBRANCH  11  13
ENDBRANCH   6  11
ENDBRANCH   1   4
BRANCH   1  19
ATOM     15  C   LIG    1       -4.860   1.697   3.966  0.00  0.00    +0.230 C 
ATOM     16  C   LIG    1       -4.956   3.237   3.963  0.00  0.00    +0.060 C 
ATOM     17  C   LIG    1       -6.379   3.496   3.401  0.00  0.00    +0.040 C 
ATOM     18  C   LIG    1       -7.172   2.312   4.006  0.00  0.00    +0.280 C 
ATOM     19  N   LIG    1       -6.234   1.175   3.977  0.00  0.00    -0.990 NA
BRANCH  15  22
ATOM     20  N   LIG    1       -2.862   1.588   2.512  0.00  0.00    -0.730 N 
ATOM     21  H   LIG    1       -2.403   2.152   3.154  0.00  0.00    +0.400 HD
ATOM     22  C   LIG    1       -4.142   1.225   2.728  0.00  0.00    +0.490 C 
ATOM     23  O   LIG    1       -4.716   0.519   1.926  0.00  0.00    -0.500 OA
BRANCH  20  24
ATOM     24  C   LIG    1       -2.164   1.129   1.309  0.00  0.00    +0.260 C 
BRANCH  24  26
ATOM     25  C   LIG    1       -0.007   1.199   0.050  0.00  0.00    +0.030 C 
ATOM     26  C   LIG    1       -0.736   1.678   1.307  0.00  0.00    +0.000 C 
ENDBRANCH  24  26
ENDBRANCH  20  24
ENDBRANCH  15  22
ENDBRANCH   1  19
TORSDOF 7
