REMARK  Name = ZINCpk00000xI3z2.0
REMARK                            x       y       z     vdW  Elec       q    Type
REMARK                         _______ _______ _______ _____ _____    ______ ____
ROOT
ATOM      1  C   LIG    1        7.439   2.984  -3.196  0.00  0.00    +0.220 C 
ATOM      2  C   LIG    1        7.364   3.460  -1.722  0.00  0.00    +0.050 C 
ATOM      3  C   LIG    1        6.893   2.171  -1.003  0.00  0.00    +0.280 C 
ATOM      4  N   LIG    1        5.946   1.540  -1.940  0.00  0.00    -0.620 N 
ATOM      5  C   LIG    1        4.961   0.684  -1.605  0.00  0.00    +0.540 C 
ATOM      6  O   LIG    1        4.239   0.224  -2.464  0.00  0.00    -0.500 OA
ATOM      7  C   LIG    1        6.260   1.995  -3.303  0.00  0.00    +0.310 C 
ENDROOT
BRANCH   1  12
ATOM      8  C   LIG    1        8.049   7.231  -5.779  0.00  0.00    +0.200 C 
ATOM      9  C   LIG    1        7.499   5.936  -5.239  0.00  0.00    +0.170 A 
ATOM     10  N   LIG    1        6.385   5.367  -5.592  0.00  0.00    -0.370 NA
ATOM     11  O   LIG    1        6.226   4.336  -4.973  0.00  0.00    +0.090 OA
ATOM     12  C   LIG    1        7.254   4.144  -4.141  0.00  0.00    +0.160 A 
ATOM     13  N   LIG    1        8.068   5.160  -4.299  0.00  0.00    -0.470 NA
ENDBRANCH   1  12
BRANCH   5  14
ATOM     14  C   LIG    1        4.756   0.299  -0.162  0.00  0.00    +0.140 C 
ATOM     15  C   LIG    1        5.977  -0.484   0.366  0.00  0.00    +0.040 C 
ATOM     16  C   LIG    1        5.388  -1.561   1.301  0.00  0.00    +0.040 C 
ATOM     17  C   LIG    1        3.861  -1.338   1.258  0.00  0.00    +0.190 C 
ATOM     18  N   LIG    1        3.620  -0.649  -0.036  0.00  0.00    -0.440 N 
BRANCH  18  19
ATOM     19  C   LIG    1        2.400   0.031  -0.021  0.00  0.00    +0.110 A 
ATOM     20  C   LIG    1        2.308   1.308  -0.559  0.00  0.00    -0.040 A 
ATOM     21  C   LIG    1        1.101   1.978  -0.543  0.00  0.00    +0.030 A 
ATOM     22  C   LIG    1       -0.017   1.378   0.008  0.00  0.00    -0.030 A 
ATOM     23  C   LIG    1        0.071   0.107   0.545  0.00  0.00    +0.030 A 
ATOM     24  C   LIG    1        1.275  -0.568   0.532  0.00  0.00    -0.030 A 
ENDBRANCH  18  19
ENDBRANCH   5  14
BRANCH   1  25
ATOM     25  O   LIG    1        8.679   2.320  -3.451  0.00  0.00    -0.520 OA
ATOM     26  H   LIG    1        9.458   2.879  -3.322  0.00  0.00    +0.390 HD
ENDBRANCH   1  25
TORSDOF 4
