REMARK  Name = ZINCkj000005lwsc.0
REMARK                            x       y       z     vdW  Elec       q    Type
REMARK                         _______ _______ _______ _____ _____    ______ ____
ROOT
ATOM      1  O   LIG    1       -1.736   2.268  -1.088  0.00  0.00    -0.540 OA
ATOM      2  C   LIG    1       -0.742   1.585  -1.213  0.00  0.00    +0.510 C 
ATOM      3  N   LIG    1       -0.288   1.272  -2.443  0.00  0.00    -0.590 N 
ENDROOT
BRANCH   3   4
ATOM      4  C   LIG    1       -0.997   1.758  -3.630  0.00  0.00    +0.350 C 
BRANCH   4   5
ATOM      5  C   LIG    1       -0.435   3.095  -4.038  0.00  0.00    -0.110 A 
ATOM      6  C   LIG    1       -0.981   4.258  -3.528  0.00  0.00    +0.020 A 
ATOM      7  C   LIG    1       -0.463   5.485  -3.899  0.00  0.00    +0.000 A 
ATOM      8  C   LIG    1        0.594   5.549  -4.788  0.00  0.00    +0.010 A 
ATOM      9  C   LIG    1        1.136   4.386  -5.302  0.00  0.00    +0.000 A 
ATOM     10  C   LIG    1        0.621   3.159  -4.927  0.00  0.00    +0.010 A 
ENDBRANCH   4   5
ENDBRANCH   3   4
BRANCH   3  11
ATOM     11  C   LIG    1        0.913   0.447  -2.593  0.00  0.00    +0.280 C 
BRANCH  11  12
ATOM     12  C   LIG    1        0.514  -1.029  -2.644  0.00  0.00    +0.160 C 
BRANCH  12  13
ATOM     13  O   LIG    1       -0.262  -1.273  -3.820  0.00  0.00    -0.570 OA
ATOM     14  H   LIG    1       -0.550  -2.191  -3.917  0.00  0.00    +0.390 HD
ENDBRANCH  12  13
ENDBRANCH  11  12
ENDBRANCH   3  11
BRANCH   2  15
ATOM     15  C   LIG    1       -0.013   1.086   0.008  0.00  0.00    +0.060 C 
BRANCH  15  16
ATOM     16  C   LIG    1       -0.729   1.579   1.267  0.00  0.00    +0.020 C 
ATOM     17  C   LIG    1       -0.638   3.106   1.342  0.00  0.00    +0.060 C 
ATOM     18  C   LIG    1       -1.285   3.586   2.643  0.00  0.00    +0.250 C 
ATOM     19  N   LIG    1       -0.586   2.994   3.791  0.00  0.00    -0.510 N 
ATOM     20  C   LIG    1       -0.731   1.534   3.763  0.00  0.00    +0.250 C 
ATOM     21  H   LIG    1        0.393   3.235   3.746  0.00  0.00    +0.430 HD
ATOM     22  H   LIG    1       -0.981   3.354   4.646  0.00  0.00    +0.430 HD
ATOM     23  C   LIG    1       -0.062   0.975   2.506  0.00  0.00    +0.050 C 
ENDBRANCH  15  16
ENDBRANCH   2  15
TORSDOF 7
