REMARK  Name = ZINCvU0000000Jwx.0
REMARK                            x       y       z     vdW  Elec       q    Type
REMARK                         _______ _______ _______ _____ _____    ______ ____
ROOT
ATOM      1  C   LIG    1       -0.926   1.174   5.189  0.00  0.00    +0.410 A 
ATOM      2  C   LIG    1        0.212   1.707   5.838  0.00  0.00    -0.180 A 
ATOM      3  C   LIG    1        0.979   1.198   6.970  0.00  0.00    +0.010 A 
ATOM      4  C   LIG    1        2.009   1.965   7.327  0.00  0.00    +0.000 A 
ATOM      5  S   LIG    1        2.131   3.384   6.304  0.00  0.00    +0.220 S 
ATOM      6  C   LIG    1        0.728   2.912   5.357  0.00  0.00    +0.110 A 
ATOM      7  N   LIG    1        0.129   3.506   4.316  0.00  0.00    -0.480 NA
ATOM      8  C   LIG    1       -0.927   2.971   3.749  0.00  0.00    +0.380 A 
ATOM      9  N   LIG    1       -1.453   1.836   4.172  0.00  0.00    -0.560 NA
ENDROOT
BRANCH   3  10
ATOM     10  C   LIG    1        0.641  -0.063   7.663  0.00  0.00    -0.140 A 
ATOM     11  C   LIG    1        1.509  -1.059   7.934  0.00  0.00    +0.020 A 
ATOM     12  C   LIG    1        0.958  -2.139   8.596  0.00  0.00    +0.000 A 
ATOM     13  C   LIG    1       -0.347  -2.036   8.858  0.00  0.00    -0.050 A 
ATOM     14  S   LIG    1       -0.956  -0.500   8.257  0.00  0.00    +0.150 S 
ENDBRANCH   3  10
BRANCH   1  15
ATOM     15  O   LIG    1       -1.473   0.008   5.609  0.00  0.00    -0.220 OA
BRANCH  15  20
ATOM     16  C   LIG    1       -5.007  -0.695   5.030  0.00  0.00    -0.160 A 
ATOM     17  C   LIG    1       -4.944  -1.278   3.761  0.00  0.00    +0.080 A 
ATOM     18  C   LIG    1       -3.726  -1.423   3.129  0.00  0.00    +0.020 A 
ATOM     19  C   LIG    1       -2.567  -0.988   3.744  0.00  0.00    +0.050 A 
ATOM     20  C   LIG    1       -2.617  -0.412   5.008  0.00  0.00    +0.070 A 
ATOM     21  C   LIG    1       -3.833  -0.261   5.652  0.00  0.00    +0.090 A 
BRANCH  16  23
ATOM     22  C   LIG    1       -7.568  -1.007   5.034  0.00  0.00    +0.080 C 
ATOM     23  C   LIG    1       -6.304  -0.538   5.708  0.00  0.00    +0.400 C 
ATOM     24  O   LIG    1       -6.356  -0.031   6.808  0.00  0.00    -0.450 OA
ENDBRANCH  16  23
ENDBRANCH  15  20
ENDBRANCH   1  15
BRANCH   8  25
ATOM     25  C   LIG    1       -1.564   3.680   2.581  0.00  0.00    +0.310 C 
BRANCH  25  26
ATOM     26  N   LIG    1       -0.951   3.212   1.331  0.00  0.00    -0.530 NA
ATOM     27  C   LIG    1       -0.846   1.746   1.311  0.00  0.00    +0.140 C 
ATOM     28  C   LIG    1       -0.150   1.306   0.021  0.00  0.00    +0.220 C 
ATOM     29  O   LIG    1       -0.874   1.813  -1.103  0.00  0.00    -0.380 OA
ATOM     30  C   LIG    1       -0.993   3.239  -1.116  0.00  0.00    +0.220 C 
ATOM     31  C   LIG    1       -1.699   3.698   0.163  0.00  0.00    +0.160 C 
ENDBRANCH  25  26
ENDBRANCH   8  25
TORSDOF 6
