REMARK  Name = ZINC660000002hsj.0
REMARK                            x       y       z     vdW  Elec       q    Type
REMARK                         _______ _______ _______ _____ _____    ______ ____
ROOT
ATOM      1  C   LIG    1        2.345   1.332   0.522  0.00  0.00    +0.720 C 
ATOM      2  N   LIG    1        1.358   2.025   0.000  0.00  0.00    -0.630 NA
ATOM      3  C   LIG    1       -0.019   1.529   0.010  0.00  0.00    +0.300 C 
ATOM      4  C   LIG    1        0.002  -0.004   0.002  0.00  0.00    +0.060 C 
ATOM      5  C   LIG    1        0.869  -0.480   1.173  0.00  0.00    +0.300 C 
ATOM      6  H   LIG    1        1.547   2.887  -0.402  0.00  0.00    +0.450 HD
ATOM      7  N   LIG    1        2.185   0.155   1.082  0.00  0.00    -0.630 NA
ATOM      8  H   LIG    1        2.958  -0.305   1.445  0.00  0.00    +0.450 HD
ENDROOT
TORSDOF 0
