REMARK  Name = ZINCpe00000gMw5M.0
REMARK                            x       y       z     vdW  Elec       q    Type
REMARK                         _______ _______ _______ _____ _____    ______ ____
ROOT
ATOM      1  C   LIG    1       -0.710   1.724  -1.220  0.00  0.00    +0.250 C 
ATOM      2  C   LIG    1        0.130   1.419  -2.466  0.00  0.00    +0.030 C 
ATOM      3  C   LIG    1        1.456   2.175  -2.353  0.00  0.00    +0.090 C 
ATOM      4  C   LIG    1        2.064   1.940  -1.000  0.00  0.00    +0.520 C 
ATOM      5  N   LIG    1        1.378   1.476   0.045  0.00  0.00    -0.710 N 
ATOM      6  H   LIG    1        1.845   1.385   0.890  0.00  0.00    +0.410 HD
ATOM      7  O   LIG    1        3.243   2.185  -0.851  0.00  0.00    -0.540 OA
ATOM      8  C   LIG    1       -0.028   1.096  -0.004  0.00  0.00    +0.300 C 
ENDROOT
BRANCH   8   9
ATOM      9  C   LIG    1       -0.716   1.572   1.249  0.00  0.00    -0.060 A 
ATOM     10  C   LIG    1       -0.481   2.724   1.906  0.00  0.00    +0.180 A 
ATOM     11  N   LIG    1       -1.301   2.772   2.966  0.00  0.00    -0.490 NA
ATOM     12  C   LIG    1       -2.031   1.690   2.995  0.00  0.00    +0.410 A 
ATOM     13  N   LIG    1       -1.697   0.914   1.941  0.00  0.00    -0.450 N 
ATOM     14  C   LIG    1       -2.277  -0.388   1.602  0.00  0.00    +0.330 C 
ENDBRANCH   8   9
BRANCH   1  16
ATOM     15  C   LIG    1       -3.009   1.857  -2.018  0.00  0.00    +0.570 C 
ATOM     16  N   LIG    1       -2.051   1.155  -1.380  0.00  0.00    -0.720 N 
ATOM     17  H   LIG    1       -2.249   0.274  -1.027  0.00  0.00    +0.400 HD
ATOM     18  O   LIG    1       -2.760   2.961  -2.461  0.00  0.00    -0.510 OA
BRANCH  15  21
ATOM     19  C   LIG    1       -5.954  -0.484  -1.852  0.00  0.00    +0.330 A 
ATOM     20  C   LIG    1       -4.669   0.013  -1.683  0.00  0.00    -0.030 A 
ATOM     21  C   LIG    1       -4.365   1.282  -2.179  0.00  0.00    -0.050 A 
ATOM     22  C   LIG    1       -5.373   1.994  -2.838  0.00  0.00    +0.000 A 
ATOM     23  C   LIG    1       -6.623   1.424  -2.968  0.00  0.00    +0.170 A 
ATOM     24  C   LIG    1       -7.715   2.183  -3.676  0.00  0.00    +0.140 C 
ATOM     25  N   LIG    1       -6.876   0.225  -2.482  0.00  0.00    -0.520 NA
BRANCH  19  27
ATOM     26  C   LIG    1       -7.603  -2.172  -1.581  0.00  0.00    +0.260 C 
ATOM     27  O   LIG    1       -6.266  -1.714  -1.371  0.00  0.00    -0.310 OA
ENDBRANCH  19  27
ENDBRANCH  15  21
ENDBRANCH   1  16
TORSDOF 4
