REMARK  Name = ZINCtj0000001y4F.1
REMARK                            x       y       z     vdW  Elec       q    Type
REMARK                         _______ _______ _______ _____ _____    ______ ____
ROOT
ATOM      1  C   LIG    1       -1.364   1.929   0.045  0.00  0.00    +0.220 C 
ATOM      2  C   LIG    1       -1.482   2.841   1.292  0.00  0.00    +0.060 C 
ATOM      3  C   LIG    1       -3.021   2.922   1.474  0.00  0.00    +0.060 C 
ATOM      4  C   LIG    1       -3.493   1.514   1.055  0.00  0.00    +0.260 C 
ATOM      5  N   LIG    1       -2.446   0.939   0.195  0.00  0.00    -0.610 N 
ATOM      6  C   LIG    1       -2.471  -0.287  -0.363  0.00  0.00    +0.540 C 
ATOM      7  O   LIG    1       -1.510  -0.691  -0.983  0.00  0.00    -0.520 OA
ENDROOT
BRANCH   1  14
ATOM      8  C   LIG    1        4.288   4.438  -0.666  0.00  0.00    +0.330 C 
ATOM      9  N   LIG    1        3.255   3.453  -1.013  0.00  0.00    -0.390 N 
ATOM     10  C   LIG    1        3.365   2.295  -0.116  0.00  0.00    +0.250 C 
ATOM     11  C   LIG    1        2.363   1.219  -0.548  0.00  0.00    +0.310 C 
ATOM     12  N   LIG    1        1.022   1.824  -0.597  0.00  0.00    -0.640 N 
ATOM     13  C   LIG    1        0.855   3.078  -1.346  0.00  0.00    +0.310 C 
ATOM     14  C   LIG    1       -0.023   1.242   0.023  0.00  0.00    +0.530 C 
ATOM     15  O   LIG    1        0.113   0.162   0.558  0.00  0.00    -0.480 OA
ATOM     16  C   LIG    1        1.930   4.069  -0.873  0.00  0.00    +0.260 C 
ATOM     17  H   LIG    1        3.386   3.151  -1.967  0.00  0.00    +0.430 HD
ENDBRANCH   1  14
BRANCH   6  18
ATOM     18  C   LIG    1       -3.693  -1.157  -0.217  0.00  0.00    +0.060 C 
BRANCH  18  19
ATOM     19  C   LIG    1       -3.462  -2.486  -0.938  0.00  0.00    +0.080 C 
BRANCH  19  20
ATOM     20  C   LIG    1       -4.703  -3.369  -0.790  0.00  0.00    +0.010 C 
ATOM     21  C   LIG    1       -4.426  -4.742  -1.402  0.00  0.00    +0.110 C 
ATOM     22  C   LIG    1       -4.383  -4.629  -2.904  0.00  0.00    -0.120 A 
ATOM     23  C   LIG    1       -3.534  -5.439  -3.632  0.00  0.00    +0.050 A 
ATOM     24  C   LIG    1       -3.502  -5.345  -5.012  0.00  0.00    -0.010 A 
ATOM     25  C   LIG    1       -4.319  -4.442  -5.665  0.00  0.00    +0.040 A 
ATOM     26  C   LIG    1       -5.166  -3.626  -4.942  0.00  0.00    -0.020 A 
ATOM     27  C   LIG    1       -5.196  -3.713  -3.556  0.00  0.00    +0.160 A 
ATOM     28  N   LIG    1       -6.029  -2.863  -2.821  0.00  0.00    -0.660 N 
ATOM     29  H   LIG    1       -6.731  -2.371  -3.274  0.00  0.00    +0.410 HD
ATOM     30  C   LIG    1       -5.866  -2.721  -1.495  0.00  0.00    +0.530 C 
ATOM     31  O   LIG    1       -6.663  -2.064  -0.859  0.00  0.00    -0.520 OA
ENDBRANCH  19  20
ENDBRANCH  18  19
ENDBRANCH   6  18
TORSDOF 4
