REMARK  Name = ZINCpk00000SoDeT.1
REMARK                            x       y       z     vdW  Elec       q    Type
REMARK                         _______ _______ _______ _____ _____    ______ ____
ROOT
ATOM      1  C   LIG    1       -4.197   5.802   0.115  0.00  0.00    +0.630 C 
ATOM      2  N   LIG    1       -3.016   6.444   0.207  0.00  0.00    -0.600 N 
ATOM      3  C   LIG    1       -1.892   6.378  -0.746  0.00  0.00    +0.290 C 
ATOM      4  C   LIG    1       -0.611   6.708   0.042  0.00  0.00    +0.120 C 
ATOM      5  C   LIG    1       -1.089   6.996   1.484  0.00  0.00    +0.020 C 
ATOM      6  C   LIG    1       -2.581   7.362   1.285  0.00  0.00    +0.300 C 
ATOM      7  O   LIG    1       -5.039   5.950   0.980  0.00  0.00    -0.530 OA
ENDROOT
BRANCH   4   8
ATOM      8  C   LIG    1        0.331   5.532   0.028  0.00  0.00    +0.190 A 
ATOM      9  N   LIG    1        1.635   5.584   0.015  0.00  0.00    -0.270 NA
ATOM     10  N   LIG    1        2.116   4.392   0.005  0.00  0.00    -0.280 NA
ATOM     11  C   LIG    1        1.141   3.524   0.010  0.00  0.00    +0.180 A 
ATOM     12  N   LIG    1       -0.020   4.223   0.019  0.00  0.00    -0.560 N 
ATOM     13  H   LIG    1       -0.920   3.860   0.022  0.00  0.00    +0.430 HD
BRANCH  11  14
ATOM     14  C   LIG    1        1.280   2.024   0.001  0.00  0.00    +0.330 C 
BRANCH  14  15
ATOM     15  O   LIG    1       -0.017   1.425   0.010  0.00  0.00    -0.400 OA
ATOM     16  C   LIG    1        0.002  -0.004   0.002  0.00  0.00    +0.230 C 
ENDBRANCH  14  15
ENDBRANCH  11  14
ENDBRANCH   4   8
BRANCH   1  21
ATOM     17  N   LIG    1       -5.618   4.212  -1.246  0.00  0.00    -0.410 N 
ATOM     18  C   LIG    1       -5.460   3.533  -2.407  0.00  0.00    +0.160 A 
ATOM     19  C   LIG    1       -4.226   3.833  -2.881  0.00  0.00    +0.150 A 
ATOM     20  N   LIG    1       -3.646   4.680  -2.033  0.00  0.00    -0.450 NA
ATOM     21  C   LIG    1       -4.468   4.919  -1.033  0.00  0.00    +0.140 A 
BRANCH  17  23
ATOM     22  C   LIG    1       -7.704   5.379  -0.727  0.00  0.00    +0.050 C 
ATOM     23  C   LIG    1       -6.801   4.193  -0.381  0.00  0.00    +0.300 C 
ENDBRANCH  17  23
ENDBRANCH   1  21
BRANCH   5  24
ATOM     24  C   LIG    1       -0.318   8.172   2.087  0.00  0.00    -0.030 C 
ATOM     25  C   LIG    1        0.652   7.868   3.231  0.00  0.00    +0.020 C 
ATOM     26  C   LIG    1       -0.668   8.588   3.517  0.00  0.00    +0.010 C 
ENDBRANCH   5  24
TORSDOF 6
