REMARK  Name = ZINCpk00000SoDeT.0
REMARK                            x       y       z     vdW  Elec       q    Type
REMARK                         _______ _______ _______ _____ _____    ______ ____
ROOT
ATOM      1  C   LIG    1       -2.436  -0.273   1.384  0.00  0.00    +0.630 C 
ATOM      2  N   LIG    1       -3.485  -0.755   2.079  0.00  0.00    -0.600 N 
ATOM      3  C   LIG    1       -4.060  -0.153   3.296  0.00  0.00    +0.300 C 
ATOM      4  C   LIG    1       -5.525  -0.663   3.334  0.00  0.00    +0.110 C 
ATOM      5  C   LIG    1       -5.361  -2.113   2.806  0.00  0.00    +0.030 C 
ATOM      6  C   LIG    1       -4.242  -1.973   1.753  0.00  0.00    +0.290 C 
ATOM      7  O   LIG    1       -2.042  -0.858   0.394  0.00  0.00    -0.530 OA
ENDROOT
BRANCH   4   8
ATOM      8  C   LIG    1       -6.061  -0.658   4.742  0.00  0.00    +0.300 A 
ATOM      9  N   LIG    1       -7.317  -0.532   5.086  0.00  0.00    -0.510 NA
ATOM     10  C   LIG    1       -7.429  -0.574   6.413  0.00  0.00    +0.230 A 
ATOM     11  N   LIG    1       -6.239  -0.719   6.935  0.00  0.00    -0.290 NA
ATOM     12  N   LIG    1       -5.331  -0.776   5.865  0.00  0.00    -0.470 N 
ATOM     13  H   LIG    1       -4.369  -0.880   5.924  0.00  0.00    +0.440 HD
BRANCH  10  14
ATOM     14  C   LIG    1       -8.717  -0.464   7.187  0.00  0.00    +0.320 C 
BRANCH  14  15
ATOM     15  O   LIG    1       -8.982   0.909   7.480  0.00  0.00    -0.380 OA
ATOM     16  C   LIG    1      -10.188   1.124   8.216  0.00  0.00    +0.220 C 
ENDBRANCH  14  15
ENDBRANCH  10  14
ENDBRANCH   4   8
BRANCH   1  21
ATOM     17  N   LIG    1       -0.698   1.558   1.213  0.00  0.00    -0.410 N 
ATOM     18  C   LIG    1       -0.396   2.668   1.928  0.00  0.00    +0.160 A 
ATOM     19  C   LIG    1       -1.275   2.732   2.958  0.00  0.00    +0.150 A 
ATOM     20  N   LIG    1       -2.094   1.686   2.876  0.00  0.00    -0.450 NA
ATOM     21  C   LIG    1       -1.767   0.965   1.825  0.00  0.00    +0.140 A 
BRANCH  17  23
ATOM     22  C   LIG    1       -0.753   1.593  -1.232  0.00  0.00    +0.050 C 
ATOM     23  C   LIG    1       -0.013   1.086   0.008  0.00  0.00    +0.300 C 
ENDBRANCH  17  23
ENDBRANCH   1  21
BRANCH   5  24
ATOM     24  C   LIG    1       -6.657  -2.602   2.156  0.00  0.00    -0.030 C 
ATOM     25  C   LIG    1       -7.370  -3.788   2.808  0.00  0.00    +0.020 C 
ATOM     26  C   LIG    1       -6.634  -3.974   1.479  0.00  0.00    +0.010 C 
ENDBRANCH   5  24
TORSDOF 6
