REMARK  Name = ZINCpk00000SoDeT.2
REMARK                            x       y       z     vdW  Elec       q    Type
REMARK                         _______ _______ _______ _____ _____    ______ ____
ROOT
ATOM      1  C   LIG    1        3.081  -1.486  -1.416  0.00  0.00    +0.630 C 
ATOM      2  N   LIG    1        1.926  -1.272  -0.755  0.00  0.00    -0.600 N 
ATOM      3  C   LIG    1        0.752  -0.522  -1.240  0.00  0.00    +0.300 C 
ATOM      4  C   LIG    1        0.002  -0.004   0.002  0.00  0.00    +0.120 C 
ATOM      5  C   LIG    1        0.808  -0.537   1.209  0.00  0.00    +0.030 C 
ATOM      6  C   LIG    1        1.577  -1.740   0.606  0.00  0.00    +0.290 C 
ATOM      7  O   LIG    1        3.972  -2.126  -0.891  0.00  0.00    -0.540 OA
ENDROOT
BRANCH   4   8
ATOM      8  C   LIG    1       -0.018   1.503   0.010  0.00  0.00    +0.240 A 
ATOM      9  N   LIG    1        1.035   2.277   0.004  0.00  0.00    -0.300 NA
ATOM     10  N   LIG    1        0.566   3.600   0.015  0.00  0.00    -0.460 N 
ATOM     11  H   LIG    1        1.104   4.408   0.015  0.00  0.00    +0.450 HD
ATOM     12  C   LIG    1       -0.776   3.526   0.028  0.00  0.00    +0.290 A 
ATOM     13  N   LIG    1       -1.113   2.262   0.019  0.00  0.00    -0.530 NA
BRANCH  12  14
ATOM     14  C   LIG    1       -1.727   4.696   0.042  0.00  0.00    +0.320 C 
BRANCH  14  15
ATOM     15  O   LIG    1       -0.982   5.915   0.041  0.00  0.00    -0.400 OA
ATOM     16  C   LIG    1       -1.794   7.091   0.054  0.00  0.00    +0.230 C 
ENDBRANCH  14  15
ENDBRANCH  12  14
ENDBRANCH   4   8
BRANCH   1  21
ATOM     17  N   LIG    1        4.380  -1.088  -3.550  0.00  0.00    -0.410 N 
ATOM     18  C   LIG    1        4.141  -0.446  -4.717  0.00  0.00    +0.150 A 
ATOM     19  C   LIG    1        2.892   0.077  -4.637  0.00  0.00    +0.150 A 
ATOM     20  N   LIG    1        2.380  -0.243  -3.451  0.00  0.00    -0.440 NA
ATOM     21  C   LIG    1        3.264  -0.944  -2.775  0.00  0.00    +0.140 A 
BRANCH  17  23
ATOM     22  C   LIG    1        5.441  -3.292  -3.503  0.00  0.00    +0.050 C 
ATOM     23  C   LIG    1        5.606  -1.804  -3.187  0.00  0.00    +0.290 C 
ENDBRANCH  17  23
ENDBRANCH   1  21
BRANCH   5  24
ATOM     24  C   LIG    1       -0.130  -0.998   2.326  0.00  0.00    -0.030 C 
ATOM     25  C   LIG    1       -0.152  -0.174   3.615  0.00  0.00    +0.020 C 
ATOM     26  C   LIG    1        0.509  -1.555   3.600  0.00  0.00    +0.010 C 
ENDBRANCH   5  24
TORSDOF 6
