REMARK  Name = ZINCpk000000oyj7.2
REMARK                            x       y       z     vdW  Elec       q    Type
REMARK                         _______ _______ _______ _____ _____    ______ ____
ROOT
ATOM      1  C   LIG    1       -2.394   3.062   0.268  0.00  0.00    +0.530 C 
ATOM      2  N   LIG    1       -3.670   3.052  -0.164  0.00  0.00    -0.610 N 
ATOM      3  C   LIG    1       -4.619   2.043   0.327  0.00  0.00    +0.270 C 
ATOM      4  C   LIG    1       -5.255   1.335  -0.867  0.00  0.00    +0.020 C 
ATOM      5  C   LIG    1       -5.873   2.375  -1.804  0.00  0.00    +0.000 C 
ATOM      6  C   LIG    1       -4.779   3.311  -2.322  0.00  0.00    +0.020 C 
ATOM      7  C   LIG    1       -4.138   4.045  -1.140  0.00  0.00    +0.280 C 
ATOM      8  O   LIG    1       -1.619   3.897  -0.149  0.00  0.00    -0.510 OA
ENDROOT
BRANCH   1   9
ATOM      9  C   LIG    1       -1.929   2.037   1.269  0.00  0.00    +0.180 C 
BRANCH   9  10
ATOM     10  C   LIG    1       -2.157   2.558   2.665  0.00  0.00    -0.080 A 
ATOM     11  C   LIG    1       -1.349   3.561   3.169  0.00  0.00    +0.050 A 
ATOM     12  C   LIG    1       -1.561   4.041   4.447  0.00  0.00    +0.000 A 
ATOM     13  C   LIG    1       -2.575   3.514   5.225  0.00  0.00    +0.010 A 
ATOM     14  C   LIG    1       -3.379   2.507   4.723  0.00  0.00    +0.000 A 
ATOM     15  C   LIG    1       -3.170   2.029   3.443  0.00  0.00    +0.000 A 
ENDBRANCH   9  10
BRANCH   9  16
ATOM     16  N   LIG    1       -0.497   1.774   1.073  0.00  0.00    -0.520 NA
ATOM     17  C   LIG    1       -0.197   1.526  -0.344  0.00  0.00    +0.190 C 
BRANCH  16  19
ATOM     18  C   LIG    1        0.037   1.110   3.369  0.00  0.00    +0.030 C 
ATOM     19  C   LIG    1       -0.047   0.655   1.910  0.00  0.00    +0.160 C 
ENDBRANCH  16  19
ENDBRANCH   9  16
ENDBRANCH   1   9
BRANCH   5  20
ATOM     20  C   LIG    1       -6.538   1.665  -2.985  0.00  0.00    +0.280 C 
BRANCH  20  21
ATOM     21  N   LIG    1       -7.663   0.861  -2.501  0.00  0.00    -1.120 NA
ATOM     22  H   LIG    1       -7.748   0.667  -1.555  0.00  0.00    +0.420 HD
BRANCH  21  23
ATOM     23  S   LIG    1       -8.789   0.284  -3.570  0.00  0.00    +2.620 S 
ATOM     24  O   LIG    1       -9.180   1.427  -4.318  0.00  0.00    -0.950 OA
ATOM     25  O   LIG    1       -9.721  -0.413  -2.755  0.00  0.00    -0.960 OA
ATOM     26  C   LIG    1       -7.866  -0.876  -4.616  0.00  0.00    -0.280 C 
ENDBRANCH  21  23
ENDBRANCH  20  21
ENDBRANCH   5  20
TORSDOF 7
