REMARK  Name = ZINCvU00000003Zq.0
REMARK                            x       y       z     vdW  Elec       q    Type
REMARK                         _______ _______ _______ _____ _____    ______ ____
ROOT
ATOM      1  C   LIG    1       -2.107   4.045   0.043  0.00  0.00    +0.200 A 
ATOM      2  C   LIG    1       -0.994   3.188   0.028  0.00  0.00    -0.260 A 
ATOM      3  S   LIG    1        0.732   3.519   0.013  0.00  0.00    +0.190 S 
ATOM      4  C   LIG    1        1.109   1.804   0.001  0.00  0.00    -0.080 A 
ATOM      5  C   LIG    1       -0.013   1.076   0.008  0.00  0.00    +0.040 A 
ATOM      6  C   LIG    1       -1.207   1.806   0.017  0.00  0.00    +0.190 A 
ATOM      7  N   LIG    1       -2.488   1.365   0.021  0.00  0.00    -0.500 NA
ATOM      8  C   LIG    1       -3.493   2.204   0.030  0.00  0.00    +0.520 A 
ATOM      9  N   LIG    1       -3.325   3.515   0.036  0.00  0.00    -0.530 NA
ENDROOT
BRANCH   4  10
ATOM     10  C   LIG    1        2.477   1.243  -0.015  0.00  0.00    -0.050 A 
ATOM     11  C   LIG    1        2.667  -0.139  -0.018  0.00  0.00    +0.080 A 
ATOM     12  C   LIG    1        3.945  -0.657  -0.038  0.00  0.00    -0.010 A 
ATOM     13  C   LIG    1        5.040   0.192  -0.044  0.00  0.00    +0.110 A 
ATOM     14  C   LIG    1        4.857   1.566  -0.035  0.00  0.00    -0.010 A 
ATOM     15  F   LIG    1        6.290  -0.320  -0.058  0.00  0.00    -0.130 F 
ATOM     16  C   LIG    1        3.583   2.095  -0.021  0.00  0.00    +0.070 A 
ENDBRANCH   4  10
BRANCH   1  17
ATOM     17  S   LIG    1       -1.891   5.793   0.049  0.00  0.00    +0.060 S 
BRANCH  17  18
ATOM     18  C   LIG    1       -3.621   6.324   0.068  0.00  0.00    +0.110 C 
BRANCH  18  20
ATOM     19  N   LIG    1       -4.879   8.453   0.090  0.00  0.00    -0.600 N 
ATOM     20  C   LIG    1       -3.685   7.830   0.076  0.00  0.00    +0.530 C 
ATOM     21  O   LIG    1       -2.661   8.480   0.070  0.00  0.00    -0.500 OA
BRANCH  19  22
ATOM     22  C   LIG    1       -6.116   7.668   0.098  0.00  0.00    +0.310 C 
BRANCH  22  23
ATOM     23  C   LIG    1       -6.533   7.387   1.543  0.00  0.00    +0.180 C 
BRANCH  23  25
ATOM     24  N   LIG    1       -8.734   5.989   1.557  0.00  0.00    -0.420 NA
ATOM     25  C   LIG    1       -7.775   6.598   1.551  0.00  0.00    +0.200 C 
ENDBRANCH  23  25
ENDBRANCH  22  23
ENDBRANCH  19  22
BRANCH  19  26
ATOM     26  C   LIG    1       -4.941   9.917   0.099  0.00  0.00    +0.420 C 
BRANCH  26  27
ATOM     27  C   LIG    1       -4.976  10.426  -1.319  0.00  0.00    -0.040 A 
ATOM     28  C   LIG    1       -6.084  10.640  -2.052  0.00  0.00    -0.040 A 
ATOM     29  C   LIG    1       -5.656  11.116  -3.312  0.00  0.00    -0.070 A 
ATOM     30  C   LIG    1       -4.312  11.156  -3.278  0.00  0.00    +0.170 A 
ATOM     31  O   LIG    1       -3.905  10.737  -2.069  0.00  0.00    -0.160 OA
ENDBRANCH  26  27
ENDBRANCH  19  26
ENDBRANCH  18  20
ENDBRANCH  17  18
ENDBRANCH   1  17
TORSDOF 9
