REMARK  Name = ZINCrH000004k1g7.0
REMARK                            x       y       z     vdW  Elec       q    Type
REMARK                         _______ _______ _______ _____ _____    ______ ____
ROOT
ATOM      1  C   LIG    1       -0.062   0.768   0.114  0.00  0.00    +0.290 C 
ATOM      2  N   LIG    1       -0.725   1.391   1.262  0.00  0.00    -0.610 N 
ATOM      3  C   LIG    1       -0.017   1.690   2.369  0.00  0.00    +0.530 C 
ATOM      4  O   LIG    1       -0.578   2.144   3.343  0.00  0.00    -0.520 OA
ENDROOT
BRANCH   3   5
ATOM      5  C   LIG    1        1.472   1.460   2.395  0.00  0.00    -0.040 C 
ATOM      6  C   LIG    1        2.176   2.533   1.555  0.00  0.00    +0.270 C 
ATOM      7  O   LIG    1        3.571   2.230   1.515  0.00  0.00    -0.310 OA
ATOM      8  C   LIG    1        4.197   1.960   2.690  0.00  0.00    +0.130 A 
ATOM      9  C   LIG    1        5.586   2.018   2.731  0.00  0.00    +0.010 A 
ATOM     10  C   LIG    1        6.259   1.746   3.905  0.00  0.00    +0.060 A 
ATOM     11  C   LIG    1        5.551   1.414   5.045  0.00  0.00    -0.060 A 
ATOM     12  C   LIG    1        4.170   1.357   5.009  0.00  0.00    +0.070 A 
ATOM     13 CL   LIG    1        6.395   1.070   6.523  0.00  0.00    -0.070 Cl
ATOM     14  C   LIG    1        3.490   1.631   3.834  0.00  0.00    -0.140 A 
ATOM     15  C   LIG    1        1.984   1.562   3.834  0.00  0.00    +0.130 C 
ENDBRANCH   3   5
BRANCH   2  16
ATOM     16  C   LIG    1       -2.158   1.690   1.206  0.00  0.00    +0.380 C 
BRANCH  16  17
ATOM     17  C   LIG    1       -2.938   0.506   1.719  0.00  0.00    -0.250 A 
ATOM     18  C   LIG    1       -3.401  -0.525   0.975  0.00  0.00    +0.250 A 
ATOM     19  N   LIG    1       -4.043  -1.376   1.806  0.00  0.00    -0.320 N 
ATOM     20  N   LIG    1       -3.979  -0.845   3.100  0.00  0.00    -0.290 NA
ATOM     21  C   LIG    1       -3.317   0.283   3.047  0.00  0.00    +0.270 A 
BRANCH  19  22
ATOM     22  C   LIG    1       -4.668  -2.576   1.437  0.00  0.00    +0.160 A 
ATOM     23  C   LIG    1       -4.661  -2.984   0.110  0.00  0.00    -0.010 A 
ATOM     24  C   LIG    1       -5.272  -4.169  -0.250  0.00  0.00    +0.040 A 
ATOM     25  C   LIG    1       -5.900  -4.944   0.709  0.00  0.00    +0.000 A 
ATOM     26  C   LIG    1       -5.913  -4.537   2.030  0.00  0.00    +0.040 A 
ATOM     27  C   LIG    1       -5.299  -3.356   2.397  0.00  0.00    +0.020 A 
ENDBRANCH  19  22
ENDBRANCH  16  17
ENDBRANCH   2  16
TORSDOF 4
