REMARK  Name = ZINCvU0000000Huv.0
REMARK                            x       y       z     vdW  Elec       q    Type
REMARK                         _______ _______ _______ _____ _____    ______ ____
ROOT
ATOM      1  C   LIG    1        1.196  -0.734  -0.098  0.00  0.00    +0.180 A 
ATOM      2  C   LIG    1        2.416  -0.071  -0.110  0.00  0.00    +0.010 A 
ATOM      3  C   LIG    1        3.592  -0.787  -0.226  0.00  0.00    +0.050 A 
ATOM      4  C   LIG    1        3.558  -2.164  -0.331  0.00  0.00    -0.030 A 
ATOM      5  C   LIG    1        2.340  -2.833  -0.319  0.00  0.00    +0.180 A 
ATOM      6  C   LIG    1        1.158  -2.118  -0.197  0.00  0.00    -0.010 A 
ENDROOT
BRANCH   1   9
ATOM      7  N   LIG    1       -1.280   1.862  -0.528  0.00  0.00    -0.620 N 
ATOM      8  C   LIG    1       -0.103   1.206  -0.555  0.00  0.00    +0.710 C 
ATOM      9  N   LIG    1        0.005  -0.008   0.019  0.00  0.00    -0.680 N 
ATOM     10  H   LIG    1       -0.742  -0.379   0.515  0.00  0.00    +0.410 HD
ATOM     11  O   LIG    1        0.860   1.708  -1.103  0.00  0.00    -0.570 OA
ATOM     12  C   LIG    1       -2.442   1.255   0.126  0.00  0.00    +0.280 C 
BRANCH   7  13
ATOM     13  C   LIG    1       -1.398   3.182  -1.153  0.00  0.00    +0.370 C 
BRANCH  13  17
ATOM     14  C   LIG    1       -2.560   2.725  -5.241  0.00  0.00    +0.100 A 
ATOM     15  C   LIG    1       -1.217   2.749  -4.899  0.00  0.00    -0.040 A 
ATOM     16  C   LIG    1       -0.844   2.903  -3.577  0.00  0.00    +0.080 A 
ATOM     17  C   LIG    1       -1.809   3.021  -2.594  0.00  0.00    -0.120 A 
ATOM     18  C   LIG    1       -3.150   2.997  -2.931  0.00  0.00    +0.040 A 
ATOM     19  C   LIG    1       -3.529   2.849  -4.253  0.00  0.00    +0.060 A 
ATOM     20  F   LIG    1       -4.839   2.826  -4.582  0.00  0.00    -0.130 F 
BRANCH  14  22
ATOM     21  C   LIG    1       -1.880   2.457  -7.504  0.00  0.00    +0.250 C 
ATOM     22  O   LIG    1       -2.929   2.580  -6.542  0.00  0.00    -0.310 OA
ENDBRANCH  14  22
ENDBRANCH  13  17
ENDBRANCH   7  13
ENDBRANCH   1   9
BRANCH   5  23
ATOM     23  N   LIG    1        2.307  -4.229  -0.424  0.00  0.00    -0.680 N 
ATOM     24  H   LIG    1        3.006  -4.763  -0.016  0.00  0.00    +0.410 HD
ATOM     25  C   LIG    1        1.302  -4.830  -1.092  0.00  0.00    +0.700 C 
ATOM     26  N   LIG    1        1.318  -6.165  -1.273  0.00  0.00    -0.680 N 
ATOM     27  H   LIG    1        2.010  -6.703  -0.857  0.00  0.00    +0.410 HD
ATOM     28  O   LIG    1        0.382  -4.168  -1.530  0.00  0.00    -0.550 OA
BRANCH  26  29
ATOM     29  C   LIG    1        0.337  -6.776  -2.061  0.00  0.00    +0.160 A 
ATOM     30  C   LIG    1       -0.129  -8.043  -1.735  0.00  0.00    -0.020 A 
ATOM     31  C   LIG    1       -1.101  -8.642  -2.512  0.00  0.00    +0.030 A 
ATOM     32  C   LIG    1       -1.604  -7.984  -3.620  0.00  0.00    -0.010 A 
ATOM     33  C   LIG    1       -1.139  -6.725  -3.951  0.00  0.00    +0.030 A 
ATOM     34  C   LIG    1       -0.170  -6.119  -3.175  0.00  0.00    +0.010 A 
ENDBRANCH  26  29
ENDBRANCH   5  23
TORSDOF 6
