REMARK  Name = ZINCrg00001Jdv5j.0
REMARK                            x       y       z     vdW  Elec       q    Type
REMARK                         _______ _______ _______ _____ _____    ______ ____
ROOT
ATOM      1  C   LIG    1        1.910  -2.649   1.234  0.00  0.00    +0.510 C 
ATOM      2  N   LIG    1        2.520  -3.826   1.475  0.00  0.00    -0.610 N 
ATOM      3  C   LIG    1        2.905  -4.719   0.370  0.00  0.00    +0.260 C 
ATOM      4  C   LIG    1        4.376  -5.111   0.555  0.00  0.00    +0.220 C 
ATOM      5  O   LIG    1        4.564  -5.619   1.878  0.00  0.00    -0.360 OA
ATOM      6  C   LIG    1        4.297  -4.670   2.913  0.00  0.00    +0.160 C 
ATOM      7  C   LIG    1        2.827  -4.253   2.849  0.00  0.00    +0.260 C 
ATOM      8  O   LIG    1        1.577  -2.358   0.105  0.00  0.00    -0.510 OA
ENDROOT
BRANCH   1  10
ATOM      9  C   LIG    1        0.476  -2.217   3.211  0.00  0.00    +0.090 C 
ATOM     10  C   LIG    1        1.641  -1.694   2.369  0.00  0.00    +0.280 C 
BRANCH  10  11
ATOM     11  N   LIG    1        1.300  -0.376   1.827  0.00  0.00    -0.350 N 
ATOM     12  C   LIG    1        0.073   0.026   1.431  0.00  0.00    +0.270 A 
ATOM     13  C   LIG    1        0.179   1.304   0.996  0.00  0.00    -0.190 A 
ATOM     14  C   LIG    1        1.515   1.696   1.132  0.00  0.00    +0.260 A 
ATOM     15 CL   LIG    1       -1.115   2.284   0.380  0.00  0.00    -0.040 Cl
ATOM     16  N   LIG    1        2.188   0.689   1.630  0.00  0.00    -0.280 NA
ENDBRANCH  10  11
ENDBRANCH   1  10
BRANCH   6  17
ATOM     17  C   LIG    1        4.592  -5.303   4.275  0.00  0.00    +0.080 C 
BRANCH  17  18
ATOM     18  C   LIG    1        6.065  -5.602   4.381  0.00  0.00    +0.520 C 
ATOM     19  N   LIG    1        6.559  -6.166   5.501  0.00  0.00    -0.610 N 
ATOM     20  C   LIG    1        5.698  -6.388   6.670  0.00  0.00    +0.270 C 
ATOM     21  C   LIG    1        5.793  -7.861   7.080  0.00  0.00    +0.030 C 
ATOM     22  C   LIG    1        7.261  -8.231   7.301  0.00  0.00    -0.020 C 
ATOM     23  C   LIG    1        8.039  -8.041   5.997  0.00  0.00    +0.160 C 
ATOM     24  C   LIG    1        7.969  -6.575   5.573  0.00  0.00    +0.230 C 
ATOM     25  C   LIG    1        8.623  -6.409   4.200  0.00  0.00    +0.060 C 
ATOM     26  O   LIG    1        6.806  -5.336   3.458  0.00  0.00    -0.510 OA
BRANCH  23  27
ATOM     27  O   LIG    1        7.464  -8.858   4.976  0.00  0.00    -0.550 OA
ATOM     28  H   LIG    1        7.472  -9.804   5.177  0.00  0.00    +0.370 HD
ENDBRANCH  23  27
ENDBRANCH  17  18
ENDBRANCH   6  17
TORSDOF 5
