REMARK  Name = ZINCb80000001CM7.0
REMARK                            x       y       z     vdW  Elec       q    Type
REMARK                         _______ _______ _______ _____ _____    ______ ____
ROOT
ATOM      1  C   LIG    1        0.891   5.820   0.025  0.00  0.00    -0.130 A 
ATOM      2  C   LIG    1        0.967   5.115   1.227  0.00  0.00    +0.080 A 
ATOM      3  C   LIG    1        1.095   3.742   1.212  0.00  0.00    +0.020 A 
ATOM      4  C   LIG    1        1.147   3.062   0.008  0.00  0.00    -0.070 A 
ATOM      5  C   LIG    1        1.077   3.755  -1.188  0.00  0.00    +0.020 A 
ATOM      6  C   LIG    1        0.944   5.128  -1.187  0.00  0.00    +0.040 A 
ENDROOT
BRANCH   1  10
ATOM      7  N   LIG    1        0.681   7.969  -1.129  0.00  0.00    -0.850 N 
ATOM      8  H   LIG    1        0.592   8.935  -1.123  0.00  0.00    +0.410 HD
ATOM      9  H   LIG    1        0.718   7.490  -1.972  0.00  0.00    +0.400 HD
ATOM     10  C   LIG    1        0.755   7.292   0.034  0.00  0.00    +0.560 C 
ATOM     11  O   LIG    1        0.709   7.891   1.090  0.00  0.00    -0.540 OA
ENDBRANCH   1  10
BRANCH   4  12
ATOM     12  C   LIG    1        1.286   1.562  -0.002  0.00  0.00    +0.230 C 
BRANCH  12  13
ATOM     13  O   LIG    1       -0.011   0.963   0.007  0.00  0.00    -0.570 OA
ATOM     14  H   LIG    1        0.002  -0.004   0.002  0.00  0.00    +0.380 HD
ENDBRANCH  12  13
ENDBRANCH   4  12
TORSDOF 3
