REMARK  Name = ZINCrD000000CJCw.0
REMARK                            x       y       z     vdW  Elec       q    Type
REMARK                         _______ _______ _______ _____ _____    ______ ____
ROOT
ATOM      1  C   LIG    1        2.900   3.380   1.134  0.00  0.00    +0.590 C 
ATOM      2  N   LIG    1        4.011   2.649   0.916  0.00  0.00    -0.600 N 
ATOM      3  C   LIG    1        3.950   1.182   0.925  0.00  0.00    +0.290 C 
ATOM      4  C   LIG    1        4.460   0.664  -0.431  0.00  0.00    +0.050 C 
ATOM      5  C   LIG    1        5.781   1.337  -0.733  0.00  0.00    -0.100 C 
ATOM      6  C   LIG    1        5.846   2.848  -0.682  0.00  0.00    +0.070 C 
ATOM      7  C   LIG    1        6.855   0.621  -1.034  0.00  0.00    +0.000 C 
ATOM      8  C   LIG    1        5.300   3.311   0.674  0.00  0.00    +0.290 C 
ATOM      9  O   LIG    1        2.907   4.576   0.918  0.00  0.00    -0.500 OA
ENDROOT
BRANCH   1  21
ATOM     10  O   LIG    1        0.336   4.653   1.386  0.00  0.00    -0.420 OA
ATOM     11  C   LIG    1        0.411   3.483   1.719  0.00  0.00    +0.410 A 
ATOM     12  C   LIG    1       -0.756   2.741   2.231  0.00  0.00    -0.190 A 
ATOM     13  C   LIG    1       -2.009   3.332   2.364  0.00  0.00    +0.120 A 
ATOM     14  C   LIG    1       -3.059   2.588   2.831  0.00  0.00    +0.000 A 
ATOM     15  C   LIG    1       -2.877   1.259   3.187  0.00  0.00    +0.090 A 
ATOM     16  C   LIG    1       -1.643   0.658   3.067  0.00  0.00    -0.020 A 
ATOM     17  C   LIG    1       -0.563   1.391   2.585  0.00  0.00    +0.140 A 
ATOM     18  N   LIG    1        0.683   0.829   2.451  0.00  0.00    -0.430 N 
ATOM     19  H   LIG    1        0.798  -0.101   2.702  0.00  0.00    +0.450 HD
ATOM     20  N   LIG    1        1.699   1.468   2.006  0.00  0.00    -0.140 NA
ATOM     21  C   LIG    1        1.675   2.728   1.633  0.00  0.00    -0.060 A 
ENDBRANCH   1  21
BRANCH   7  22
ATOM     22  C   LIG    1        6.744  -0.844  -1.201  0.00  0.00    -0.080 A 
ATOM     23  C   LIG    1        5.641  -1.392  -1.855  0.00  0.00    +0.050 A 
ATOM     24  C   LIG    1        5.545  -2.760  -2.013  0.00  0.00    +0.000 A 
ATOM     25  C   LIG    1        6.535  -3.588  -1.515  0.00  0.00    +0.040 A 
ATOM     26  C   LIG    1        7.629  -3.053  -0.860  0.00  0.00    -0.010 A 
ATOM     27  C   LIG    1        7.741  -1.685  -0.700  0.00  0.00    +0.110 A 
ATOM     28  F   LIG    1        8.810  -1.163  -0.060  0.00  0.00    -0.140 F 
ENDBRANCH   7  22
TORSDOF 2
