REMARK  Name = ZINCvU00000005vZ.0
REMARK                            x       y       z     vdW  Elec       q    Type
REMARK                         _______ _______ _______ _____ _____    ______ ____
ROOT
ATOM      1  C   LIG    1        7.665   9.534   0.594  0.00  0.00    -0.100 A 
ATOM      2  C   LIG    1        6.752   8.540   0.378  0.00  0.00    +0.150 A 
ATOM      3  C   LIG    1        7.191   7.238   0.143  0.00  0.00    -0.200 A 
ATOM      4  C   LIG    1        8.565   6.939   0.120  0.00  0.00    +0.150 A 
ATOM      5  O   LIG    1        8.989   5.685  -0.125  0.00  0.00    -0.190 OA
ATOM      6  C   LIG    1        8.162   4.645  -0.040  0.00  0.00    +0.200 A 
ATOM      7  C   LIG    1        6.806   4.772  -0.031  0.00  0.00    -0.210 A 
ATOM      8  C   LIG    1        9.479   7.961   0.345  0.00  0.00    +0.030 A 
ATOM      9  C   LIG    1        6.237   6.135  -0.086  0.00  0.00    +0.440 A 
ATOM     10  O   LIG    1        5.056   6.335  -0.306  0.00  0.00    -0.430 OA
ATOM     11  C   LIG    1        9.028   9.249   0.580  0.00  0.00    +0.150 A 
ENDROOT
BRANCH   7  12
ATOM     12  C   LIG    1        5.931   3.585   0.038  0.00  0.00    +0.070 A 
ATOM     13  N   LIG    1        6.318   2.339  -0.027  0.00  0.00    -0.250 NA
ATOM     14  N   LIG    1        5.431   1.446   0.054  0.00  0.00    -0.250 NA
ATOM     15  C   LIG    1        4.192   1.833   0.187  0.00  0.00    +0.050 A 
ATOM     16  S   LIG    1        4.176   3.597   0.222  0.00  0.00    +0.170 S 
BRANCH  15  17
ATOM     17  C   LIG    1        3.012   0.950   0.295  0.00  0.00    -0.030 A 
ATOM     18  C   LIG    1        1.737   1.498   0.441  0.00  0.00    +0.040 A 
ATOM     19  C   LIG    1        0.639   0.668   0.542  0.00  0.00    +0.010 A 
ATOM     20  C   LIG    1        0.801  -0.705   0.498  0.00  0.00    +0.030 A 
ATOM     21  C   LIG    1        2.062  -1.256   0.353  0.00  0.00    +0.010 A 
ATOM     22  C   LIG    1        3.167  -0.437   0.252  0.00  0.00    +0.070 A 
ENDBRANCH  15  17
ENDBRANCH   7  12
BRANCH   1  24
ATOM     23  C   LIG    1        7.197  11.725  -0.468  0.00  0.00    +0.040 C 
ATOM     24  C   LIG    1        7.195  10.943   0.847  0.00  0.00    +0.080 C 
ENDBRANCH   1  24
BRANCH   6  25
ATOM     25  C   LIG    1        8.754   3.261   0.043  0.00  0.00    +0.270 C 
ATOM     26 CL   LIG    1        9.011   2.616  -1.621  0.00  0.00    -0.120 Cl
ENDBRANCH   6  25
BRANCH  11  27
ATOM     27  O   LIG    1        9.925  10.245   0.800  0.00  0.00    -0.280 OA
BRANCH  27  28
ATOM     28  C   LIG    1       10.234  10.516   2.079  0.00  0.00    +0.450 C 
ATOM     29  O   LIG    1        9.793   9.825   2.966  0.00  0.00    -0.460 OA
BRANCH  28  30
ATOM     30  C   LIG    1       11.131  11.681   2.406  0.00  0.00    +0.240 C 
ATOM     31 CL   LIG    1       11.356  11.783   4.192  0.00  0.00    -0.110 Cl
ENDBRANCH  28  30
ENDBRANCH  27  28
ENDBRANCH  11  27
TORSDOF 7
