REMARK  Name = ZINCtV00000L6k8I.0
REMARK                            x       y       z     vdW  Elec       q    Type
REMARK                         _______ _______ _______ _____ _____    ______ ____
ROOT
ATOM      1  C   LIG    1       -2.655  -2.439   0.296  0.00  0.00    -0.230 A 
ATOM      2  C   LIG    1       -3.355  -2.995  -0.708  0.00  0.00    +0.160 A 
ATOM      3  N   LIG    1       -4.521  -3.537  -0.357  0.00  0.00    -0.510 NA
ATOM      4  C   LIG    1       -4.845  -3.468   0.896  0.00  0.00    +0.340 A 
ATOM      5  S   LIG    1       -3.571  -2.641   1.788  0.00  0.00    +0.090 S 
ENDROOT
BRANCH   2   6
ATOM      6  C   LIG    1       -2.865  -3.005  -2.107  0.00  0.00    -0.020 A 
ATOM      7  C   LIG    1       -2.138  -1.922  -2.602  0.00  0.00    +0.010 A 
ATOM      8  C   LIG    1       -1.679  -1.939  -3.903  0.00  0.00    +0.000 A 
ATOM      9  C   LIG    1       -1.949  -3.022  -4.720  0.00  0.00    +0.010 A 
ATOM     10  C   LIG    1       -2.675  -4.096  -4.237  0.00  0.00    +0.010 A 
ATOM     11  C   LIG    1       -3.134  -4.093  -2.936  0.00  0.00    +0.050 A 
ENDBRANCH   2   6
BRANCH   4  12
ATOM     12  N   LIG    1       -6.012  -3.971   1.450  0.00  0.00    -0.630 N 
ATOM     13  H   LIG    1       -6.138  -3.957   2.412  0.00  0.00    +0.420 HD
BRANCH  12  14
ATOM     14  C   LIG    1       -7.007  -4.500   0.623  0.00  0.00    +0.160 A 
ATOM     15  C   LIG    1       -7.188  -3.994  -0.659  0.00  0.00    +0.020 A 
ATOM     16  C   LIG    1       -8.169  -4.522  -1.475  0.00  0.00    +0.020 A 
ATOM     17  C   LIG    1       -8.977  -5.545  -1.015  0.00  0.00    -0.020 A 
ATOM     18  C   LIG    1       -8.804  -6.046   0.262  0.00  0.00    +0.030 A 
ATOM     19  C   LIG    1       -7.821  -5.527   1.082  0.00  0.00    -0.030 A 
ENDBRANCH  12  14
ENDBRANCH   4  12
BRANCH   1  20
ATOM     20  C   LIG    1       -1.314  -1.764   0.169  0.00  0.00    +0.170 C 
BRANCH  20  22
ATOM     21  O   LIG    1       -2.636   0.156  -0.197  0.00  0.00    -0.500 OA
ATOM     22  C   LIG    1       -1.514  -0.297  -0.111  0.00  0.00    +0.510 C 
ATOM     23  N   LIG    1       -0.447   0.512  -0.264  0.00  0.00    -0.680 N 
ATOM     24  H   LIG    1        0.448   0.138  -0.269  0.00  0.00    +0.410 HD
BRANCH  23  25
ATOM     25  C   LIG    1       -0.630   1.891  -0.415  0.00  0.00    +0.150 A 
ATOM     26  C   LIG    1        0.237   2.624  -1.215  0.00  0.00    +0.010 A 
ATOM     27  C   LIG    1        0.052   3.984  -1.366  0.00  0.00    +0.050 A 
ATOM     28  C   LIG    1       -0.992   4.619  -0.715  0.00  0.00    -0.050 A 
ATOM     29  C   LIG    1       -1.854   3.891   0.086  0.00  0.00    +0.050 A 
ATOM     30 CL   LIG    1       -1.218   6.329  -0.902  0.00  0.00    -0.070 Cl
ATOM     31  C   LIG    1       -1.676   2.530   0.238  0.00  0.00    +0.030 A 
ENDBRANCH  23  25
ENDBRANCH  20  22
ENDBRANCH   1  20
TORSDOF 6
