REMARK  Name = ZINCrg00000IZHgQ.0
REMARK                            x       y       z     vdW  Elec       q    Type
REMARK                         _______ _______ _______ _____ _____    ______ ____
ROOT
ATOM      1  O   LIG    1        3.255   4.826   1.221  0.00  0.00    -0.580 OA
ATOM      2  C   LIG    1        3.949   5.239   2.130  0.00  0.00    +0.720 C 
ATOM      3  N   LIG    1        4.273   6.546   2.191  0.00  0.00    -0.630 N 
ATOM      4  C   LIG    1        3.712   7.511   1.232  0.00  0.00    +0.280 C 
ATOM      5  C   LIG    1        3.132   8.692   2.018  0.00  0.00    +0.230 C 
ATOM      6  O   LIG    1        4.126   9.193   2.916  0.00  0.00    -0.370 OA
ATOM      7  C   LIG    1        4.547   8.254   3.907  0.00  0.00    +0.220 C 
ATOM      8  C   LIG    1        5.194   7.051   3.221  0.00  0.00    +0.280 C 
ATOM      9  N   LIG    1        4.394   4.390   3.078  0.00  0.00    -0.750 N 
ATOM     10  H   LIG    1        5.007   4.703   3.761  0.00  0.00    +0.400 HD
ENDROOT
BRANCH   7  11
ATOM     11  C   LIG    1        5.543   8.908   4.830  0.00  0.00    +0.200 A 
ATOM     12  C   LIG    1        5.836  10.256   4.703  0.00  0.00    -0.070 A 
ATOM     13  C   LIG    1        6.759  10.818   5.572  0.00  0.00    +0.340 A 
ATOM     14  N   LIG    1        7.328  10.056   6.490  0.00  0.00    -0.550 NA
ATOM     15  C   LIG    1        7.025   8.769   6.585  0.00  0.00    +0.490 A 
ATOM     16  N   LIG    1        6.144   8.202   5.774  0.00  0.00    -0.520 NA
BRANCH  15  17
ATOM     17  N   LIG    1        7.640   8.000   7.558  0.00  0.00    -0.450 N 
ATOM     18  C   LIG    1        8.458   6.921   6.946  0.00  0.00    +0.200 C 
ATOM     19  C   LIG    1        9.441   6.536   8.080  0.00  0.00    +0.030 C 
ATOM     20  C   LIG    1        9.758   7.897   8.740  0.00  0.00    +0.020 C 
ATOM     21  C   LIG    1        8.580   8.813   8.360  0.00  0.00    +0.220 C 
ENDBRANCH  15  17
ENDBRANCH   7  11
BRANCH   9  22
ATOM     22  C   LIG    1        3.952   2.993   3.075  0.00  0.00    +0.280 C 
BRANCH  22  23
ATOM     23  C   LIG    1        4.599   2.251   4.246  0.00  0.00    +0.320 C 
BRANCH  23  24
ATOM     24  N   LIG    1        4.157   0.855   4.244  0.00  0.00    -0.380 N 
ATOM     25  C   LIG    1        4.958  -0.232   4.230  0.00  0.00    +0.230 A 
ATOM     26  C   LIG    1        4.165  -1.328   4.233  0.00  0.00    -0.120 A 
ATOM     27  C   LIG    1        2.834  -0.897   4.250  0.00  0.00    +0.240 A 
ATOM     28  N   LIG    1        2.828   0.411   4.256  0.00  0.00    -0.290 NA
ENDBRANCH  23  24
ENDBRANCH  22  23
ENDBRANCH   9  22
TORSDOF 5
