REMARK  Name = ZINCkj000005jbQn.2
REMARK                            x       y       z     vdW  Elec       q    Type
REMARK                         _______ _______ _______ _____ _____    ______ ____
ROOT
ATOM      1  C   LIG    1        2.694  -1.670   3.649  0.00  0.00    +0.130 C 
ATOM      2  C   LIG    1        2.883  -0.754   2.438  0.00  0.00    +0.250 C 
ATOM      3  N   LIG    1        1.920   0.354   2.509  0.00  0.00    -0.380 N 
ATOM      4  C   LIG    1        2.146   1.119   3.743  0.00  0.00    +0.230 C 
ATOM      5  C   LIG    1        1.958   0.200   4.952  0.00  0.00    +0.270 C 
ATOM      6  H   LIG    1        2.043   0.959   1.710  0.00  0.00    +0.430 HD
ATOM      7  O   LIG    1        2.858  -0.906   4.848  0.00  0.00    -0.340 OA
ENDROOT
BRANCH   1   9
ATOM      8  C   LIG    1        3.547  -3.702   4.825  0.00  0.00    +0.030 C 
ATOM      9  C   LIG    1        3.734  -2.791   3.611  0.00  0.00    +0.240 C 
BRANCH   9  10
ATOM     10  O   LIG    1        3.569  -3.553   2.413  0.00  0.00    -0.550 OA
ATOM     11  H   LIG    1        2.699  -3.967   2.328  0.00  0.00    +0.380 HD
ENDBRANCH   9  10
ENDBRANCH   1   9
BRANCH   3  12
ATOM     12  C   LIG    1        0.553  -0.184   2.509  0.00  0.00    +0.310 C 
BRANCH  12  13
ATOM     13  C   LIG    1       -0.435   0.953   2.459  0.00  0.00    -0.160 A 
ATOM     14  C   LIG    1       -1.057   1.374   3.617  0.00  0.00    +0.040 A 
ATOM     15  C   LIG    1       -1.963   2.417   3.571  0.00  0.00    +0.030 A 
ATOM     16  C   LIG    1       -2.244   3.033   2.368  0.00  0.00    +0.060 A 
ATOM     17  C   LIG    1       -1.621   2.610   1.204  0.00  0.00    -0.110 A 
ATOM     18  C   LIG    1       -1.956   3.304  -0.090  0.00  0.00    +0.290 C 
ATOM     19  O   LIG    1       -0.979   2.997  -1.084  0.00  0.00    -0.370 OA
ATOM     20  C   LIG    1       -0.750   1.591  -1.233  0.00  0.00    +0.240 C 
ATOM     21  C   LIG    1       -0.013   1.086   0.008  0.00  0.00    +0.040 C 
ATOM     22  C   LIG    1       -0.716   1.571   1.250  0.00  0.00    -0.050 A 
ENDBRANCH  12  13
ENDBRANCH   3  12
TORSDOF 4
