REMARK  Name = ZINCkj000005jbQn.1
REMARK                            x       y       z     vdW  Elec       q    Type
REMARK                         _______ _______ _______ _____ _____    ______ ____
ROOT
ATOM      1  C   LIG    1        0.382   1.544   2.554  0.00  0.00    +0.170 C 
ATOM      2  C   LIG    1       -0.486   1.832   3.782  0.00  0.00    +0.250 C 
ATOM      3  N   LIG    1        0.186   1.323   4.985  0.00  0.00    -0.390 N 
ATOM      4  C   LIG    1        1.488   1.988   5.136  0.00  0.00    +0.230 C 
ATOM      5  C   LIG    1        2.352   1.700   3.906  0.00  0.00    +0.270 C 
ATOM      6  H   LIG    1        0.326   0.327   4.897  0.00  0.00    +0.420 HD
ATOM      7  O   LIG    1        1.666   2.147   2.733  0.00  0.00    -0.350 OA
ENDROOT
BRANCH   1   9
ATOM      8  C   LIG    1        0.581   1.837   0.081  0.00  0.00    +0.030 C 
ATOM      9  C   LIG    1       -0.287   2.126   1.308  0.00  0.00    +0.190 C 
BRANCH   9  10
ATOM     10  O   LIG    1       -1.573   1.527   1.133  0.00  0.00    -0.570 OA
ATOM     11  H   LIG    1       -2.055   1.849   0.360  0.00  0.00    +0.400 HD
ENDBRANCH   9  10
ENDBRANCH   1   9
BRANCH   3  12
ATOM     12  C   LIG    1       -0.645   1.598   6.165  0.00  0.00    +0.320 C 
BRANCH  12  13
ATOM     13  C   LIG    1       -0.028   0.949   7.377  0.00  0.00    -0.160 A 
ATOM     14  C   LIG    1        0.724   1.705   8.254  0.00  0.00    +0.040 A 
ATOM     15  C   LIG    1        1.284   1.110   9.369  0.00  0.00    +0.030 A 
ATOM     16  C   LIG    1        1.101  -0.239   9.595  0.00  0.00    +0.060 A 
ATOM     17  C   LIG    1        0.353  -1.001   8.711  0.00  0.00    -0.110 A 
ATOM     18  C   LIG    1        0.181  -2.472   8.988  0.00  0.00    +0.290 C 
ATOM     19  O   LIG    1       -0.890  -3.001   8.207  0.00  0.00    -0.360 OA
ATOM     20  C   LIG    1       -0.774  -2.693   6.813  0.00  0.00    +0.230 C 
ATOM     21  C   LIG    1       -1.039  -1.199   6.622  0.00  0.00    +0.040 C 
ATOM     22  C   LIG    1       -0.213  -0.406   7.603  0.00  0.00    -0.050 A 
ENDBRANCH  12  13
ENDBRANCH   3  12
TORSDOF 4
