REMARK  Name = ZINCpk000000mw7q.0
REMARK                            x       y       z     vdW  Elec       q    Type
REMARK                         _______ _______ _______ _____ _____    ______ ____
ROOT
ATOM      1  C   LIG    1        4.185   2.084   0.002  0.00  0.00    +0.160 A 
ATOM      2  N   LIG    1        3.613   3.269  -0.023  0.00  0.00    -0.250 NA
ATOM      3  N   LIG    1        4.532   4.172   0.013  0.00  0.00    -0.250 N 
ATOM      4  C   LIG    1        5.732   3.558   0.063  0.00  0.00    +0.230 A 
ATOM      5  C   LIG    1        7.076   4.236   0.118  0.00  0.00    +0.210 C 
ATOM      6  N   LIG    1        5.517   2.267   0.056  0.00  0.00    -0.480 NA
ENDROOT
BRANCH   1  12
ATOM      7  N   LIG    1        5.550  -2.473  -1.350  0.00  0.00    -0.540 NA
ATOM      8  C   LIG    1        6.151  -1.133  -1.373  0.00  0.00    +0.170 C 
ATOM      9  C   LIG    1        5.665  -0.338  -0.156  0.00  0.00    +0.300 C 
ATOM     10  N   LIG    1        4.194  -0.360  -0.141  0.00  0.00    -0.590 N 
ATOM     11  C   LIG    1        3.517  -1.661  -0.247  0.00  0.00    +0.300 C 
ATOM     12  C   LIG    1        3.487   0.781  -0.026  0.00  0.00    +0.620 C 
ATOM     13  O   LIG    1        2.274   0.739   0.054  0.00  0.00    -0.520 OA
ATOM     14  C   LIG    1        4.087  -2.403  -1.466  0.00  0.00    +0.170 C 
BRANCH   7  15
ATOM     15  C   LIG    1        6.122  -3.324  -2.402  0.00  0.00    +0.180 C 
BRANCH  15  16
ATOM     16  C   LIG    1        5.663  -4.769  -2.194  0.00  0.00    +0.180 C 
BRANCH  16  18
ATOM     17  C   LIG    1        6.693  -6.302  -4.089  0.00  0.00    +0.020 C 
ATOM     18  C   LIG    1        6.236  -5.622  -3.248  0.00  0.00    -0.190 C 
ENDBRANCH  16  18
ENDBRANCH  15  16
ENDBRANCH   7  15
ENDBRANCH   1  12
BRANCH   3  19
ATOM     19  C   LIG    1        4.319   5.557   0.008  0.00  0.00    +0.110 A 
ATOM     20  C   LIG    1        5.153   6.391   0.741  0.00  0.00    +0.070 A 
ATOM     21  C   LIG    1        4.945   7.756   0.731  0.00  0.00    +0.020 A 
ATOM     22  C   LIG    1        3.900   8.293  -0.002  0.00  0.00    +0.120 A 
ATOM     23  C   LIG    1        3.064   7.462  -0.730  0.00  0.00    +0.010 A 
ATOM     24  F   LIG    1        3.695   9.628  -0.006  0.00  0.00    -0.130 F 
ATOM     25  C   LIG    1        3.271   6.097  -0.726  0.00  0.00    +0.090 A 
ENDBRANCH   3  19
TORSDOF 5
