REMARK  Name = ZINCqH0000004RMC.0
REMARK                            x       y       z     vdW  Elec       q    Type
REMARK                         _______ _______ _______ _____ _____    ______ ____
ROOT
ATOM      1  N   LIG    1        4.217  -1.760   5.021  0.00  0.00    -0.640 N 
ATOM      2  H   LIG    1        3.297  -1.910   5.290  0.00  0.00    +0.420 HD
ATOM      3  C   LIG    1        4.488  -1.266   3.797  0.00  0.00    +0.560 C 
ATOM      4  O   LIG    1        5.641  -1.078   3.459  0.00  0.00    -0.450 OA
ENDROOT
BRANCH   3   5
ATOM      5  C   LIG    1        3.387  -0.954   2.867  0.00  0.00    -0.090 A 
ATOM      6  C   LIG    1        2.062  -1.169   3.256  0.00  0.00    +0.040 A 
ATOM      7  C   LIG    1        1.031  -0.880   2.388  0.00  0.00    +0.100 A 
ATOM      8  C   LIG    1        1.311  -0.373   1.125  0.00  0.00    -0.110 A 
ATOM      9  S   LIG    1        0.002  -0.004   0.002  0.00  0.00    -0.130 S 
ATOM     10  C   LIG    1       -0.023   1.819   0.012  0.00  0.00    +0.140 C 
ATOM     11  C   LIG    1        1.437   2.302   0.001  0.00  0.00    +0.060 C 
ATOM     12  C   LIG    1        2.255   1.481  -0.952  0.00  0.00    +0.530 C 
ATOM     13  N   LIG    1        2.894   0.379  -0.542  0.00  0.00    -0.670 N 
ATOM     14  H   LIG    1        3.538  -0.053  -1.124  0.00  0.00    +0.420 HD
ATOM     15  O   LIG    1        2.338   1.822  -2.113  0.00  0.00    -0.510 OA
ATOM     16  C   LIG    1        2.632  -0.150   0.733  0.00  0.00    +0.170 A 
ATOM     17  C   LIG    1        3.669  -0.441   1.596  0.00  0.00    +0.080 A 
ENDBRANCH   3   5
BRANCH   1  26
ATOM     18  N   LIG    1        5.094  -2.556   7.153  0.00  0.00    -0.500 N 
ATOM     19  C   LIG    1        6.359  -2.708   7.694  0.00  0.00    +0.050 A 
ATOM     20  C   LIG    1        6.835  -3.165   8.913  0.00  0.00    +0.010 A 
ATOM     21  C   LIG    1        8.194  -3.194   9.153  0.00  0.00    +0.030 A 
ATOM     22  C   LIG    1        9.088  -2.769   8.181  0.00  0.00    +0.010 A 
ATOM     23  C   LIG    1        8.633  -2.312   6.965  0.00  0.00    +0.060 A 
ATOM     24  C   LIG    1        7.260  -2.276   6.706  0.00  0.00    +0.060 A 
ATOM     25  N   LIG    1        6.522  -1.895   5.631  0.00  0.00    -0.470 NA
ATOM     26  C   LIG    1        5.250  -2.053   5.893  0.00  0.00    +0.500 A 
BRANCH  18  28
ATOM     27  C   LIG    1        3.446  -4.327   7.512  0.00  0.00    +0.040 C 
ATOM     28  C   LIG    1        3.824  -2.875   7.809  0.00  0.00    +0.290 C 
ENDBRANCH  18  28
ENDBRANCH   1  26
TORSDOF 3
