REMARK  Name = ZINCrD00000l4vBZ.0
REMARK                            x       y       z     vdW  Elec       q    Type
REMARK                         _______ _______ _______ _____ _____    ______ ____
ROOT
ATOM      1  O   LIG    1        3.872   4.472  -3.151  0.00  0.00    -0.340 OA
ENDROOT
BRANCH   1   2
ATOM      2  C   LIG    1        2.599   3.857  -2.941  0.00  0.00    +0.220 C 
BRANCH   2  12
ATOM      3  C   LIG    1       -0.776   1.601   1.230  0.00  0.00    +0.060 C 
ATOM      4  C   LIG    1       -0.013   1.086   0.008  0.00  0.00    +0.040 C 
ATOM      5  C   LIG    1        1.421   1.642  -0.003  0.00  0.00    +0.290 C 
ATOM      6  N   LIG    1        1.521   2.422  -1.239  0.00  0.00    -0.550 N 
ATOM      7  C   LIG    1        0.309   2.375  -1.935  0.00  0.00    +0.140 A 
ATOM      8  C   LIG    1       -0.037   2.970  -3.149  0.00  0.00    -0.040 A 
ATOM      9  C   LIG    1       -1.302   2.799  -3.672  0.00  0.00    +0.050 A 
ATOM     10  C   LIG    1       -2.236   2.035  -2.997  0.00  0.00    -0.010 A 
ATOM     11  C   LIG    1       -1.900   1.443  -1.793  0.00  0.00    +0.060 A 
ATOM     12  C   LIG    1        2.620   3.088  -1.645  0.00  0.00    +0.530 C 
ATOM     13  O   LIG    1        3.626   3.068  -0.968  0.00  0.00    -0.480 OA
ATOM     14  C   LIG    1       -0.635   1.612  -1.266  0.00  0.00    -0.130 A 
ENDBRANCH   2  12
ENDBRANCH   1   2
BRANCH   1  15
ATOM     15  C   LIG    1        3.959   5.230  -4.359  0.00  0.00    +0.220 C 
BRANCH  15  16
ATOM     16  C   LIG    1        5.337   5.830  -4.477  0.00  0.00    +0.530 C 
ATOM     17  N   LIG    1        5.651   6.591  -5.544  0.00  0.00    -0.550 N 
ATOM     18  C   LIG    1        6.953   7.226  -5.769  0.00  0.00    +0.290 C 
ATOM     19  C   LIG    1        6.812   7.972  -7.105  0.00  0.00    +0.040 C 
ATOM     20  C   LIG    1        5.393   7.694  -7.549  0.00  0.00    -0.130 A 
ATOM     21  C   LIG    1        4.699   8.100  -8.672  0.00  0.00    +0.060 A 
ATOM     22  C   LIG    1        3.392   7.693  -8.866  0.00  0.00    -0.010 A 
ATOM     23  C   LIG    1        2.775   6.891  -7.924  0.00  0.00    +0.050 A 
ATOM     24  C   LIG    1        3.462   6.487  -6.799  0.00  0.00    -0.040 A 
ATOM     25  C   LIG    1        7.811   7.428  -8.128  0.00  0.00    +0.060 C 
ATOM     26  C   LIG    1        4.785   6.885  -6.601  0.00  0.00    +0.140 A 
ATOM     27  O   LIG    1        6.163   5.628  -3.611  0.00  0.00    -0.480 OA
ENDBRANCH  15  16
ENDBRANCH   1  15
TORSDOF 4
