REMARK  Name = ZINCrD00000F5LCQ.0
REMARK                            x       y       z     vdW  Elec       q    Type
REMARK                         _______ _______ _______ _____ _____    ______ ____
ROOT
ATOM      1  C   LIG    1        1.083   6.786  -3.479  0.00  0.00    +0.070 C 
ENDROOT
BRANCH   1   2
ATOM      2  C   LIG    1        1.109   6.274  -2.062  0.00  0.00    +0.520 C 
ATOM      3  N   LIG    1       -0.032   5.866  -1.472  0.00  0.00    -0.620 N 
ATOM      4  C   LIG    1       -1.298   5.921  -2.208  0.00  0.00    +0.280 C 
ATOM      5  O   LIG    1        2.157   6.229  -1.453  0.00  0.00    -0.530 OA
BRANCH   3   6
ATOM      6  C   LIG    1       -0.006   5.368  -0.094  0.00  0.00    +0.350 C 
BRANCH   6   7
ATOM      7  C   LIG    1        0.225   3.879  -0.103  0.00  0.00    -0.060 A 
ATOM      8  C   LIG    1        1.513   3.379  -0.062  0.00  0.00    +0.060 A 
ATOM      9  C   LIG    1        1.725   2.013  -0.069  0.00  0.00    +0.090 A 
ATOM     10  C   LIG    1        0.649   1.147  -0.117  0.00  0.00    -0.040 A 
ATOM     11  C   LIG    1       -0.639   1.647  -0.164  0.00  0.00    +0.090 A 
ATOM     12  C   LIG    1       -0.852   3.013  -0.151  0.00  0.00    +0.040 A 
BRANCH  10  13
ATOM     13  N   LIG    1        0.876  -0.316  -0.126  0.00  0.00    +0.030 N 
ATOM     14  O   LIG    1       -0.073  -1.079  -0.168  0.00  0.00    -0.160 OA
ATOM     15  O   LIG    1        2.011  -0.756  -0.090  0.00  0.00    -0.160 OA
ENDBRANCH  10  13
ENDBRANCH   6   7
ENDBRANCH   3   6
ENDBRANCH   1   2
BRANCH   1  16
ATOM     16  C   LIG    1        2.499   7.180  -3.905  0.00  0.00    +0.100 C 
BRANCH  16  20
ATOM     17  C   LIG    1        2.425   8.633  -7.924  0.00  0.00    +0.140 A 
ATOM     18  C   LIG    1        2.249   9.512  -6.863  0.00  0.00    -0.010 A 
ATOM     19  C   LIG    1        2.273   9.039  -5.566  0.00  0.00    +0.040 A 
ATOM     20  C   LIG    1        2.473   7.692  -5.322  0.00  0.00    -0.100 A 
ATOM     21  C   LIG    1        2.654   6.816  -6.376  0.00  0.00    +0.040 A 
ATOM     22  C   LIG    1        2.626   7.281  -7.676  0.00  0.00    +0.010 A 
BRANCH  17  24
ATOM     23  C   LIG    1        1.910   8.335 -10.227  0.00  0.00    +0.540 C 
ATOM     24  N   LIG    1        2.402   9.108  -9.239  0.00  0.00    -0.670 N 
ATOM     25  H   LIG    1        2.740   9.995  -9.440  0.00  0.00    +0.410 HD
ATOM     26  O   LIG    1        1.400   7.263  -9.963  0.00  0.00    -0.520 OA
BRANCH  23  28
ATOM     27  C   LIG    1        1.506   8.022 -12.599  0.00  0.00    +0.160 C 
ATOM     28  C   LIG    1        1.992   8.786 -11.624  0.00  0.00    -0.090 C 
ENDBRANCH  23  28
ENDBRANCH  17  24
ENDBRANCH  16  20
ENDBRANCH   1  16
TORSDOF 8
