REMARK  Name = ZINCrD000000fH1u.1
REMARK                            x       y       z     vdW  Elec       q    Type
REMARK                         _______ _______ _______ _____ _____    ______ ____
ROOT
ATOM      1  C   LIG    1       -0.737   1.586  -1.221  0.00  0.00    +0.260 C 
ENDROOT
BRANCH   1   4
ATOM      2  C   LIG    1        0.642   5.153  -1.394  0.00  0.00    +0.090 C 
ATOM      3  C   LIG    1        0.553   3.650  -1.344  0.00  0.00    +0.520 C 
ATOM      4  N   LIG    1       -0.650   3.048  -1.270  0.00  0.00    -0.720 N 
ATOM      5  H   LIG    1       -1.459   3.583  -1.249  0.00  0.00    +0.410 HD
ATOM      6  O   LIG    1        1.565   2.981  -1.371  0.00  0.00    -0.520 OA
ENDBRANCH   1   4
BRANCH   1   7
ATOM      7  C   LIG    1       -0.115   1.005  -2.465  0.00  0.00    +0.500 C 
ATOM      8  N   LIG    1       -0.420  -0.252  -2.846  0.00  0.00    -0.670 N 
ATOM      9  H   LIG    1       -0.988  -0.804  -2.286  0.00  0.00    +0.420 HD
ATOM     10  O   LIG    1        0.660   1.667  -3.122  0.00  0.00    -0.480 OA
BRANCH   8  11
ATOM     11  C   LIG    1        0.084  -0.760  -4.050  0.00  0.00    +0.140 A 
ATOM     12  C   LIG    1        1.348  -0.390  -4.487  0.00  0.00    +0.050 A 
ATOM     13  C   LIG    1        1.846  -0.897  -5.672  0.00  0.00    +0.040 A 
ATOM     14  C   LIG    1        1.083  -1.764  -6.432  0.00  0.00    +0.030 A 
ATOM     15  C   LIG    1       -0.180  -2.134  -6.006  0.00  0.00    -0.050 A 
ATOM     16 CL   LIG    1       -1.135  -3.223  -6.963  0.00  0.00    -0.050 Cl
ATOM     17  C   LIG    1       -0.684  -1.634  -4.815  0.00  0.00    +0.090 A 
BRANCH  17  18
ATOM     18  O   LIG    1       -1.926  -1.997  -4.395  0.00  0.00    -0.480 OA
ATOM     19  H   LIG    1       -2.632  -1.416  -4.708  0.00  0.00    +0.390 HD
ENDBRANCH  17  18
ENDBRANCH   8  11
ENDBRANCH   1   7
BRANCH   1  20
ATOM     20  C   LIG    1        0.010   1.072   0.011  0.00  0.00    +0.120 C 
BRANCH  20  21
ATOM     21  C   LIG    1       -0.686   1.555   1.258  0.00  0.00    -0.160 A 
ATOM     22  C   LIG    1       -0.380   2.651   1.969  0.00  0.00    +0.240 A 
ATOM     23  N   LIG    1       -1.231   2.767   3.036  0.00  0.00    -0.590 N 
ATOM     24  H   LIG    1       -1.206   3.480   3.693  0.00  0.00    +0.420 HD
ATOM     25  C   LIG    1       -2.127   1.722   3.036  0.00  0.00    +0.120 A 
ATOM     26  C   LIG    1       -3.179   1.364   3.872  0.00  0.00    -0.040 A 
ATOM     27  C   LIG    1       -3.913   0.227   3.600  0.00  0.00    +0.120 A 
ATOM     28  C   LIG    1       -3.611  -0.564   2.498  0.00  0.00    -0.030 A 
ATOM     29  C   LIG    1       -2.581  -0.229   1.665  0.00  0.00    +0.090 A 
ATOM     30  F   LIG    1       -4.935  -0.120   4.413  0.00  0.00    -0.140 F 
ATOM     31  C   LIG    1       -1.829   0.920   1.919  0.00  0.00    -0.110 A 
ENDBRANCH  20  21
ENDBRANCH   1  20
TORSDOF 6
