REMARK  Name = ZINCpe000000VJ9G.0
REMARK                            x       y       z     vdW  Elec       q    Type
REMARK                         _______ _______ _______ _____ _____    ______ ____
ROOT
ATOM      1  C   LIG    1       -4.460   3.785  -1.342  0.00  0.00    +0.520 C 
ATOM      2  N   LIG    1       -3.280   3.135  -1.334  0.00  0.00    -0.620 N 
ATOM      3  C   LIG    1       -3.231   1.671  -1.449  0.00  0.00    +0.280 C 
ATOM      4  C   LIG    1       -2.449   1.111  -0.254  0.00  0.00    +0.290 C 
ATOM      5  N   LIG    1       -1.187   1.854  -0.130  0.00  0.00    -0.610 N 
ATOM      6  C   LIG    1       -1.235   3.318  -0.010  0.00  0.00    +0.270 C 
ATOM      7  C   LIG    1       -0.006   1.204  -0.121  0.00  0.00    +0.490 C 
ATOM      8  O   LIG    1        0.021  -0.005  -0.216  0.00  0.00    -0.520 OA
ATOM      9  C   LIG    1       -2.018   3.878  -1.210  0.00  0.00    +0.270 C 
ATOM     10  O   LIG    1       -5.495   3.161  -1.444  0.00  0.00    -0.510 OA
ENDROOT
BRANCH   1  11
ATOM     11  C   LIG    1       -4.495   5.287  -1.223  0.00  0.00    +0.200 C 
BRANCH  11  13
ATOM     12  C   LIG    1       -5.995   7.154  -1.150  0.00  0.00    +0.220 C 
ATOM     13  O   LIG    1       -5.850   5.737  -1.256  0.00  0.00    -0.370 OA
ENDBRANCH  11  13
ENDBRANCH   1  11
BRANCH   7  14
ATOM     14  C   LIG    1        1.280   1.980   0.001  0.00  0.00    +0.270 C 
BRANCH  14  15
ATOM     15  N   LIG    1        2.408   1.044   0.105  0.00  0.00    -0.460 N 
ATOM     16  C   LIG    1        2.631   0.345  -1.165  0.00  0.00    +0.180 C 
ATOM     17  C   LIG    1        3.733  -0.703  -0.960  0.00  0.00    +0.260 C 
ATOM     18  O   LIG    1        3.257  -1.661  -0.009  0.00  0.00    -0.310 OA
ATOM     19  C   LIG    1        2.649  -1.166   1.104  0.00  0.00    +0.110 A 
ATOM     20  C   LIG    1        2.452  -2.010   2.188  0.00  0.00    +0.030 A 
ATOM     21  C   LIG    1        1.834  -1.541   3.332  0.00  0.00    +0.040 A 
ATOM     22  C   LIG    1        1.408  -0.227   3.399  0.00  0.00    -0.040 A 
ATOM     23  C   LIG    1        1.602   0.620   2.324  0.00  0.00    +0.010 A 
ATOM     24 CL   LIG    1        0.629   0.360   4.835  0.00  0.00    -0.070 Cl
ATOM     25  C   LIG    1        2.225   0.157   1.170  0.00  0.00    +0.070 A 
ENDBRANCH  14  15
ENDBRANCH   7  14
TORSDOF 4
