REMARK  Name = ZINCqH0000000zJ3.0
REMARK                            x       y       z     vdW  Elec       q    Type
REMARK                         _______ _______ _______ _____ _____    ______ ____
ROOT
ATOM      1  C   LIG    1        7.285   1.293  -0.058  0.00  0.00    +0.220 C 
ENDROOT
BRANCH   1   2
ATOM      2  O   LIG    1        7.297   0.545  -1.302  0.00  0.00    -0.350 OA
BRANCH   2   3
ATOM      3  C   LIG    1        8.296  -0.334  -1.475  0.00  0.00    +0.470 C 
ATOM      4  O   LIG    1        9.133  -0.474  -0.615  0.00  0.00    -0.490 OA
BRANCH   3   6
ATOM      5  C   LIG    1        7.108  -1.994  -2.883  0.00  0.00    +0.080 C 
ATOM      6  C   LIG    1        8.374  -1.147  -2.742  0.00  0.00    -0.010 C 
ATOM      7  C   LIG    1        8.496  -0.208  -3.943  0.00  0.00    +0.080 C 
BRANCH   6   8
ATOM      8  C   LIG    1        9.579  -2.050  -2.686  0.00  0.00    -0.090 A 
ATOM      9  C   LIG    1        9.418  -3.422  -2.756  0.00  0.00    +0.060 A 
ATOM     10  C   LIG    1       10.522  -4.251  -2.710  0.00  0.00    -0.010 A 
ATOM     11  C   LIG    1       11.790  -3.708  -2.582  0.00  0.00    +0.100 A 
ATOM     12  C   LIG    1       11.949  -2.335  -2.506  0.00  0.00    -0.010 A 
ATOM     13  F   LIG    1       12.870  -4.518  -2.530  0.00  0.00    -0.140 F 
ATOM     14  C   LIG    1       10.844  -1.508  -2.558  0.00  0.00    +0.070 A 
ENDBRANCH   6   8
ENDBRANCH   3   6
ENDBRANCH   2   3
ENDBRANCH   1   2
BRANCH   1  15
ATOM     15  C   LIG    1        6.081   2.238  -0.043  0.00  0.00    +0.320 C 
BRANCH  15  16
ATOM     16  N   LIG    1        4.844   1.453  -0.035  0.00  0.00    -0.700 N 
ATOM     17  H   LIG    1        4.885   0.484  -0.040  0.00  0.00    +0.410 HD
BRANCH  16  18
ATOM     18  C   LIG    1        3.623   2.092  -0.021  0.00  0.00    +0.480 A 
ATOM     19  N   LIG    1        3.546   3.416  -0.014  0.00  0.00    -0.600 NA
ATOM     20  C   LIG    1        2.380   4.041   0.000  0.00  0.00    +0.550 A 
ATOM     21  N   LIG    1        1.231   3.409   0.008  0.00  0.00    -0.550 NA
ATOM     22  C   LIG    1        1.192   2.067   0.002  0.00  0.00    +0.190 A 
ATOM     23  C   LIG    1       -0.016   1.359   0.009  0.00  0.00    +0.030 A 
ATOM     24  C   LIG    1        0.002  -0.004   0.002  0.00  0.00    +0.060 A 
ATOM     25  C   LIG    1        1.204  -0.705  -0.013  0.00  0.00    +0.000 A 
ATOM     26  C   LIG    1        2.399  -0.047  -0.021  0.00  0.00    +0.050 A 
ATOM     27  C   LIG    1        2.415   1.352  -0.013  0.00  0.00    -0.200 A 
ENDBRANCH  16  18
ENDBRANCH  15  16
ENDBRANCH   1  15
TORSDOF 7
