REMARK  Name = ZINCrg00001Jdv7s.0
REMARK                            x       y       z     vdW  Elec       q    Type
REMARK                         _______ _______ _______ _____ _____    ______ ____
ROOT
ATOM      1  C   LIG    1       -5.463  -7.264  -2.129  0.00  0.00    +0.110 C 
ENDROOT
BRANCH   1   2
ATOM      2  C   LIG    1       -5.378  -8.684  -1.634  0.00  0.00    +0.470 C 
ATOM      3  O   LIG    1       -4.299  -9.202  -1.466  0.00  0.00    -0.500 OA
BRANCH   2   4
ATOM      4  O   LIG    1       -6.500  -9.375  -1.379  0.00  0.00    -0.330 OA
BRANCH   4   5
ATOM      5  C   LIG    1       -6.343 -10.738  -0.904  0.00  0.00    +0.220 C 
BRANCH   5   6
ATOM      6  C   LIG    1       -7.700 -11.350  -0.673  0.00  0.00    +0.430 C 
ATOM      7  O   LIG    1       -8.703 -10.700  -0.888  0.00  0.00    -0.460 OA
BRANCH   6  10
ATOM      8  C   LIG    1      -10.257 -12.308   0.142  0.00  0.00    +0.170 C 
ATOM      9  C   LIG    1       -9.044 -13.202   0.126  0.00  0.00    +0.350 C 
ATOM     10  C   LIG    1       -7.806 -12.682  -0.206  0.00  0.00    -0.320 C 
BRANCH   9  11
ATOM     11  N   LIG    1       -9.166 -14.510   0.433  0.00  0.00    -0.800 N 
ATOM     12  H   LIG    1      -10.034 -14.875   0.666  0.00  0.00    +0.420 HD
ATOM     13  H   LIG    1       -8.385 -15.086   0.422  0.00  0.00    +0.410 HD
ENDBRANCH   9  11
BRANCH  10  14
ATOM     14  C   LIG    1       -6.632 -13.491  -0.077  0.00  0.00    +0.260 C 
ATOM     15  N   LIG    1       -5.700 -14.133   0.026  0.00  0.00    -0.440 NA
ENDBRANCH  10  14
ENDBRANCH   6  10
ENDBRANCH   5   6
ENDBRANCH   4   5
ENDBRANCH   2   4
ENDBRANCH   1   2
BRANCH   1  16
ATOM     16  C   LIG    1       -4.051  -6.712  -2.340  0.00  0.00    +0.290 C 
BRANCH  16  17
ATOM     17  N   LIG    1       -4.134  -5.331  -2.822  0.00  0.00    -0.730 N 
ATOM     18  H   LIG    1       -5.000  -4.915  -2.956  0.00  0.00    +0.400 HD
ATOM     19  C   LIG    1       -3.007  -4.638  -3.078  0.00  0.00    +0.520 C 
ATOM     20  O   LIG    1       -1.924  -5.157  -2.910  0.00  0.00    -0.530 OA
BRANCH  19  21
ATOM     21  C   LIG    1       -3.092  -3.217  -3.574  0.00  0.00    +0.070 C 
BRANCH  21  22
ATOM     22  C   LIG    1       -1.681  -2.665  -3.784  0.00  0.00    +0.070 C 
BRANCH  22  23
ATOM     23  C   LIG    1       -1.766  -1.244  -4.280  0.00  0.00    +0.400 C 
ATOM     24  O   LIG    1       -2.848  -0.725  -4.448  0.00  0.00    -0.450 OA
BRANCH  23  25
ATOM     25  C   LIG    1       -0.535  -0.488  -4.560  0.00  0.00    -0.170 A 
ATOM     26  C   LIG    1       -0.610   0.831  -5.020  0.00  0.00    +0.070 A 
ATOM     27  C   LIG    1        0.548   1.533  -5.279  0.00  0.00    +0.000 A 
ATOM     28  C   LIG    1        1.782   0.937  -5.086  0.00  0.00    +0.040 A 
ATOM     29  C   LIG    1        1.864  -0.368  -4.631  0.00  0.00    +0.000 A 
ATOM     30  C   LIG    1        0.716  -1.083  -4.367  0.00  0.00    +0.070 A 
ENDBRANCH  23  25
ENDBRANCH  22  23
ENDBRANCH  21  22
ENDBRANCH  19  21
ENDBRANCH  16  17
ENDBRANCH   1  16
TORSDOF 13
