REMARK  Name = ZINCpk00000KdZMq.0
REMARK                            x       y       z     vdW  Elec       q    Type
REMARK                         _______ _______ _______ _____ _____    ______ ____
ROOT
ATOM      1  C   LIG    1        1.732   5.912   0.403  0.00  0.00    +0.540 C 
ATOM      2  N   LIG    1        2.943   6.469   0.203  0.00  0.00    -0.600 N 
ATOM      3  C   LIG    1        4.224   5.742   0.141  0.00  0.00    +0.250 C 
ATOM      4  C   LIG    1        5.296   6.793   0.521  0.00  0.00    +0.040 C 
ATOM      5  C   LIG    1        4.730   8.072  -0.152  0.00  0.00    +0.060 C 
ATOM      6  C   LIG    1        3.205   7.902   0.006  0.00  0.00    +0.220 C 
ATOM      7  O   LIG    1        0.741   6.610   0.435  0.00  0.00    -0.510 OA
ENDROOT
BRANCH   6   8
ATOM      8  C   LIG    1        2.501   8.386  -1.235  0.00  0.00    +0.520 C 
ATOM      9  N   LIG    1        2.238   9.698  -1.393  0.00  0.00    -0.620 N 
ATOM     10  C   LIG    1        1.463  10.182  -2.546  0.00  0.00    +0.260 C 
ATOM     11  C   LIG    1        0.340  11.091  -2.021  0.00  0.00    +0.220 C 
ATOM     12  O   LIG    1        0.906  12.092  -1.172  0.00  0.00    -0.380 OA
ATOM     13  C   LIG    1        1.545  11.575  -0.002  0.00  0.00    +0.210 C 
ATOM     14  C   LIG    1        2.725  10.690  -0.421  0.00  0.00    +0.240 C 
ATOM     15  O   LIG    1        2.171   7.594  -2.092  0.00  0.00    -0.520 OA
ENDBRANCH   6   8
BRANCH   1  16
ATOM     16  C   LIG    1        1.610   4.421   0.584  0.00  0.00    +0.230 C 
BRANCH  16  17
ATOM     17  O   LIG    1        0.236   4.075   0.778  0.00  0.00    -0.290 OA
BRANCH  17  21
ATOM     18  C   LIG    1       -0.631   0.080   1.325  0.00  0.00    -0.120 A 
ATOM     19  C   LIG    1       -1.650   1.015   1.335  0.00  0.00    +0.050 A 
ATOM     20  C   LIG    1       -1.362   2.353   1.152  0.00  0.00    -0.010 A 
ATOM     21  C   LIG    1       -0.049   2.759   0.958  0.00  0.00    +0.120 A 
ATOM     22  C   LIG    1        0.971   1.819   0.950  0.00  0.00    -0.080 A 
ATOM     23  C   LIG    1        0.677   0.482   1.133  0.00  0.00    +0.050 A 
BRANCH  18  25
ATOM     24  C   LIG    1       -1.216  -2.034   0.169  0.00  0.00    +0.020 C 
ATOM     25  C   LIG    1       -0.949  -1.380   1.525  0.00  0.00    +0.060 C 
ENDBRANCH  18  25
ENDBRANCH  17  21
ENDBRANCH  16  17
ENDBRANCH   1  16
TORSDOF 5
