REMARK  Name = ZINCrD000000fPWy.0
REMARK                            x       y       z     vdW  Elec       q    Type
REMARK                         _______ _______ _______ _____ _____    ______ ____
ROOT
ATOM      1  N   LIG    1        3.428   1.903   3.698  0.00  0.00    -0.500 N 
ATOM      2  C   LIG    1        2.117   2.320   4.211  0.00  0.00    +0.190 C 
ATOM      3  C   LIG    1        1.217   1.089   4.365  0.00  0.00    +0.300 C 
ATOM      4  N   LIG    1        1.183   0.371   3.082  0.00  0.00    -0.600 N 
ATOM      5  C   LIG    1        2.462   0.034   2.439  0.00  0.00    +0.290 C 
ATOM      6  C   LIG    1        0.011   0.028   2.512  0.00  0.00    +0.580 C 
ATOM      7  O   LIG    1       -1.037   0.310   3.060  0.00  0.00    -0.530 OA
ATOM      8  C   LIG    1        3.313   1.312   2.358  0.00  0.00    +0.190 C 
ENDROOT
BRANCH   6   9
ATOM      9  C   LIG    1       -0.000  -0.692   1.224  0.00  0.00    -0.160 A 
ATOM     10  C   LIG    1       -0.029   0.019   0.022  0.00  0.00    -0.030 A 
ATOM     11  C   LIG    1       -0.046  -0.659  -1.177  0.00  0.00    +0.000 A 
ATOM     12  C   LIG    1       -0.022  -2.044  -1.198  0.00  0.00    -0.050 A 
ATOM     13  C   LIG    1        0.006  -2.759  -0.017  0.00  0.00    -0.010 A 
ATOM     14  C   LIG    1       -0.034  -2.774  -2.516  0.00  0.00    +0.100 C 
ATOM     15  C   LIG    1       -0.048   1.526   0.038  0.00  0.00    +0.100 C 
ATOM     16  C   LIG    1        0.017  -2.093   1.199  0.00  0.00    +0.150 A 
BRANCH  16  17
ATOM     17  O   LIG    1        0.045  -2.795   2.360  0.00  0.00    -0.490 OA
ATOM     18  H   LIG    1       -0.831  -3.010   2.711  0.00  0.00    +0.400 HD
ENDBRANCH  16  17
ENDBRANCH   6   9
BRANCH   1  22
ATOM     19  C   LIG    1        6.112   5.086   3.698  0.00  0.00    -0.140 A 
ATOM     20  C   LIG    1        4.929   5.163   2.952  0.00  0.00    +0.080 A 
ATOM     21  C   LIG    1        4.045   4.109   2.955  0.00  0.00    +0.010 A 
ATOM     22  C   LIG    1        4.325   2.966   3.698  0.00  0.00    +0.090 A 
ATOM     23  C   LIG    1        5.499   2.885   4.447  0.00  0.00    +0.120 A 
ATOM     24  F   LIG    1        5.763   1.776   5.172  0.00  0.00    -0.120 F 
ATOM     25  C   LIG    1        6.391   3.934   4.445  0.00  0.00    +0.040 A 
BRANCH  19  27
ATOM     26  C   LIG    1        8.266   6.176   4.595  0.00  0.00    +0.080 C 
ATOM     27  C   LIG    1        7.057   6.209   3.697  0.00  0.00    +0.400 C 
ATOM     28  O   LIG    1        6.865   7.163   2.972  0.00  0.00    -0.450 OA
ENDBRANCH  19  27
ENDBRANCH   1  22
TORSDOF 4
