REMARK  Name = ZINCqH00000074CW.0
REMARK                            x       y       z     vdW  Elec       q    Type
REMARK                         _______ _______ _______ _____ _____    ______ ____
ROOT
ATOM      1  C   LIG    1       -0.619   0.486   5.511  0.00  0.00    -0.090 A 
ATOM      2  C   LIG    1       -1.773   0.037   6.149  0.00  0.00    +0.050 A 
ATOM      3  C   LIG    1       -2.741  -0.637   5.429  0.00  0.00    +0.040 A 
ATOM      4  C   LIG    1       -2.574  -0.870   4.076  0.00  0.00    +0.020 A 
ATOM      5  C   LIG    1       -1.438  -0.426   3.425  0.00  0.00    +0.040 A 
ATOM      6  C   LIG    1       -0.448   0.249   4.134  0.00  0.00    -0.100 A 
ENDROOT
BRANCH   6   7
ATOM      7  C   LIG    1        0.772   0.721   3.443  0.00  0.00    +0.560 C 
ATOM      8  N   LIG    1        0.668   1.495   2.345  0.00  0.00    -0.590 N 
ATOM      9  C   LIG    1       -0.653   1.787   1.785  0.00  0.00    +0.260 C 
ATOM     10  C   LIG    1       -0.862   3.246   1.343  0.00  0.00    +0.100 C 
ATOM     11  S   LIG    1       -0.192   4.394   2.556  0.00  0.00    -0.240 S 
ATOM     12  C   LIG    1        1.572   4.488   2.112  0.00  0.00    +0.120 C 
ATOM     13  C   LIG    1        2.312   3.290   2.492  0.00  0.00    -0.030 C 
ATOM     14  C   LIG    1        3.799   3.526   2.217  0.00  0.00    +0.040 C 
ATOM     15  C   LIG    1        1.863   2.030   1.729  0.00  0.00    +0.290 C 
ATOM     16  O   LIG    1        1.868   0.410   3.866  0.00  0.00    -0.510 OA
ENDBRANCH   6   7
BRANCH   1  17
ATOM     17  C   LIG    1        0.420   1.208   6.276  0.00  0.00    +0.440 C 
ATOM     18  O   LIG    1        0.261   2.378   6.564  0.00  0.00    -0.440 OA
BRANCH  17  22
ATOM     19  C   LIG    1        3.963  -0.806   7.467  0.00  0.00    +0.160 A 
ATOM     20  C   LIG    1        3.832   0.559   7.695  0.00  0.00    -0.030 A 
ATOM     21  C   LIG    1        2.685   1.216   7.311  0.00  0.00    +0.120 A 
ATOM     22  C   LIG    1        1.651   0.508   6.689  0.00  0.00    -0.190 A 
ATOM     23  C   LIG    1        1.785  -0.866   6.467  0.00  0.00    +0.130 A 
ATOM     24  C   LIG    1        2.937  -1.514   6.850  0.00  0.00    -0.090 A 
BRANCH  19  26
ATOM     25  C   LIG    1        5.164  -2.853   7.583  0.00  0.00    +0.240 C 
ATOM     26  O   LIG    1        5.095  -1.450   7.847  0.00  0.00    -0.310 OA
ENDBRANCH  19  26
ENDBRANCH  17  22
ENDBRANCH   1  17
TORSDOF 4
