REMARK  Name = ZINCpk00000eaU5D.0
REMARK                            x       y       z     vdW  Elec       q    Type
REMARK                         _______ _______ _______ _____ _____    ______ ____
ROOT
ATOM      1  N   LIG    1        3.990   1.948  -0.873  0.00  0.00    -0.530 NA
ATOM      2  C   LIG    1        3.686   1.615   0.524  0.00  0.00    +0.180 C 
ATOM      3  C   LIG    1        2.363   0.849   0.591  0.00  0.00    +0.040 C 
ATOM      4  C   LIG    1        1.248   1.716  -0.001  0.00  0.00    +0.240 C 
ATOM      5  C   LIG    1        1.611   2.090  -1.440  0.00  0.00    +0.020 C 
ATOM      6  C   LIG    1        2.957   2.818  -1.448  0.00  0.00    +0.170 C 
ENDROOT
BRANCH   4   7
ATOM      7  N   LIG    1       -0.011   0.966   0.007  0.00  0.00    -0.720 N 
ATOM      8  H   LIG    1        0.002  -0.004   0.002  0.00  0.00    +0.400 HD
ATOM      9  C   LIG    1       -1.187   1.624   0.017  0.00  0.00    +0.600 C 
ATOM     10  O   LIG    1       -1.204   2.840   0.023  0.00  0.00    -0.550 OA
BRANCH   9  11
ATOM     11  C   LIG    1       -2.454   0.869   0.018  0.00  0.00    -0.300 A 
ATOM     12  C   LIG    1       -3.726   1.404   0.027  0.00  0.00    +0.320 A 
ATOM     13  N   LIG    1       -4.593   0.379   0.025  0.00  0.00    -0.360 N 
ATOM     14  N   LIG    1       -3.867  -0.817   0.015  0.00  0.00    -0.300 NA
ATOM     15  C   LIG    1       -6.054   0.493   0.033  0.00  0.00    +0.360 C 
ATOM     16  C   LIG    1       -2.593  -0.537   0.005  0.00  0.00    +0.270 A 
ENDBRANCH   9  11
ENDBRANCH   4   7
BRANCH   1  17
ATOM     17  C   LIG    1        5.320   2.561  -0.991  0.00  0.00    +0.200 C 
BRANCH  17  18
ATOM     18  C   LIG    1        5.699   2.664  -2.446  0.00  0.00    +0.430 C 
ATOM     19  O   LIG    1        4.936   2.265  -3.301  0.00  0.00    -0.450 OA
BRANCH  18  23
ATOM     20  C   LIG    1       10.309   4.824  -2.230  0.00  0.00    +0.120 C 
ATOM     21  C   LIG    1        9.025   4.200  -2.714  0.00  0.00    +0.010 A 
ATOM     22  C   LIG    1        8.020   3.778  -1.928  0.00  0.00    +0.000 A 
ATOM     23  C   LIG    1        6.988   3.245  -2.828  0.00  0.00    -0.270 A 
ATOM     24  C   LIG    1        7.481   3.409  -4.108  0.00  0.00    +0.110 A 
ATOM     25  C   LIG    1        6.779   3.017  -5.383  0.00  0.00    +0.150 C 
ATOM     26  N   LIG    1        8.696   3.980  -4.020  0.00  0.00    -0.550 N 
ATOM     27  H   LIG    1        9.258   4.204  -4.778  0.00  0.00    +0.410 HD
ENDBRANCH  18  23
ENDBRANCH  17  18
ENDBRANCH   1  17
TORSDOF 5
