REMARK  Name = ZINCpk00000ebnKs.0
REMARK                            x       y       z     vdW  Elec       q    Type
REMARK                         _______ _______ _______ _____ _____    ______ ____
ROOT
ATOM      1  N   LIG    1       -1.640  -1.854   0.008  0.00  0.00    -0.670 N 
ATOM      2  H   LIG    1       -0.889  -2.467   0.047  0.00  0.00    +0.420 HD
ATOM      3  C   LIG    1       -1.424  -0.534  -0.158  0.00  0.00    +0.520 C 
ATOM      4  O   LIG    1       -2.362   0.221  -0.303  0.00  0.00    -0.490 OA
ENDROOT
BRANCH   1   8
ATOM      5  C   LIG    1       -5.531  -3.300   0.353  0.00  0.00    -0.160 A 
ATOM      6  C   LIG    1       -4.549  -4.074  -0.271  0.00  0.00    +0.100 A 
ATOM      7  C   LIG    1       -3.264  -3.593  -0.384  0.00  0.00    -0.010 A 
ATOM      8  C   LIG    1       -2.943  -2.338   0.123  0.00  0.00    +0.180 A 
ATOM      9  C   LIG    1       -3.917  -1.567   0.749  0.00  0.00    +0.010 A 
ATOM     10  C   LIG    1       -5.205  -2.040   0.860  0.00  0.00    +0.070 A 
BRANCH   5  14
ATOM     11  N   LIG    1       -7.856  -3.065   1.078  0.00  0.00    -0.850 N 
ATOM     12  H   LIG    1       -8.761  -3.402   1.159  0.00  0.00    +0.410 HD
ATOM     13  H   LIG    1       -7.630  -2.190   1.430  0.00  0.00    +0.400 HD
ATOM     14  C   LIG    1       -6.910  -3.813   0.476  0.00  0.00    +0.570 C 
ATOM     15  O   LIG    1       -7.192  -4.910   0.034  0.00  0.00    -0.540 OA
ENDBRANCH   5  14
ENDBRANCH   1   8
BRANCH   3  16
ATOM     16  C   LIG    1       -0.016   0.004  -0.163  0.00  0.00    +0.270 C 
BRANCH  16  17
ATOM     17  O   LIG    1       -0.049   1.443  -0.357  0.00  0.00    -0.320 OA
BRANCH  17  18
ATOM     18  C   LIG    1        1.137   2.083  -0.386  0.00  0.00    +0.570 C 
ATOM     19  O   LIG    1        2.170   1.456  -0.254  0.00  0.00    -0.490 OA
BRANCH  18  20
ATOM     20  C   LIG    1        1.181   3.542  -0.579  0.00  0.00    +0.000 A 
ATOM     21  N   LIG    1        0.153   4.349  -0.735  0.00  0.00    -0.160 NA
ATOM     22  N   LIG    1        0.519   5.571  -0.881  0.00  0.00    -0.400 N 
ATOM     23  H   LIG    1       -0.092   6.314  -1.008  0.00  0.00    +0.450 HD
ATOM     24  C   LIG    1        1.883   5.690  -0.833  0.00  0.00    +0.060 A 
ATOM     25  C   LIG    1        2.776   6.752  -0.932  0.00  0.00    +0.020 A 
ATOM     26  C   LIG    1        4.129   6.517  -0.821  0.00  0.00    +0.060 A 
ATOM     27  C   LIG    1        4.613   5.231  -0.623  0.00  0.00    +0.000 A 
ATOM     28  C   LIG    1        3.752   4.172  -0.528  0.00  0.00    +0.090 A 
ATOM     29  C   LIG    1        2.382   4.388  -0.629  0.00  0.00    -0.100 A 
ENDBRANCH  18  20
ENDBRANCH  17  18
ENDBRANCH  16  17
ENDBRANCH   3  16
TORSDOF 6
