REMARK  Name = ZINCvU0000000B5V.0
REMARK                            x       y       z     vdW  Elec       q    Type
REMARK                         _______ _______ _______ _____ _____    ______ ____
ROOT
ATOM      1  N   LIG    1       -4.219   0.106  -0.016  0.00  0.00    -0.470 N 
ATOM      2  C   LIG    1       -4.900  -0.123  -1.194  0.00  0.00    +0.060 A 
ATOM      3  C   LIG    1       -4.524  -0.214  -2.527  0.00  0.00    +0.010 A 
ATOM      4  C   LIG    1       -5.478  -0.461  -3.491  0.00  0.00    +0.040 A 
ATOM      5  C   LIG    1       -6.810  -0.620  -3.138  0.00  0.00    +0.000 A 
ATOM      6  C   LIG    1       -7.199  -0.534  -1.831  0.00  0.00    +0.070 A 
ATOM      7  C   LIG    1       -6.250  -0.285  -0.837  0.00  0.00    +0.050 A 
ATOM      8  N   LIG    1       -6.321  -0.148   0.512  0.00  0.00    -0.460 NA
ATOM      9  C   LIG    1       -5.132   0.075   0.992  0.00  0.00    +0.280 A 
ENDROOT
BRANCH   1  10
ATOM     10  C   LIG    1       -2.779   0.336   0.124  0.00  0.00    +0.320 C 
BRANCH  10  11
ATOM     11  C   LIG    1       -2.492   1.811   0.019  0.00  0.00    +0.420 C 
ATOM     12  O   LIG    1       -3.409   2.603  -0.059  0.00  0.00    -0.410 OA
BRANCH  11  15
ATOM     13  C   LIG    1       -0.823   2.398  -2.526  0.00  0.00    +0.150 C 
ATOM     14  C   LIG    1       -0.377   2.547  -1.094  0.00  0.00    +0.150 A 
ATOM     15  C   LIG    1       -1.153   2.274   0.013  0.00  0.00    -0.270 A 
ATOM     16  C   LIG    1       -0.307   2.559   1.188  0.00  0.00    -0.060 A 
ATOM     17  C   LIG    1       -0.506   2.482   2.564  0.00  0.00    +0.040 A 
ATOM     18  C   LIG    1        0.513   2.835   3.421  0.00  0.00    +0.000 A 
ATOM     19  C   LIG    1        1.732   3.267   2.919  0.00  0.00    +0.030 A 
ATOM     20  C   LIG    1        1.942   3.348   1.559  0.00  0.00    +0.000 A 
ATOM     21  C   LIG    1        0.925   2.995   0.677  0.00  0.00    +0.090 A 
ATOM     22  N   LIG    1        0.839   2.972  -0.700  0.00  0.00    -0.570 N 
ATOM     23  H   LIG    1        1.556   3.227  -1.302  0.00  0.00    +0.420 HD
ENDBRANCH  11  15
ENDBRANCH  10  11
ENDBRANCH   1  10
BRANCH   9  24
ATOM     24  C   LIG    1       -4.814   0.274   2.452  0.00  0.00    +0.330 C 
BRANCH  24  25
ATOM     25  O   LIG    1       -4.911   1.663   2.775  0.00  0.00    -0.300 OA
BRANCH  25  26
ATOM     26  C   LIG    1       -4.652   2.016   4.062  0.00  0.00    +0.140 A 
ATOM     27  C   LIG    1       -4.318   1.045   4.995  0.00  0.00    -0.060 A 
ATOM     28  C   LIG    1       -4.051   1.407   6.301  0.00  0.00    +0.070 A 
ATOM     29  C   LIG    1       -4.127   2.735   6.682  0.00  0.00    -0.070 A 
ATOM     30  C   LIG    1       -4.465   3.704   5.754  0.00  0.00    +0.070 A 
ATOM     31 CL   LIG    1       -3.797   3.186   8.326  0.00  0.00    -0.070 Cl
ATOM     32  C   LIG    1       -4.728   3.347   4.446  0.00  0.00    +0.010 A 
ENDBRANCH  25  26
ENDBRANCH  24  25
ENDBRANCH   9  24
TORSDOF 6
