REMARK  Name = ZINCvU0000000GBs.0
REMARK                            x       y       z     vdW  Elec       q    Type
REMARK                         _______ _______ _______ _____ _____    ______ ____
ROOT
ATOM      1  N   LIG    1        3.613  -5.460  -0.067  0.00  0.00    -0.410 N 
ATOM      2  C   LIG    1        2.647  -4.491  -0.047  0.00  0.00    +0.150 A 
ATOM      3  N   LIG    1        1.483  -5.102  -0.040  0.00  0.00    -0.290 NA
ATOM      4  N   LIG    1        1.652  -6.375  -0.049  0.00  0.00    -0.260 NA
ATOM      5  C   LIG    1        2.934  -6.659  -0.063  0.00  0.00    +0.230 A 
ENDROOT
BRANCH   1  10
ATOM      6  C   LIG    1        9.237  -4.700  -0.142  0.00  0.00    +0.100 C 
ATOM      7  C   LIG    1        7.743  -4.902  -0.122  0.00  0.00    -0.060 A 
ATOM      8  C   LIG    1        7.007  -4.499   0.977  0.00  0.00    +0.040 A 
ATOM      9  C   LIG    1        5.638  -4.683   0.998  0.00  0.00    +0.040 A 
ATOM     10  C   LIG    1        5.002  -5.272  -0.086  0.00  0.00    +0.090 A 
ATOM     11  C   LIG    1        5.744  -5.679  -1.186  0.00  0.00    +0.040 A 
ATOM     12  C   LIG    1        7.112  -5.489  -1.203  0.00  0.00    +0.030 A 
ENDBRANCH   1  10
BRANCH   5  13
ATOM     13  C   LIG    1        3.536  -8.009  -0.076  0.00  0.00    -0.020 A 
ATOM     14  C   LIG    1        4.890  -8.175   0.216  0.00  0.00    +0.050 A 
ATOM     15  C   LIG    1        5.445  -9.438   0.207  0.00  0.00    +0.030 A 
ATOM     16  C   LIG    1        4.663 -10.539  -0.103  0.00  0.00    -0.020 A 
ATOM     17  C   LIG    1        3.320 -10.379  -0.399  0.00  0.00    +0.030 A 
ATOM     18 CL   LIG    1        5.370 -12.124  -0.120  0.00  0.00    -0.060 Cl
ATOM     19  C   LIG    1        2.752  -9.122  -0.388  0.00  0.00    +0.090 A 
ENDBRANCH   5  13
BRANCH   2  20
ATOM     20  S   LIG    1        2.913  -2.749  -0.041  0.00  0.00    +0.100 S 
BRANCH  20  21
ATOM     21  C   LIG    1        1.199  -2.169  -0.021  0.00  0.00    +0.110 C 
BRANCH  21  22
ATOM     22  C   LIG    1        1.178  -0.662  -0.013  0.00  0.00    +0.540 C 
ATOM     23  N   LIG    1        0.002  -0.004   0.002  0.00  0.00    -0.600 N 
ATOM     24  C   LIG    1       -1.256  -0.754   0.010  0.00  0.00    +0.290 C 
ATOM     25  O   LIG    1        2.220  -0.041  -0.019  0.00  0.00    -0.520 OA
BRANCH  23  26
ATOM     26  C   LIG    1       -0.018   1.461   0.010  0.00  0.00    +0.240 C 
ATOM     27  C   LIG    1       -0.734   1.954   1.269  0.00  0.00    +0.010 C 
ATOM     28  C   LIG    1       -0.755   3.484   1.277  0.00  0.00    +0.020 C 
ATOM     29  C   LIG    1       -1.495   3.991   0.038  0.00  0.00    +0.010 C 
ATOM     30  C   LIG    1       -0.778   3.497  -1.221  0.00  0.00    +0.020 C 
ATOM     31  C   LIG    1       -0.758   1.968  -1.230  0.00  0.00    +0.010 C 
ENDBRANCH  23  26
ENDBRANCH  21  22
ENDBRANCH  20  21
ENDBRANCH   2  20
TORSDOF 6
