REMARK  Name = ZINCrg000000ozZp.0
REMARK                            x       y       z     vdW  Elec       q    Type
REMARK                         _______ _______ _______ _____ _____    ______ ____
ROOT
ATOM      1  C   LIG    1       -3.546   3.178   3.989  0.00  0.00    +0.350 C 
ENDROOT
BRANCH   1   2
ATOM      2  N   LIG    1       -2.563   2.626   3.053  0.00  0.00    -0.530 N 
ATOM      3  C   LIG    1       -1.348   2.248   3.503  0.00  0.00    +0.580 A 
ATOM      4  C   LIG    1       -0.386   1.702   2.534  0.00  0.00    -0.200 A 
ATOM      5  C   LIG    1       -0.771   1.599   1.214  0.00  0.00    +0.260 A 
ATOM      6  C   LIG    1       -0.013   1.086   0.008  0.00  0.00    +0.140 C 
ATOM      7  C   LIG    1       -0.810   1.622  -1.202  0.00  0.00    +0.080 C 
ATOM      8  C   LIG    1       -2.221   1.790  -0.603  0.00  0.00    +0.320 C 
ATOM      9  N   LIG    1       -2.020   1.998   0.843  0.00  0.00    -0.530 N 
ATOM     10  O   LIG    1       -1.056   2.357   4.679  0.00  0.00    -0.480 OA
ATOM     11  C   LIG    1       -2.878   2.501   1.755  0.00  0.00    +0.710 A 
ATOM     12  O   LIG    1       -3.981   2.854   1.386  0.00  0.00    -0.520 OA
BRANCH   4  13
ATOM     13  C   LIG    1        0.920   1.286   2.950  0.00  0.00    +0.280 C 
ATOM     14  N   LIG    1        1.956   0.956   3.280  0.00  0.00    -0.400 NA
ENDBRANCH   4  13
ENDBRANCH   1   2
BRANCH   1  16
ATOM     15  N   LIG    1       -5.356   2.333   5.447  0.00  0.00    -0.610 N 
ATOM     16  C   LIG    1       -4.381   2.060   4.557  0.00  0.00    +0.510 C 
ATOM     17  O   LIG    1       -4.176   0.915   4.214  0.00  0.00    -0.520 OA
ATOM     18  C   LIG    1       -5.604   3.716   5.861  0.00  0.00    +0.290 C 
BRANCH  15  19
ATOM     19  C   LIG    1       -6.168   1.246   6.000  0.00  0.00    +0.340 C 
BRANCH  19  23
ATOM     20  C   LIG    1       -4.325  -0.244   9.554  0.00  0.00    -0.070 A 
ATOM     21  C   LIG    1       -5.241   0.789   9.631  0.00  0.00    +0.000 A 
ATOM     22  C   LIG    1       -5.837   1.272   8.480  0.00  0.00    +0.020 A 
ATOM     23  C   LIG    1       -5.518   0.720   7.253  0.00  0.00    -0.120 A 
ATOM     24  C   LIG    1       -4.607  -0.317   7.177  0.00  0.00    +0.040 A 
ATOM     25  C   LIG    1       -4.007  -0.795   8.327  0.00  0.00    +0.000 A 
BRANCH  20  27
ATOM     26  C   LIG    1       -4.524  -1.904  11.385  0.00  0.00    +0.030 C 
ATOM     27  C   LIG    1       -3.675  -0.769  10.808  0.00  0.00    +0.050 C 
ENDBRANCH  20  27
ENDBRANCH  19  23
ENDBRANCH  15  19
ENDBRANCH   1  16
TORSDOF 6
