REMARK  Name = ZINCnE000008J50t.1
REMARK                            x       y       z     vdW  Elec       q    Type
REMARK                         _______ _______ _______ _____ _____    ______ ____
ROOT
ATOM      1  C   LIG    1        2.747  -3.962  -0.044  0.00  0.00    +0.490 C 
ATOM      2  O   LIG    1        1.793  -4.716  -0.040  0.00  0.00    -0.510 OA
ENDROOT
BRANCH   1   3
ATOM      3  C   LIG    1        4.105  -4.502  -0.060  0.00  0.00    +0.000 C 
ATOM      4  C   LIG    1        4.300  -5.838  -0.069  0.00  0.00    +0.110 C 
BRANCH   4   5
ATOM      5  C   LIG    1        5.666  -6.381  -0.084  0.00  0.00    -0.050 A 
ATOM      6  C   LIG    1        6.767  -5.517  -0.089  0.00  0.00    +0.070 A 
ATOM      7  C   LIG    1        8.044  -6.034  -0.104  0.00  0.00    +0.050 A 
ATOM      8  C   LIG    1        8.242  -7.405  -0.113  0.00  0.00    -0.020 A 
ATOM      9  C   LIG    1        7.158  -8.268  -0.108  0.00  0.00    +0.050 A 
ATOM     10 CL   LIG    1        9.855  -8.046  -0.132  0.00  0.00    -0.060 Cl
ATOM     11  C   LIG    1        5.873  -7.766  -0.087  0.00  0.00    -0.010 A 
ATOM     12 CL   LIG    1        4.516  -8.849  -0.073  0.00  0.00    -0.040 Cl
ENDBRANCH   4   5
ENDBRANCH   1   3
BRANCH   1  13
ATOM     13  O   LIG    1        2.552  -2.627  -0.035  0.00  0.00    -0.320 OA
BRANCH  13  14
ATOM     14  C   LIG    1        1.199  -2.169  -0.021  0.00  0.00    +0.260 C 
BRANCH  14  16
ATOM     15  N   LIG    1        0.002  -0.004   0.002  0.00  0.00    -0.670 NA
ATOM     16  C   LIG    1        1.178  -0.662  -0.012  0.00  0.00    +0.450 C 
ATOM     17  O   LIG    1        2.220  -0.041  -0.018  0.00  0.00    -0.600 OA
BRANCH  15  22
ATOM     18  C   LIG    1       -1.366   4.783   0.041  0.00  0.00    +0.140 C 
ATOM     19  C   LIG    1       -0.588   3.493   0.026  0.00  0.00    +0.010 A 
ATOM     20  N   LIG    1        0.709   3.364   0.013  0.00  0.00    -0.420 NA
ATOM     21  O   LIG    1        1.046   2.203   0.004  0.00  0.00    +0.040 OA
ATOM     22  C   LIG    1       -0.017   1.383   0.010  0.00  0.00    +0.270 A 
ATOM     23  C   LIG    1       -1.120   2.188   0.018  0.00  0.00    -0.200 A 
ENDBRANCH  15  22
ENDBRANCH  14  16
ENDBRANCH  13  14
ENDBRANCH   1  13
TORSDOF 6
