REMARK  Name = ZINCpe00000gMf0p.0
REMARK                            x       y       z     vdW  Elec       q    Type
REMARK                         _______ _______ _______ _____ _____    ______ ____
ROOT
ATOM      1  N   LIG    1       -2.345   0.934   0.018  0.00  0.00    -0.670 N 
ATOM      2  H   LIG    1       -2.334  -0.033  -0.061  0.00  0.00    +0.420 HD
ATOM      3  C   LIG    1       -1.187   1.624   0.018  0.00  0.00    +0.690 C 
ATOM      4  N   LIG    1       -0.011   0.966   0.011  0.00  0.00    -0.730 N 
ATOM      5  H   LIG    1        0.002  -0.004   0.005  0.00  0.00    +0.400 HD
ATOM      6  O   LIG    1       -1.204   2.839   0.025  0.00  0.00    -0.520 OA
ENDROOT
BRANCH   1  10
ATOM      7  C   LIG    1       -5.913   2.959   0.356  0.00  0.00    -0.770 A 
ATOM      8  C   LIG    1       -5.940   1.572   0.353  0.00  0.00    +0.220 A 
ATOM      9  C   LIG    1       -4.742   0.888   0.239  0.00  0.00    -0.080 A 
ATOM     10  C   LIG    1       -3.559   1.610   0.133  0.00  0.00    +0.430 A 
ATOM     11  N   LIG    1       -3.574   2.934   0.145  0.00  0.00    -0.480 NA
ATOM     12  C   LIG    1       -4.700   3.612   0.247  0.00  0.00    +0.420 A 
BRANCH   7  13
ATOM     13  S   LIG    1       -7.409   3.879   0.499  0.00  0.00    +2.710 S 
ATOM     14  O   LIG    1       -8.450   3.024   0.045  0.00  0.00    -0.960 OA
ATOM     15  O   LIG    1       -7.150   5.157  -0.066  0.00  0.00    -0.950 OA
BRANCH  13  17
ATOM     16  C   LIG    1       -6.751   4.950   2.894  0.00  0.00    +0.290 C 
ATOM     17  N   LIG    1       -7.679   4.128   2.114  0.00  0.00    -1.120 NA
ATOM     18  H   LIG    1       -8.452   3.728   2.544  0.00  0.00    +0.420 HD
ENDBRANCH  13  17
ENDBRANCH   7  13
ENDBRANCH   1  10
BRANCH   4  19
ATOM     19  C   LIG    1        1.248   1.715   0.004  0.00  0.00    +0.390 C 
BRANCH  19  20
ATOM     20  C   LIG    1        2.406   0.751  -0.010  0.00  0.00    -0.030 A 
ATOM     21  C   LIG    1        3.067   0.324  -1.105  0.00  0.00    +0.160 A 
ATOM     22  N   LIG    1        4.035  -0.531  -0.669  0.00  0.00    -0.450 N 
ATOM     23  C   LIG    1        5.019  -1.259  -1.474  0.00  0.00    +0.280 C 
ATOM     24  C   LIG    1        6.146  -1.744  -0.557  0.00  0.00    +0.030 C 
ATOM     25  C   LIG    1        5.546  -2.469   0.651  0.00  0.00    +0.030 C 
ATOM     26  C   LIG    1        4.833  -1.450   1.549  0.00  0.00    +0.150 C 
ATOM     27  C   LIG    1        3.936  -0.601   0.680  0.00  0.00    +0.210 A 
ATOM     28  N   LIG    1        2.964   0.173   1.066  0.00  0.00    -0.470 NA
ENDBRANCH  19  20
ENDBRANCH   4  19
TORSDOF 5
