REMARK  Name = ZINCpk000000nyo1.0
REMARK                            x       y       z     vdW  Elec       q    Type
REMARK                         _______ _______ _______ _____ _____    ______ ____
ROOT
ATOM      1  C   LIG    1       -3.620   2.519   0.034  0.00  0.00    +0.220 C 
ENDROOT
BRANCH   1   4
ATOM      2  N   LIG    1       -1.166   2.212   0.020  0.00  0.00    -0.640 N 
ATOM      3  H   LIG    1       -1.076   3.178   0.024  0.00  0.00    +0.410 HD
ATOM      4  C   LIG    1       -2.390   1.649   0.023  0.00  0.00    +0.500 C 
ATOM      5  O   LIG    1       -2.502   0.441   0.018  0.00  0.00    -0.510 OA
BRANCH   2   8
ATOM      6  N   LIG    1        2.071   0.736  -0.014  0.00  0.00    -0.360 N 
ATOM      7  C   LIG    1        1.270   1.832  -0.000  0.00  0.00    +0.200 A 
ATOM      8  C   LIG    1       -0.017   1.398   0.010  0.00  0.00    -0.000 A 
ATOM      9  C   LIG    1        0.002  -0.004   0.002  0.00  0.00    +0.250 A 
ATOM     10  N   LIG    1        1.249  -0.399  -0.012  0.00  0.00    -0.280 NA
BRANCH   6  11
ATOM     11  C   LIG    1        3.536   0.739  -0.028  0.00  0.00    +0.330 C 
BRANCH  11  13
ATOM     12  C   LIG    1        5.583  -0.194   1.059  0.00  0.00    +0.030 C 
ATOM     13  C   LIG    1        4.059  -0.093   1.145  0.00  0.00    -0.020 C 
ATOM     14  C   LIG    1        3.666   0.578   2.462  0.00  0.00    +0.010 C 
ENDBRANCH  11  13
ENDBRANCH   6  11
ENDBRANCH   2   8
ENDBRANCH   1   4
BRANCH   1  15
ATOM     15  O   LIG    1       -4.784   1.699   0.153  0.00  0.00    -0.500 OA
ATOM     16  H   LIG    1       -4.891   1.062  -0.566  0.00  0.00    +0.380 HD
ENDBRANCH   1  15
BRANCH   1  17
ATOM     17  C   LIG    1       -3.691   3.318  -1.269  0.00  0.00    +0.300 C 
BRANCH  17  18
ATOM     18  C   LIG    1       -4.981   4.096  -1.312  0.00  0.00    +0.240 A 
ATOM     19  N   LIG    1       -6.168   3.578  -1.185  0.00  0.00    -0.450 NA
ATOM     20  C   LIG    1       -7.105   4.557  -1.269  0.00  0.00    +0.040 A 
ATOM     21  C   LIG    1       -8.500   4.564  -1.199  0.00  0.00    +0.070 A 
ATOM     22  C   LIG    1       -9.182   5.740  -1.329  0.00  0.00    +0.000 A 
ATOM     23  C   LIG    1       -8.504   6.933  -1.530  0.00  0.00    +0.040 A 
ATOM     24  C   LIG    1       -7.127   6.950  -1.603  0.00  0.00    +0.000 A 
ATOM     25  C   LIG    1       -6.417   5.765  -1.473  0.00  0.00    +0.050 A 
ATOM     26  N   LIG    1       -5.075   5.440  -1.496  0.00  0.00    -0.590 N 
ATOM     27  H   LIG    1       -4.336   6.057  -1.619  0.00  0.00    +0.420 HD
ENDBRANCH  17  18
BRANCH  17  28
ATOM     28  O   LIG    1       -3.637   2.422  -2.381  0.00  0.00    -0.530 OA
ATOM     29  H   LIG    1       -4.358   1.778  -2.401  0.00  0.00    +0.390 HD
ENDBRANCH  17  28
ENDBRANCH   1  17
TORSDOF 8
