REMARK  Name = ZINCrH000004tPYr.0
REMARK                            x       y       z     vdW  Elec       q    Type
REMARK                         _______ _______ _______ _____ _____    ______ ____
ROOT
ATOM      1  O   LIG    1       -1.601   1.201  -3.181  0.00  0.00    -0.510 OA
ATOM      2  C   LIG    1       -0.997   0.776  -2.219  0.00  0.00    +0.530 C 
ATOM      3  N   LIG    1       -0.746   1.584  -1.170  0.00  0.00    -0.610 N 
ATOM      4  C   LIG    1       -1.195   2.984  -1.173  0.00  0.00    +0.310 C 
ATOM      5  C   LIG    1       -2.227   3.182  -0.054  0.00  0.00    +0.120 C 
ATOM      6  C   LIG    1       -1.720   2.514   1.197  0.00  0.00    -0.000 A 
ATOM      7  C   LIG    1       -0.741   1.583   1.235  0.00  0.00    -0.020 A 
ATOM      8  N   LIG    1       -0.559   1.215   2.505  0.00  0.00    -0.470 NA
ATOM      9  C   LIG    1       -1.385   1.882   3.269  0.00  0.00    +0.400 A 
ATOM     10  N   LIG    1       -2.132   2.710   2.483  0.00  0.00    -0.410 N 
ATOM     11  C   LIG    1       -0.013   1.086   0.008  0.00  0.00    +0.390 C 
ENDROOT
BRANCH  10  12
ATOM     12  C   LIG    1       -3.131   3.595   2.914  0.00  0.00    +0.100 A 
ATOM     13  C   LIG    1       -3.110   4.921   2.504  0.00  0.00    +0.060 A 
ATOM     14  C   LIG    1       -4.097   5.790   2.925  0.00  0.00    +0.020 A 
ATOM     15  C   LIG    1       -5.103   5.341   3.765  0.00  0.00    +0.110 A 
ATOM     16  C   LIG    1       -5.123   4.021   4.180  0.00  0.00    +0.020 A 
ATOM     17  F   LIG    1       -6.065   6.194   4.180  0.00  0.00    -0.130 F 
ATOM     18  C   LIG    1       -4.140   3.148   3.757  0.00  0.00    +0.060 A 
ENDBRANCH  10  12
BRANCH   2  19
ATOM     19  C   LIG    1       -0.527  -0.655  -2.197  0.00  0.00    +0.240 C 
BRANCH  19  20
ATOM     20  O   LIG    1       -0.911  -1.302  -3.413  0.00  0.00    -0.290 OA
BRANCH  20  21
ATOM     21  C   LIG    1       -0.561  -2.607  -3.554  0.00  0.00    +0.140 A 
ATOM     22  C   LIG    1        0.142  -3.251  -2.547  0.00  0.00    -0.070 A 
ATOM     23  C   LIG    1        0.491  -4.581  -2.691  0.00  0.00    +0.070 A 
ATOM     24  C   LIG    1        0.151  -5.265  -3.842  0.00  0.00    +0.010 A 
ATOM     25  C   LIG    1       -0.545  -4.624  -4.851  0.00  0.00    -0.050 A 
ATOM     26 BR   LIG    1       -1.009  -5.564  -6.425  0.00  0.00    -0.040 Br
ATOM     27  C   LIG    1       -0.902  -3.296  -4.710  0.00  0.00    +0.020 A 
ENDBRANCH  20  21
ENDBRANCH  19  20
ENDBRANCH   2  19
TORSDOF 4
