REMARK  Name = ZINCkj000005fV6u.1
REMARK                            x       y       z     vdW  Elec       q    Type
REMARK                         _______ _______ _______ _____ _____    ______ ____
ROOT
ATOM      1  N   LIG    1        2.091  -0.292  -0.159  0.00  0.00    -0.550 N 
ATOM      2  C   LIG    1        0.847  -0.784  -0.394  0.00  0.00    +0.580 A 
ATOM      3  N   LIG    1       -0.220  -0.044  -0.421  0.00  0.00    -0.500 NA
ATOM      4  C   LIG    1       -0.162   1.295  -0.212  0.00  0.00    +0.170 A 
ATOM      5  C   LIG    1       -1.310   2.090  -0.235  0.00  0.00    -0.100 A 
ATOM      6  C   LIG    1       -1.204   3.447  -0.022  0.00  0.00    +0.120 A 
ATOM      7  C   LIG    1        0.029   4.034   0.227  0.00  0.00    +0.020 A 
ATOM      8  C   LIG    1        1.175   3.269   0.260  0.00  0.00    +0.120 A 
ATOM      9  I   LIG    1       -3.183   1.225  -0.601  0.00  0.00    +0.000 I 
ATOM     10  C   LIG    1        1.091   1.896   0.041  0.00  0.00    -0.190 A 
ATOM     11  C   LIG    1        2.279   1.030   0.066  0.00  0.00    +0.550 A 
ATOM     12  O   LIG    1        3.388   1.484   0.278  0.00  0.00    -0.510 OA
ENDROOT
BRANCH   1  13
ATOM     13  C   LIG    1        3.240  -1.201  -0.146  0.00  0.00    +0.300 C 
BRANCH  13  14
ATOM     14  C   LIG    1        3.824  -1.304  -1.557  0.00  0.00    +0.190 C 
BRANCH  14  15
ATOM     15  O   LIG    1        2.828  -1.808  -2.449  0.00  0.00    -0.550 OA
ATOM     16  H   LIG    1        2.496  -2.684  -2.213  0.00  0.00    +0.390 HD
ENDBRANCH  14  15
BRANCH  14  17
ATOM     17  C   LIG    1        5.024  -2.253  -1.544  0.00  0.00    +0.250 C 
BRANCH  17  18
ATOM     18  N   LIG    1        5.605  -2.326  -2.892  0.00  0.00    -0.380 N 
ATOM     19  C   LIG    1        6.662  -3.345  -2.914  0.00  0.00    +0.320 C 
ATOM     20  H   LIG    1        4.885  -2.573  -3.555  0.00  0.00    +0.430 HD
BRANCH  18  22
ATOM     21  C   LIG    1        6.667  -1.061  -4.699  0.00  0.00    +0.080 C 
ATOM     22  C   LIG    1        6.175  -1.021  -3.251  0.00  0.00    +0.240 C 
ENDBRANCH  18  22
ENDBRANCH  17  18
ENDBRANCH  14  17
ENDBRANCH  13  14
ENDBRANCH   1  13
TORSDOF 6
