REMARK  Name = ZINCrH000004mVUx.0
REMARK                            x       y       z     vdW  Elec       q    Type
REMARK                         _______ _______ _______ _____ _____    ______ ____
ROOT
ATOM      1  C   LIG    1       -4.780  -1.688   2.374  0.00  0.00    +0.150 A 
ATOM      2  C   LIG    1       -4.499  -1.436   1.042  0.00  0.00    -0.070 A 
ATOM      3  C   LIG    1       -3.416  -0.646   0.701  0.00  0.00    +0.140 A 
ATOM      4  C   LIG    1       -2.606  -0.115   1.686  0.00  0.00    -0.690 A 
ATOM      5  C   LIG    1       -2.879  -0.362   3.019  0.00  0.00    +0.170 A 
ATOM      6  C   LIG    1       -3.966  -1.149   3.369  0.00  0.00    +0.100 A 
ENDROOT
BRANCH   6   7
ATOM      7  N   LIG    1       -4.245  -1.401   4.718  0.00  0.00    -0.660 N 
ATOM      8  H   LIG    1       -4.740  -2.196   4.971  0.00  0.00    +0.420 HD
ATOM      9  C   LIG    1       -3.825  -0.539   5.666  0.00  0.00    +0.520 C 
ATOM     10  O   LIG    1       -3.295   0.504   5.345  0.00  0.00    -0.500 OA
BRANCH   9  11
ATOM     11  C   LIG    1       -4.015  -0.871   7.123  0.00  0.00    +0.000 C 
ATOM     12  C   LIG    1       -5.507  -1.045   7.417  0.00  0.00    +0.030 C 
ATOM     13  C   LIG    1       -6.246   0.254   7.089  0.00  0.00    +0.010 C 
ATOM     14  C   LIG    1       -5.687   1.390   7.947  0.00  0.00    +0.000 C 
ATOM     15  C   LIG    1       -4.195   1.564   7.654  0.00  0.00    +0.030 C 
ATOM     16  C   LIG    1       -3.456   0.266   7.982  0.00  0.00    +0.040 C 
BRANCH  14  17
ATOM     17  C   LIG    1       -6.426   2.689   7.619  0.00  0.00    -0.060 C 
ATOM     18  C   LIG    1       -5.867   3.825   8.478  0.00  0.00    +0.020 C 
ATOM     19  C   LIG    1       -7.918   2.514   7.913  0.00  0.00    +0.020 C 
ATOM     20  C   LIG    1       -6.234   3.025   6.139  0.00  0.00    +0.010 C 
ENDBRANCH  14  17
ENDBRANCH   9  11
ENDBRANCH   6   7
BRANCH   4  21
ATOM     21  S   LIG    1       -1.224   0.886   1.244  0.00  0.00    +2.690 S 
ATOM     22  O   LIG    1       -1.504   1.406  -0.049  0.00  0.00    -0.950 OA
ATOM     23  O   LIG    1       -0.947   1.708   2.369  0.00  0.00    -0.940 OA
BRANCH  21  24
ATOM     24  N   LIG    1        0.077  -0.124   1.070  0.00  0.00    -1.010 NA
ATOM     25  C   LIG    1        0.935  -0.417   2.220  0.00  0.00    +0.290 C 
ATOM     26  C   LIG    1        0.370  -0.723  -0.234  0.00  0.00    +0.300 C 
ENDBRANCH  21  24
ENDBRANCH   4  21
BRANCH   1  28
ATOM     27  C   LIG    1       -6.637  -2.979   1.640  0.00  0.00    +0.250 C 
ATOM     28  O   LIG    1       -5.847  -2.460   2.712  0.00  0.00    -0.310 OA
ENDBRANCH   1  28
TORSDOF 6
