REMARK  Name = ZINCrg000000rcX9.0
REMARK                            x       y       z     vdW  Elec       q    Type
REMARK                         _______ _______ _______ _____ _____    ______ ____
ROOT
ATOM      1  C   LIG    1       -0.716   1.367  -1.425  0.00  0.00    +0.030 C 
ATOM      2  C   LIG    1       -0.110   1.105  -0.045  0.00  0.00    +0.240 C 
ENDROOT
BRANCH   2   3
ATOM      3  N   LIG    1       -0.913   1.780   0.977  0.00  0.00    -0.700 N 
ATOM      4  H   LIG    1       -0.685   2.682   1.255  0.00  0.00    +0.400 HD
ATOM      5  C   LIG    1       -1.967   1.150   1.531  0.00  0.00    +0.600 C 
ATOM      6  O   LIG    1       -2.253   0.020   1.182  0.00  0.00    -0.550 OA
BRANCH   5   7
ATOM      7  C   LIG    1       -2.771   1.827   2.555  0.00  0.00    -0.270 A 
ATOM      8  C   LIG    1       -3.898   1.304   3.217  0.00  0.00    +0.110 A 
ATOM      9  C   LIG    1       -4.577   0.082   3.141  0.00  0.00    +0.140 A 
ATOM     10  C   LIG    1       -5.667  -0.123   3.938  0.00  0.00    +0.010 A 
ATOM     11  C   LIG    1       -6.088   0.880   4.815  0.00  0.00    +0.330 A 
ATOM     12  N   LIG    1       -5.449   2.019   4.892  0.00  0.00    -0.210 NA
ATOM     13  N   LIG    1       -4.331   2.267   4.087  0.00  0.00    -0.170 N 
ATOM     14  N   LIG    1       -3.486   3.374   3.955  0.00  0.00    -0.250 NA
ATOM     15  C   LIG    1       -2.568   3.121   3.057  0.00  0.00    +0.310 A 
ENDBRANCH   5   7
ENDBRANCH   2   3
BRANCH   2  16
ATOM     16  C   LIG    1        1.322   1.642  -0.006  0.00  0.00    +0.180 C 
BRANCH  16  17
ATOM     17  N   LIG    1        1.869   1.480   1.347  0.00  0.00    -0.540 NA
ATOM     18  C   LIG    1        3.014   2.376   1.563  0.00  0.00    +0.200 C 
ATOM     19  C   LIG    1        3.504   2.234   3.006  0.00  0.00    +0.210 C 
ATOM     20  N   LIG    1        3.878   0.836   3.259  0.00  0.00    -0.480 N 
ATOM     21  C   LIG    1        2.734  -0.060   3.043  0.00  0.00    +0.220 C 
ATOM     22  C   LIG    1        2.244   0.082   1.600  0.00  0.00    +0.180 C 
BRANCH  20  23
ATOM     23  C   LIG    1        4.396   0.683   4.540  0.00  0.00    +0.310 A 
ATOM     24  C   LIG    1        5.488   1.447   4.938  0.00  0.00    -0.050 A 
ATOM     25  C   LIG    1        5.993   1.284   6.215  0.00  0.00    +0.090 A 
ATOM     26  C   LIG    1        5.387   0.360   7.055  0.00  0.00    -0.070 A 
ATOM     27  C   LIG    1        4.306  -0.365   6.594  0.00  0.00    +0.290 A 
ATOM     28  N   LIG    1        3.842  -0.186   5.372  0.00  0.00    -0.520 NA
ENDBRANCH  20  23
ENDBRANCH  16  17
ENDBRANCH   2  16
TORSDOF 5
