REMARK  Name = ZINCrH000004jKpm.0
REMARK                            x       y       z     vdW  Elec       q    Type
REMARK                         _______ _______ _______ _____ _____    ______ ____
ROOT
ATOM      1  N   LIG    1       -0.194   0.949   0.765  0.00  0.00    -0.710 N 
ATOM      2  H   LIG    1       -0.303  -0.002   0.604  0.00  0.00    +0.410 HD
ATOM      3  C   LIG    1        1.032   1.506   0.710  0.00  0.00    +0.580 C 
ATOM      4  O   LIG    1        1.158   2.711   0.818  0.00  0.00    -0.520 OA
ENDROOT
BRANCH   3   5
ATOM      5  C   LIG    1        2.218   0.657   0.517  0.00  0.00    +0.040 A 
ATOM      6  C   LIG    1        2.244  -0.724   0.494  0.00  0.00    -0.050 A 
ATOM      7  C   LIG    1        3.563  -1.118   0.285  0.00  0.00    +0.100 A 
ATOM      8  N   LIG    1        4.315  -0.049   0.193  0.00  0.00    -0.250 NA
ATOM      9  N   LIG    1        3.505   1.085   0.334  0.00  0.00    -0.290 N 
BRANCH   9  10
ATOM     10  C   LIG    1        3.935   2.417   0.294  0.00  0.00    +0.130 A 
ATOM     11  C   LIG    1        3.223   3.357  -0.439  0.00  0.00    +0.060 A 
ATOM     12  C   LIG    1        3.647   4.671  -0.471  0.00  0.00    +0.020 A 
ATOM     13  C   LIG    1        4.785   5.049   0.217  0.00  0.00    +0.020 A 
ATOM     14  C   LIG    1        5.500   4.115   0.944  0.00  0.00    +0.020 A 
ATOM     15  C   LIG    1        5.078   2.800   0.985  0.00  0.00    +0.030 A 
ENDBRANCH   9  10
BRANCH   7  16
ATOM     16  C   LIG    1        4.048  -2.542   0.186  0.00  0.00    +0.030 C 
ATOM     17  C   LIG    1        3.113  -3.643   0.692  0.00  0.00    +0.040 C 
ATOM     18  C   LIG    1        4.363  -3.273   1.493  0.00  0.00    +0.040 C 
ENDBRANCH   7  16
ENDBRANCH   3   5
BRANCH   1  19
ATOM     19  C   LIG    1       -1.363   1.779   1.064  0.00  0.00    +0.330 C 
BRANCH  19  23
ATOM     20  C   LIG    1       -4.878  -0.652   1.053  0.00  0.00    +0.230 A 
ATOM     21  C   LIG    1       -4.160  -0.472   2.228  0.00  0.00    -0.080 A 
ATOM     22  C   LIG    1       -3.024   0.314   2.228  0.00  0.00    +0.070 A 
ATOM     23  C   LIG    1       -2.603   0.922   1.060  0.00  0.00    -0.180 A 
ATOM     24  C   LIG    1       -3.319   0.750  -0.111  0.00  0.00    +0.070 A 
ATOM     25  C   LIG    1       -4.452  -0.040  -0.119  0.00  0.00    -0.070 A 
BRANCH  20  27
ATOM     26  C   LIG    1       -6.398  -2.204   2.247  0.00  0.00    +0.280 C 
ATOM     27  N   LIG    1       -6.027  -1.446   1.049  0.00  0.00    -0.640 N 
ATOM     28  C   LIG    1       -6.862  -1.521  -0.152  0.00  0.00    +0.280 C 
ENDBRANCH  20  27
ENDBRANCH  19  23
ENDBRANCH   1  19
TORSDOF 6
