REMARK  Name = ZINCvU0000000Cqg.0
REMARK                            x       y       z     vdW  Elec       q    Type
REMARK                         _______ _______ _______ _____ _____    ______ ____
ROOT
ATOM      1  C   LIG    1       -5.974  10.905   1.787  0.00  0.00    +0.200 A 
ATOM      2  N   LIG    1       -5.752  10.733   0.514  0.00  0.00    -0.270 NA
ATOM      3  N   LIG    1       -4.735   9.967   0.342  0.00  0.00    -0.290 NA
ATOM      4  C   LIG    1       -4.252   9.596   1.506  0.00  0.00    +0.160 A 
ATOM      5  N   LIG    1       -5.027  10.186   2.466  0.00  0.00    -0.420 N 
ENDROOT
BRANCH   5   6
ATOM      6  C   LIG    1       -4.880  10.079   3.857  0.00  0.00    +0.110 A 
ATOM      7  C   LIG    1       -5.870   9.469   4.616  0.00  0.00    +0.030 A 
ATOM      8  C   LIG    1       -5.721   9.361   5.985  0.00  0.00    +0.040 A 
ATOM      9  C   LIG    1       -4.592   9.869   6.601  0.00  0.00    +0.030 A 
ATOM     10  C   LIG    1       -3.607  10.482   5.848  0.00  0.00    +0.040 A 
ATOM     11  C   LIG    1       -3.748  10.588   4.479  0.00  0.00    +0.030 A 
ENDBRANCH   5   6
BRANCH   1  12
ATOM     12  C   LIG    1       -7.071  11.739   2.397  0.00  0.00    +0.210 C 
BRANCH  12  16
ATOM     13  C   LIG    1       -5.673  15.734   2.969  0.00  0.00    +0.000 A 
ATOM     14  C   LIG    1       -6.286  15.380   1.782  0.00  0.00    +0.000 A 
ATOM     15  C   LIG    1       -6.738  14.087   1.597  0.00  0.00    +0.030 A 
ATOM     16  C   LIG    1       -6.577  13.148   2.599  0.00  0.00    -0.090 A 
ATOM     17  C   LIG    1       -5.969  13.504   3.788  0.00  0.00    +0.010 A 
ATOM     18  C   LIG    1       -5.512  14.796   3.971  0.00  0.00    +0.000 A 
ENDBRANCH  12  16
ENDBRANCH   1  12
BRANCH   4  19
ATOM     19  S   LIG    1       -2.866   8.543   1.778  0.00  0.00    +0.030 S 
BRANCH  19  20
ATOM     20  C   LIG    1       -2.401   8.186   0.066  0.00  0.00    +0.210 C 
BRANCH  20  21
ATOM     21  C   LIG    1       -1.201   7.274   0.050  0.00  0.00    +0.070 A 
ATOM     22  C   LIG    1        0.051   7.747   0.041  0.00  0.00    -0.030 A 
ATOM     23  S   LIG    1        1.157   6.375   0.031  0.00  0.00    +0.130 S 
ATOM     24  C   LIG    1       -0.217   5.273   0.031  0.00  0.00    +0.110 A 
ATOM     25  N   LIG    1       -1.319   5.968   0.045  0.00  0.00    -0.420 NA
BRANCH  24  26
ATOM     26  C   LIG    1       -0.134   3.797   0.023  0.00  0.00    +0.190 A 
ATOM     27  C   LIG    1        1.114   3.175   0.008  0.00  0.00    -0.010 A 
ATOM     28  C   LIG    1        1.176   1.792   0.001  0.00  0.00    +0.070 A 
ATOM     29  C   LIG    1       -0.013   1.076   0.008  0.00  0.00    -0.020 A 
ATOM     30  C   LIG    1       -1.216   1.757   0.017  0.00  0.00    +0.280 A 
ATOM     31  N   LIG    1       -1.248   3.074   0.030  0.00  0.00    -0.440 NA
ENDBRANCH  24  26
ENDBRANCH  20  21
ENDBRANCH  19  20
ENDBRANCH   4  19
TORSDOF 7
