REMARK  Name = ZINCrg000000t8CF.0
REMARK                            x       y       z     vdW  Elec       q    Type
REMARK                         _______ _______ _______ _____ _____    ______ ____
ROOT
ATOM      1  S   LIG    1       -0.967  -5.476  -2.070  0.00  0.00    +2.630 S 
ATOM      2  O   LIG    1       -1.174  -5.950  -3.394  0.00  0.00    -0.950 OA
ATOM      3  O   LIG    1       -1.973  -5.618  -1.076  0.00  0.00    -0.950 OA
ENDROOT
BRANCH   1   8
ATOM      4  O   LIG    1       -1.168   0.254  -2.031  0.00  0.00    -0.530 OA
ATOM      5  C   LIG    1       -0.695  -0.523  -1.229  0.00  0.00    +0.550 C 
ATOM      6  N   LIG    1       -0.793  -1.851  -1.439  0.00  0.00    -0.640 N 
ATOM      7  C   LIG    1       -0.362  -3.068  -0.736  0.00  0.00    +0.340 C 
ATOM      8  C   LIG    1       -0.329  -3.779  -2.093  0.00  0.00    -0.480 C 
ATOM      9  C   LIG    1       -1.373  -2.719  -2.474  0.00  0.00    +0.340 C 
BRANCH   5  10
ATOM     10  C   LIG    1        0.002  -0.004   0.002  0.00  0.00    -0.010 C 
ATOM     11  C   LIG    1       -0.019   1.534   0.011  0.00  0.00    +0.040 C 
ATOM     12  C   LIG    1        1.453   1.995  -0.001  0.00  0.00    +0.020 C 
ATOM     13  C   LIG    1        2.232   0.792   0.586  0.00  0.00    +0.020 C 
ATOM     14  C   LIG    1        1.486  -0.425  -0.014  0.00  0.00    +0.030 C 
ENDBRANCH   5  10
ENDBRANCH   1   8
BRANCH   1  15
ATOM     15  N   LIG    1        0.296  -6.385  -1.504  0.00  0.00    -1.090 NA
ATOM     16  H   LIG    1        0.714  -7.046  -2.078  0.00  0.00    +0.420 HD
BRANCH  15  17
ATOM     17  C   LIG    1        0.784  -6.190  -0.137  0.00  0.00    +0.340 C 
BRANCH  17  18
ATOM     18  C   LIG    1        1.660  -7.352   0.255  0.00  0.00    -0.140 A 
ATOM     19  C   LIG    1        1.158  -8.376   1.039  0.00  0.00    +0.110 A 
ATOM     20  C   LIG    1        2.001  -9.427   1.375  0.00  0.00    -0.030 A 
ATOM     21  C   LIG    1        3.304  -9.420   0.920  0.00  0.00    +0.310 A 
ATOM     22  N   LIG    1        3.755  -8.430   0.173  0.00  0.00    -0.500 NA
ATOM     23  C   LIG    1        2.981  -7.413  -0.172  0.00  0.00    +0.380 A 
BRANCH  23  24
ATOM     24  N   LIG    1        3.499  -6.389  -0.970  0.00  0.00    -0.330 N 
ATOM     25  C   LIG    1        4.807  -6.036  -1.070  0.00  0.00    +0.260 A 
ATOM     26  C   LIG    1        4.888  -5.007  -1.945  0.00  0.00    -0.100 A 
ATOM     27  C   LIG    1        3.592  -4.713  -2.386  0.00  0.00    +0.250 A 
ATOM     28  N   LIG    1        2.761  -5.539  -1.804  0.00  0.00    -0.280 NA
ENDBRANCH  23  24
ENDBRANCH  17  18
ENDBRANCH  15  17
ENDBRANCH   1  15
TORSDOF 6
