REMARK  Name = ZINCvU0000000Is9.0
REMARK                            x       y       z     vdW  Elec       q    Type
REMARK                         _______ _______ _______ _____ _____    ______ ____
ROOT
ATOM      1  C   LIG    1        1.176   1.783  -0.005  0.00  0.00    -0.170 A 
ATOM      2  C   LIG    1       -0.021   1.062  -0.006  0.00  0.00    +0.060 A 
ATOM      3  C   LIG    1       -1.226   1.731  -0.008  0.00  0.00    -0.010 A 
ATOM      4  C   LIG    1       -1.257   3.116   0.001  0.00  0.00    +0.070 A 
ATOM      5  C   LIG    1       -0.083   3.842   0.002  0.00  0.00    +0.010 A 
ATOM      6  C   LIG    1        1.140   3.185  -0.001  0.00  0.00    +0.210 A 
ENDROOT
BRANCH   1   9
ATOM      7  N   LIG    1        2.501  -0.271   0.090  0.00  0.00    -0.720 N 
ATOM      8  H   LIG    1        1.673  -0.771   0.162  0.00  0.00    +0.400 HD
ATOM      9  C   LIG    1        2.469   1.073  -0.008  0.00  0.00    +0.570 C 
ATOM     10  O   LIG    1        3.507   1.701  -0.099  0.00  0.00    -0.550 OA
BRANCH   7  12
ATOM     11  C   LIG    1        4.231  -1.216  -1.357  0.00  0.00    +0.040 C 
ATOM     12  C   LIG    1        3.785  -0.975   0.087  0.00  0.00    +0.280 C 
BRANCH  12  13
ATOM     13  C   LIG    1        3.634  -2.298   0.793  0.00  0.00    -0.100 A 
ATOM     14  C   LIG    1        2.492  -3.054   0.609  0.00  0.00    +0.000 A 
ATOM     15  C   LIG    1        2.355  -4.269   1.254  0.00  0.00    +0.020 A 
ATOM     16  C   LIG    1        3.357  -4.724   2.090  0.00  0.00    +0.000 A 
ATOM     17  C   LIG    1        4.498  -3.965   2.279  0.00  0.00    +0.020 A 
ATOM     18  C   LIG    1        4.636  -2.752   1.631  0.00  0.00    +0.020 A 
ENDBRANCH  12  13
ENDBRANCH   7  12
ENDBRANCH   1   9
BRANCH   6  19
ATOM     19  N   LIG    1        2.326   3.915   0.000  0.00  0.00    -0.650 N 
ATOM     20  H   LIG    1        3.100   3.585  -0.482  0.00  0.00    +0.430 HD
ATOM     21  C   LIG    1        2.399   5.081   0.673  0.00  0.00    +0.540 C 
ATOM     22  O   LIG    1        1.465   5.448   1.354  0.00  0.00    -0.500 OA
BRANCH  21  23
ATOM     23  C   LIG    1        3.641   5.929   0.578  0.00  0.00    +0.080 C 
BRANCH  23  24
ATOM     24  S   LIG    1        3.433   7.419   1.585  0.00  0.00    +0.160 S 
BRANCH  24  25
ATOM     25  C   LIG    1        4.985   8.202   1.298  0.00  0.00    +0.200 A 
ATOM     26  N   LIG    1        5.354   9.348   1.812  0.00  0.00    -0.450 NA
ATOM     27  C   LIG    1        6.609   9.640   1.373  0.00  0.00    +0.030 A 
ATOM     28  C   LIG    1        7.483  10.705   1.591  0.00  0.00    +0.080 A 
ATOM     29  C   LIG    1        8.721  10.709   0.986  0.00  0.00    +0.020 A 
ATOM     30  C   LIG    1        9.102   9.662   0.163  0.00  0.00    +0.050 A 
ATOM     31  C   LIG    1        8.247   8.601  -0.062  0.00  0.00    +0.050 A 
ATOM     32  C   LIG    1        6.999   8.581   0.538  0.00  0.00    +0.010 A 
ATOM     33  O   LIG    1        5.967   7.707   0.522  0.00  0.00    -0.210 OA
ENDBRANCH  24  25
ENDBRANCH  23  24
ENDBRANCH  21  23
ENDBRANCH   6  19
TORSDOF 7
