REMARK  Name = ZINCqH0000000q9l.0
REMARK                            x       y       z     vdW  Elec       q    Type
REMARK                         _______ _______ _______ _____ _____    ______ ____
ROOT
ATOM      1  C   LIG    1       -2.706   2.942   4.748  0.00  0.00    +0.130 A 
ATOM      2  C   LIG    1       -2.399   4.110   5.338  0.00  0.00    -0.110 A 
ATOM      3  S   LIG    1       -3.440   4.307   6.746  0.00  0.00    +0.210 S 
ATOM      4  C   LIG    1       -4.207   2.761   6.395  0.00  0.00    +0.280 A 
ATOM      5  N   LIG    1       -3.675   2.249   5.329  0.00  0.00    -0.500 NA
ENDROOT
BRANCH   1   9
ATOM      6  C   LIG    1       -0.718   1.572   1.248  0.00  0.00    -0.080 A 
ATOM      7  C   LIG    1       -0.357   2.780   1.817  0.00  0.00    +0.020 A 
ATOM      8  C   LIG    1       -1.003   3.232   2.950  0.00  0.00    +0.030 A 
ATOM      9  C   LIG    1       -2.013   2.464   3.526  0.00  0.00    -0.020 A 
ATOM     10  C   LIG    1       -2.369   1.245   2.952  0.00  0.00    +0.050 A 
ATOM     11  C   LIG    1       -1.720   0.805   1.816  0.00  0.00    +0.020 A 
BRANCH   6  12
ATOM     12  C   LIG    1       -0.013   1.086   0.008  0.00  0.00    +0.070 C 
BRANCH  12  13
ATOM     13  C   LIG    1       -0.753   1.593  -1.232  0.00  0.00    +0.260 C 
BRANCH  13  16
ATOM     14  C   LIG    1        0.162   0.960  -4.895  0.00  0.00    +0.110 C 
ATOM     15  C   LIG    1       -0.543   1.446  -3.655  0.00  0.00    +0.510 C 
ATOM     16  N   LIG    1       -0.067   1.120  -2.437  0.00  0.00    -0.730 N 
ATOM     17  H   LIG    1        0.730   0.573  -2.358  0.00  0.00    +0.400 HD
ATOM     18  O   LIG    1       -1.540   2.130  -3.753  0.00  0.00    -0.550 OA
ENDBRANCH  13  16
ENDBRANCH  12  13
ENDBRANCH   6  12
ENDBRANCH   1   9
BRANCH   4  19
ATOM     19  N   LIG    1       -5.227   2.183   7.140  0.00  0.00    -0.620 N 
ATOM     20  H   LIG    1       -5.594   1.326   6.876  0.00  0.00    +0.420 HD
ATOM     21  C   LIG    1       -5.705   2.815   8.230  0.00  0.00    +0.560 C 
ATOM     22  O   LIG    1       -5.245   3.890   8.562  0.00  0.00    -0.500 OA
BRANCH  21  23
ATOM     23  C   LIG    1       -6.791   2.200   9.023  0.00  0.00    -0.140 A 
ATOM     24  C   LIG    1       -7.326   0.968   8.643  0.00  0.00    +0.050 A 
ATOM     25  C   LIG    1       -8.335   0.397   9.390  0.00  0.00    +0.010 A 
ATOM     26  C   LIG    1       -8.824   1.048  10.509  0.00  0.00    +0.050 A 
ATOM     27  C   LIG    1       -8.302   2.272  10.889  0.00  0.00    +0.010 A 
ATOM     28  C   LIG    1       -7.289   2.851  10.153  0.00  0.00    +0.090 A 
ENDBRANCH  21  23
ENDBRANCH   4  19
TORSDOF 6
