REMARK  Name = ZINCpk00000xI4Hq.2
REMARK                            x       y       z     vdW  Elec       q    Type
REMARK                         _______ _______ _______ _____ _____    ______ ____
ROOT
ATOM      1  C   LIG    1        4.698   1.481  -0.035  0.00  0.00    +0.420 A 
ATOM      2  N   LIG    1        3.559   2.106  -0.021  0.00  0.00    -0.500 NA
ATOM      3  C   LIG    1        2.380   1.435  -0.013  0.00  0.00    +0.150 A 
ATOM      4  C   LIG    1        1.156   2.106   0.002  0.00  0.00    +0.040 A 
ATOM      5  C   LIG    1       -0.017   1.384   0.010  0.00  0.00    +0.070 A 
ATOM      6  C   LIG    1        0.002  -0.004   0.002  0.00  0.00    +0.010 A 
ATOM      7  C   LIG    1        1.198  -0.689  -0.013  0.00  0.00    +0.100 A 
ATOM      8  C   LIG    1        2.396   0.022  -0.020  0.00  0.00    -0.190 A 
ATOM      9  C   LIG    1        3.702  -0.653  -0.036  0.00  0.00    +0.560 A 
ATOM     10  O   LIG    1        3.785  -1.868  -0.043  0.00  0.00    -0.500 OA
ATOM     11  N   LIG    1        4.807   0.127  -0.043  0.00  0.00    -0.520 N 
ENDROOT
BRANCH   1  12
ATOM     12  C   LIG    1        5.963   2.301  -0.044  0.00  0.00    +0.150 C 
BRANCH  12  13
ATOM     13  S   LIG    1        5.540   4.065  -0.032  0.00  0.00    +0.140 S 
BRANCH  13  16
ATOM     14  C   LIG    1        8.617   6.411  -0.051  0.00  0.00    +0.310 A 
ATOM     15  N   LIG    1        7.330   6.170  -0.040  0.00  0.00    -0.510 NA
ATOM     16  C   LIG    1        7.118   4.850  -0.044  0.00  0.00    +0.190 A 
ATOM     17  N   LIG    1        8.277   4.235  -0.053  0.00  0.00    -0.330 NA
ATOM     18  N   LIG    1        9.265   5.234  -0.062  0.00  0.00    -0.470 N 
ATOM     19  H   LIG    1       10.225   5.100  -0.071  0.00  0.00    +0.440 HD
BRANCH  14  21
ATOM     20  C   LIG    1        9.604   8.174   1.386  0.00  0.00    +0.060 C 
ATOM     21  C   LIG    1        9.260   7.774  -0.050  0.00  0.00    +0.090 C 
ATOM     22  C   LIG    1       10.539   7.734  -0.889  0.00  0.00    +0.040 C 
ENDBRANCH  14  21
ENDBRANCH  13  16
ENDBRANCH  12  13
ENDBRANCH   1  12
BRANCH  11  23
ATOM     23  C   LIG    1        6.134  -0.494  -0.059  0.00  0.00    +0.340 C 
BRANCH  23  24
ATOM     24  C   LIG    1        6.602  -0.714   1.356  0.00  0.00    +0.500 C 
ATOM     25  O   LIG    1        5.897  -0.384   2.287  0.00  0.00    -0.520 OA
ATOM     26  N   LIG    1        7.805  -1.277   1.589  0.00  0.00    -0.850 N 
ATOM     27  H   LIG    1        8.106  -1.418   2.499  0.00  0.00    +0.410 HD
ATOM     28  H   LIG    1        8.369  -1.540   0.845  0.00  0.00    +0.410 HD
ENDBRANCH  23  24
ENDBRANCH  11  23
TORSDOF 6
