REMARK  Name = ZINCpk00000xI4Hq.0
REMARK                            x       y       z     vdW  Elec       q    Type
REMARK                         _______ _______ _______ _____ _____    ______ ____
ROOT
ATOM      1  C   LIG    1       -7.673  -1.807   1.674  0.00  0.00    +0.420 A 
ATOM      2  N   LIG    1       -7.366  -2.948   2.212  0.00  0.00    -0.510 NA
ATOM      3  C   LIG    1       -8.309  -3.888   2.474  0.00  0.00    +0.150 A 
ATOM      4  C   LIG    1       -7.980  -5.115   3.053  0.00  0.00    +0.030 A 
ATOM      5  C   LIG    1       -8.970  -6.039   3.302  0.00  0.00    +0.070 A 
ATOM      6  C   LIG    1      -10.293  -5.766   2.984  0.00  0.00    +0.010 A 
ATOM      7  C   LIG    1      -10.643  -4.562   2.413  0.00  0.00    +0.100 A 
ATOM      8  C   LIG    1       -9.657  -3.613   2.153  0.00  0.00    -0.190 A 
ATOM      9  C   LIG    1       -9.970  -2.312   1.545  0.00  0.00    +0.560 A 
ATOM     10  O   LIG    1      -11.111  -2.013   1.244  0.00  0.00    -0.500 OA
ATOM     11  N   LIG    1       -8.942  -1.457   1.338  0.00  0.00    -0.520 N 
ENDROOT
BRANCH   1  12
ATOM     12  C   LIG    1       -6.566  -0.818   1.416  0.00  0.00    +0.180 C 
BRANCH  12  13
ATOM     13  S   LIG    1       -4.989  -1.522   1.958  0.00  0.00    +0.110 S 
BRANCH  13  17
ATOM     14  C   LIG    1       -2.143   1.058   1.278  0.00  0.00    +0.200 A 
ATOM     15  N   LIG    1       -3.201   1.687   0.853  0.00  0.00    -0.280 NA
ATOM     16  N   LIG    1       -4.244   0.951   1.006  0.00  0.00    -0.290 NA
ATOM     17  C   LIG    1       -3.905  -0.194   1.550  0.00  0.00    +0.130 A 
ATOM     18  N   LIG    1       -2.553  -0.162   1.740  0.00  0.00    -0.570 N 
ATOM     19  H   LIG    1       -1.999  -0.859   2.125  0.00  0.00    +0.430 HD
BRANCH  14  21
ATOM     20  C   LIG    1       -0.013   1.086   0.008  0.00  0.00    +0.050 C 
ATOM     21  C   LIG    1       -0.729   1.579   1.267  0.00  0.00    +0.100 C 
ATOM     22  C   LIG    1        0.011   1.072   2.506  0.00  0.00    +0.040 C 
ENDBRANCH  14  21
ENDBRANCH  13  17
ENDBRANCH  12  13
ENDBRANCH   1  12
BRANCH  11  23
ATOM     23  C   LIG    1       -9.198  -0.144   0.740  0.00  0.00    +0.330 C 
BRANCH  23  24
ATOM     24  C   LIG    1       -9.094  -0.246  -0.760  0.00  0.00    +0.500 C 
ATOM     25  O   LIG    1       -8.833  -1.311  -1.279  0.00  0.00    -0.530 OA
ATOM     26  N   LIG    1       -9.293   0.846  -1.525  0.00  0.00    -0.840 N 
ATOM     27  H   LIG    1       -9.226   0.780  -2.490  0.00  0.00    +0.410 HD
ATOM     28  H   LIG    1       -9.502   1.697  -1.110  0.00  0.00    +0.410 HD
ENDBRANCH  23  24
ENDBRANCH  11  23
TORSDOF 6
