REMARK  Name = ZINCpk00000xI4Hq.1
REMARK                            x       y       z     vdW  Elec       q    Type
REMARK                         _______ _______ _______ _____ _____    ______ ____
ROOT
ATOM      1  C   LIG    1        2.446   4.164   6.715  0.00  0.00    +0.420 A 
ATOM      2  N   LIG    1        3.006   3.449   7.643  0.00  0.00    -0.510 NA
ATOM      3  C   LIG    1        3.624   4.023   8.706  0.00  0.00    +0.150 A 
ATOM      4  C   LIG    1        4.227   3.255   9.704  0.00  0.00    +0.040 A 
ATOM      5  C   LIG    1        4.844   3.879  10.765  0.00  0.00    +0.070 A 
ATOM      6  C   LIG    1        4.876   5.264  10.855  0.00  0.00    +0.010 A 
ATOM      7  C   LIG    1        4.288   6.043   9.882  0.00  0.00    +0.100 A 
ATOM      8  C   LIG    1        3.658   5.432   8.801  0.00  0.00    -0.190 A 
ATOM      9  C   LIG    1        3.014   6.211   7.732  0.00  0.00    +0.560 A 
ATOM     10  O   LIG    1        3.008   7.428   7.754  0.00  0.00    -0.500 OA
ATOM     11  N   LIG    1        2.434   5.522   6.722  0.00  0.00    -0.520 N 
ENDROOT
BRANCH   1  12
ATOM     12  C   LIG    1        1.780   3.449   5.567  0.00  0.00    +0.180 C 
BRANCH  12  13
ATOM     13  S   LIG    1        1.942   1.661   5.794  0.00  0.00    +0.120 S 
BRANCH  13  18
ATOM     14  C   LIG    1        0.000   1.080   2.488  0.00  0.00    +0.240 A 
ATOM     15  N   LIG    1        0.195  -0.175   2.793  0.00  0.00    -0.300 NA
ATOM     16  N   LIG    1        0.913  -0.197   3.999  0.00  0.00    -0.460 N 
ATOM     17  H   LIG    1        1.212  -0.983   4.483  0.00  0.00    +0.450 HD
ATOM     18  C   LIG    1        1.101   1.092   4.354  0.00  0.00    +0.240 A 
ATOM     19  N   LIG    1        0.544   1.849   3.432  0.00  0.00    -0.540 NA
BRANCH  14  21
ATOM     20  C   LIG    1       -0.013   1.086   0.008  0.00  0.00    +0.050 C 
ATOM     21  C   LIG    1       -0.729   1.579   1.267  0.00  0.00    +0.100 C 
ATOM     22  C   LIG    1       -2.164   1.050   1.278  0.00  0.00    +0.050 C 
ENDBRANCH  14  21
ENDBRANCH  13  18
ENDBRANCH  12  13
ENDBRANCH   1  12
BRANCH  11  23
ATOM     23  C   LIG    1        1.784   6.248   5.629  0.00  0.00    +0.330 C 
BRANCH  23  24
ATOM     24  C   LIG    1        0.335   6.483   5.973  0.00  0.00    +0.500 C 
ATOM     25  O   LIG    1       -0.109   6.083   7.029  0.00  0.00    -0.530 OA
ATOM     26  N   LIG    1       -0.466   7.138   5.109  0.00  0.00    -0.850 N 
ATOM     27  H   LIG    1       -1.398   7.289   5.331  0.00  0.00    +0.410 HD
ATOM     28  H   LIG    1       -0.110   7.457   4.265  0.00  0.00    +0.410 HD
ENDBRANCH  23  24
ENDBRANCH  11  23
TORSDOF 6
