REMARK  Name = ZINCrH000004nCvh.0
REMARK                            x       y       z     vdW  Elec       q    Type
REMARK                         _______ _______ _______ _____ _____    ______ ____
ROOT
ATOM      1  C   LIG    1        4.796   1.973   0.457  0.00  0.00    +0.230 C 
ATOM      2  C   LIG    1        5.285   1.304   1.744  0.00  0.00    +0.000 C 
ATOM      3  C   LIG    1        6.503   0.429   1.429  0.00  0.00    +0.280 C 
ATOM      4  N   LIG    1        7.515   1.252   0.754  0.00  0.00    -0.600 N 
ATOM      5  C   LIG    1        7.126   2.011  -0.443  0.00  0.00    +0.290 C 
ATOM      6  C   LIG    1        8.777   1.311   1.224  0.00  0.00    +0.600 C 
ATOM      7  O   LIG    1        9.055   0.787   2.285  0.00  0.00    -0.520 OA
ATOM      8  C   LIG    1        5.902   2.868  -0.106  0.00  0.00    +0.010 C 
ENDROOT
BRANCH   6   9
ATOM      9  C   LIG    1        9.823   2.011   0.449  0.00  0.00    +0.070 A 
ATOM     10  N   LIG    1        9.683   2.495  -0.777  0.00  0.00    -0.280 NA
ATOM     11  N   LIG    1       10.889   3.089  -1.168  0.00  0.00    -0.270 N 
ATOM     12  C   LIG    1       11.269   3.724  -2.317  0.00  0.00    +0.300 A 
ATOM     13  C   LIG    1       12.518   4.214  -2.452  0.00  0.00    +0.020 A 
ATOM     14  C   LIG    1       13.453   4.079  -1.410  0.00  0.00    -0.000 A 
ATOM     15  C   LIG    1       13.091   3.449  -0.260  0.00  0.00    +0.070 A 
ATOM     16 CL   LIG    1       15.060   4.711  -1.591  0.00  0.00    -0.040 Cl
ATOM     17  C   LIG    1       11.781   2.943  -0.135  0.00  0.00    +0.110 A 
ATOM     18  C   LIG    1       11.126   2.269   0.884  0.00  0.00    -0.040 A 
ENDBRANCH   6   9
BRANCH   1  19
ATOM     19  N   LIG    1        3.612   2.785   0.749  0.00  0.00    -0.740 N 
ATOM     20  H   LIG    1        3.707   3.733   0.931  0.00  0.00    +0.400 HD
BRANCH  19  26
ATOM     21  C   LIG    1        1.216   2.962   1.044  0.00  0.00    +0.050 A 
ATOM     22  C   LIG    1       -0.035   2.371   1.060  0.00  0.00    -0.030 A 
ATOM     23  C   LIG    1       -0.165   1.018   0.800  0.00  0.00    -0.020 A 
ATOM     24  C   LIG    1        0.953   0.253   0.524  0.00  0.00    +0.010 A 
ATOM     25  C   LIG    1        2.207   0.837   0.507  0.00  0.00    -0.040 A 
ATOM     26  C   LIG    1        2.344   2.192   0.766  0.00  0.00    +0.200 A 
BRANCH  21  28
ATOM     27  C   LIG    1        0.146   5.019   1.575  0.00  0.00    +0.230 C 
ATOM     28  O   LIG    1        1.345   4.292   1.298  0.00  0.00    -0.320 OA
ENDBRANCH  21  28
ENDBRANCH  19  26
ENDBRANCH   1  19
TORSDOF 4
