REMARK  Name = ZINCrH000004rMc1.0
REMARK                            x       y       z     vdW  Elec       q    Type
REMARK                         _______ _______ _______ _____ _____    ______ ____
ROOT
ATOM      1  N   LIG    1       -4.463  -2.382   1.604  0.00  0.00    -0.720 N 
ATOM      2  H   LIG    1       -3.898  -2.991   2.104  0.00  0.00    +0.410 HD
ATOM      3  C   LIG    1       -4.328  -1.051   1.767  0.00  0.00    +0.520 C 
ATOM      4  O   LIG    1       -5.034  -0.289   1.141  0.00  0.00    -0.510 OA
ENDROOT
BRANCH   1   5
ATOM      5  C   LIG    1       -5.461  -2.908   0.670  0.00  0.00    +0.320 C 
BRANCH   5   8
ATOM      6  N   LIG    1       -6.243  -5.120  -0.115  0.00  0.00    -0.670 N 
ATOM      7  H   LIG    1       -6.913  -4.661  -0.645  0.00  0.00    +0.410 HD
ATOM      8  C   LIG    1       -5.408  -4.414   0.673  0.00  0.00    +0.510 C 
ATOM      9  O   LIG    1       -4.614  -4.991   1.386  0.00  0.00    -0.510 OA
BRANCH   6  17
ATOM     10  C   LIG    1       -3.696  -6.264  -0.669  0.00  0.00    +0.080 C 
ATOM     11  C   LIG    1       -4.919  -7.114  -0.437  0.00  0.00    -0.070 A 
ATOM     12  C   LIG    1       -4.822  -8.491  -0.485  0.00  0.00    +0.020 A 
ATOM     13  C   LIG    1       -5.944  -9.272  -0.277  0.00  0.00    +0.020 A 
ATOM     14  C   LIG    1       -7.165  -8.678  -0.015  0.00  0.00    +0.020 A 
ATOM     15  C   LIG    1       -7.267  -7.301   0.039  0.00  0.00    -0.090 A 
ATOM     16  C   LIG    1       -8.598  -6.654   0.324  0.00  0.00    +0.080 C 
ATOM     17  C   LIG    1       -6.142  -6.514  -0.169  0.00  0.00    +0.130 A 
ENDBRANCH   6  17
ENDBRANCH   5   8
ENDBRANCH   1   5
BRANCH   3  18
ATOM     18  C   LIG    1       -3.301  -0.509   2.728  0.00  0.00    +0.240 C 
BRANCH  18  19
ATOM     19  O   LIG    1       -3.352   0.919   2.725  0.00  0.00    -0.280 OA
BRANCH  19  20
ATOM     20  C   LIG    1       -2.483   1.569   3.543  0.00  0.00    +0.130 A 
ATOM     21  C   LIG    1       -1.600   0.847   4.333  0.00  0.00    -0.080 A 
ATOM     22  C   LIG    1       -0.714   1.510   5.160  0.00  0.00    +0.030 A 
ATOM     23  C   LIG    1       -0.711   2.892   5.205  0.00  0.00    -0.030 A 
ATOM     24  C   LIG    1       -1.593   3.614   4.422  0.00  0.00    +0.040 A 
ATOM     25  C   LIG    1       -2.481   2.955   3.594  0.00  0.00    -0.090 A 
BRANCH  25  26
ATOM     26  C   LIG    1       -3.443   3.742   2.741  0.00  0.00    -0.020 C 
ATOM     27  C   LIG    1       -4.879   3.366   3.112  0.00  0.00    +0.040 C 
ATOM     28  C   LIG    1       -3.197   3.422   1.266  0.00  0.00    +0.040 C 
ATOM     29  C   LIG    1       -3.229   5.238   2.981  0.00  0.00    +0.030 C 
ENDBRANCH  25  26
ENDBRANCH  19  20
ENDBRANCH  18  19
ENDBRANCH   3  18
TORSDOF 7
