REMARK  Name = ZINCrH00000tj1fv.0
REMARK                            x       y       z     vdW  Elec       q    Type
REMARK                         _______ _______ _______ _____ _____    ______ ____
ROOT
ATOM      1  C   LIG    1        5.983   4.024   0.198  0.00  0.00    +0.390 C 
ENDROOT
BRANCH   1   2
ATOM      2  N   LIG    1        6.597   4.143   1.527  0.00  0.00    -0.500 NA
ATOM      3  C   LIG    1        6.328   5.464   2.115  0.00  0.00    +0.090 C 
ATOM      4  C   LIG    1        6.933   5.524   3.520  0.00  0.00    +0.240 C 
ATOM      5  O   LIG    1        8.333   5.241   3.443  0.00  0.00    -0.380 OA
ATOM      6  C   LIG    1        8.631   3.962   2.876  0.00  0.00    +0.240 C 
ATOM      7  C   LIG    1        4.817   5.687   2.199  0.00  0.00    +0.050 C 
ATOM      8  C   LIG    1        8.043   3.886   1.464  0.00  0.00    +0.160 C 
BRANCH   8   9
ATOM      9  C   LIG    1        8.286   2.513   0.892  0.00  0.00    -0.090 A 
ATOM     10  C   LIG    1        7.473   1.457   1.260  0.00  0.00    +0.030 A 
ATOM     11  C   LIG    1        7.693   0.199   0.731  0.00  0.00    -0.010 A 
ATOM     12  C   LIG    1        8.731  -0.005  -0.159  0.00  0.00    +0.010 A 
ATOM     13  C   LIG    1        9.547   1.050  -0.523  0.00  0.00    +0.000 A 
ATOM     14  C   LIG    1        9.324   2.309   0.003  0.00  0.00    +0.030 A 
ENDBRANCH   8   9
ENDBRANCH   1   2
BRANCH   1  18
ATOM     15  C   LIG    1        6.825   6.929  -1.798  0.00  0.00    +0.210 A 
ATOM     16  N   LIG    1        7.797   6.094  -2.084  0.00  0.00    -0.270 NA
ATOM     17  N   LIG    1        7.621   4.999  -1.432  0.00  0.00    -0.260 NA
ATOM     18  C   LIG    1        6.539   5.090  -0.710  0.00  0.00    +0.130 A 
ATOM     19  O   LIG    1        6.013   6.309  -0.918  0.00  0.00    -0.220 OA
BRANCH  15  24
ATOM     20  C   LIG    1        7.419  10.093  -3.738  0.00  0.00    +0.130 A 
ATOM     21  C   LIG    1        6.330  10.858  -3.343  0.00  0.00    -0.040 A 
ATOM     22  C   LIG    1        5.412  10.350  -2.442  0.00  0.00    +0.060 A 
ATOM     23  C   LIG    1        5.567   9.074  -1.939  0.00  0.00    +0.010 A 
ATOM     24  C   LIG    1        6.656   8.296  -2.335  0.00  0.00    +0.010 A 
ATOM     25  C   LIG    1        7.584   8.812  -3.240  0.00  0.00    +0.050 A 
BRANCH  20  27
ATOM     26  C   LIG    1        8.089  11.928  -5.093  0.00  0.00    +0.240 C 
ATOM     27  O   LIG    1        8.321  10.600  -4.620  0.00  0.00    -0.310 OA
ENDBRANCH  20  27
ENDBRANCH  15  24
ENDBRANCH   1  18
TORSDOF 5
