REMARK  Name = ZINCnE000001Ov8L.0
REMARK                            x       y       z     vdW  Elec       q    Type
REMARK                         _______ _______ _______ _____ _____    ______ ____
ROOT
ATOM      1  C   LIG    1       -3.602   1.686   0.064  0.00  0.00    +0.560 C 
ATOM      2  N   LIG    1       -2.416   1.050   0.143  0.00  0.00    -0.660 N 
ATOM      3  H   LIG    1       -2.388   0.083   0.221  0.00  0.00    +0.400 HD
ATOM      4  O   LIG    1       -3.636   2.885  -0.128  0.00  0.00    -0.510 OA
ENDROOT
BRANCH   1   7
ATOM      5  C   LIG    1       -6.150   3.091   0.150  0.00  0.00    +0.140 C 
ATOM      6  C   LIG    1       -6.080   1.589   0.252  0.00  0.00    +0.050 A 
ATOM      7  C   LIG    1       -4.859   0.924   0.211  0.00  0.00    -0.200 A 
ATOM      8  C   LIG    1       -4.832  -0.478   0.304  0.00  0.00    +0.330 A 
ATOM      9  N   LIG    1       -5.929  -1.177   0.439  0.00  0.00    -0.480 NA
ATOM     10  C   LIG    1       -7.133  -0.593   0.485  0.00  0.00    +0.140 A 
ATOM     11  C   LIG    1       -8.301  -1.362   0.626  0.00  0.00    +0.040 A 
ATOM     12  C   LIG    1       -9.515  -0.747   0.670  0.00  0.00    +0.040 A 
ATOM     13  C   LIG    1       -9.623   0.638   0.579  0.00  0.00    +0.010 A 
ATOM     14  C   LIG    1       -8.515   1.418   0.442  0.00  0.00    +0.060 A 
ATOM     15  C   LIG    1       -7.246   0.817   0.393  0.00  0.00    -0.110 A 
ENDBRANCH   1   7
BRANCH   2  16
ATOM     16  C   LIG    1       -1.231   1.780   0.113  0.00  0.00    +0.120 A 
ATOM     17  C   LIG    1       -1.182   3.047   0.687  0.00  0.00    +0.000 A 
ATOM     18  C   LIG    1       -0.015   3.767   0.665  0.00  0.00    +0.060 A 
ATOM     19  C   LIG    1        1.126   3.229   0.059  0.00  0.00    -0.140 A 
ATOM     20  C   LIG    1        1.071   1.957  -0.521  0.00  0.00    +0.060 A 
ATOM     21  C   LIG    1       -0.100   1.243  -0.495  0.00  0.00    -0.040 A 
BRANCH  19  22
ATOM     22  C   LIG    1        2.381   3.998   0.034  0.00  0.00    +0.520 C 
ATOM     23  O   LIG    1        3.377   3.526  -0.496  0.00  0.00    -0.690 OA
ATOM     24  O   LIG    1        2.427   5.110   0.543  0.00  0.00    -0.690 OA
ENDBRANCH  19  22
ENDBRANCH   2  16
TORSDOF 3
