REMARK  Name = ZINCrg000000qKNw.0
REMARK                            x       y       z     vdW  Elec       q    Type
REMARK                         _______ _______ _______ _____ _____    ______ ____
ROOT
ATOM      1  N   LIG    1       -8.516   0.770  -3.403  0.00  0.00    -0.720 N 
ATOM      2  H   LIG    1       -8.573   0.859  -4.367  0.00  0.00    +0.400 HD
ATOM      3  C   LIG    1       -7.313   0.646  -2.808  0.00  0.00    +0.500 C 
ATOM      4  O   LIG    1       -7.241   0.535  -1.603  0.00  0.00    -0.520 OA
ENDROOT
BRANCH   1   5
ATOM      5  C   LIG    1       -9.737   0.772  -2.594  0.00  0.00    +0.260 C 
BRANCH   5   6
ATOM      6  C   LIG    1      -10.954   0.926  -3.507  0.00  0.00    +0.070 C 
BRANCH   6  10
ATOM      7  C   LIG    1      -14.516   0.931  -1.145  0.00  0.00    +0.130 A 
ATOM      8  C   LIG    1      -13.865   2.124  -1.424  0.00  0.00    -0.020 A 
ATOM      9  C   LIG    1      -12.714   2.120  -2.187  0.00  0.00    +0.060 A 
ATOM     10  C   LIG    1      -12.210   0.928  -2.674  0.00  0.00    -0.120 A 
ATOM     11  C   LIG    1      -12.860  -0.262  -2.403  0.00  0.00    +0.060 A 
ATOM     12  C   LIG    1      -14.008  -0.264  -1.635  0.00  0.00    -0.080 A 
BRANCH   7  14
ATOM     13  C   LIG    1      -16.266  -0.333  -0.148  0.00  0.00    +0.250 C 
ATOM     14  O   LIG    1      -15.649   0.932  -0.395  0.00  0.00    -0.320 OA
ENDBRANCH   7  14
ENDBRANCH   6  10
ENDBRANCH   5   6
ENDBRANCH   1   5
BRANCH   3  15
ATOM     15  C   LIG    1       -6.057   0.644  -3.642  0.00  0.00    +0.370 C 
BRANCH  15  16
ATOM     16  N   LIG    1       -4.891   0.497  -2.767  0.00  0.00    -0.560 N 
ATOM     17  C   LIG    1       -4.332  -0.675  -2.394  0.00  0.00    +0.510 C 
ATOM     18  C   LIG    1       -3.181  -0.303  -1.507  0.00  0.00    +0.510 C 
ATOM     19  N   LIG    1       -3.188   1.046  -1.455  0.00  0.00    -0.570 N 
ATOM     20  O   LIG    1       -2.406  -1.056  -0.954  0.00  0.00    -0.400 OA
ATOM     21  O   LIG    1       -4.685  -1.791  -2.710  0.00  0.00    -0.410 OA
ATOM     22  C   LIG    1       -4.208   1.504  -2.200  0.00  0.00    +0.720 C 
ATOM     23  O   LIG    1       -4.476   2.680  -2.345  0.00  0.00    -0.490 OA
BRANCH  19  24
ATOM     24  C   LIG    1       -2.243   1.875  -0.703  0.00  0.00    +0.260 C 
ATOM     25  C   LIG    1       -0.809   1.622  -1.200  0.00  0.00    +0.020 C 
ATOM     26  C   LIG    1       -0.013   1.086   0.008  0.00  0.00    +0.020 C 
ATOM     27  C   LIG    1       -0.789   1.611   1.242  0.00  0.00    +0.030 C 
ATOM     28  C   LIG    1       -2.268   1.485   0.789  0.00  0.00    +0.020 C 
ENDBRANCH  19  24
ENDBRANCH  15  16
ENDBRANCH   3  15
TORSDOF 7
