REMARK  Name = ZINCkj000005hTTd.0
REMARK                            x       y       z     vdW  Elec       q    Type
REMARK                         _______ _______ _______ _____ _____    ______ ____
ROOT
ATOM      1  C   LIG    1       -0.013   1.086   0.008  0.00  0.00    +0.330 C 
ENDROOT
BRANCH   1   5
ATOM      2  C   LIG    1       -2.081   2.502  -3.457  0.00  0.00    -0.090 A 
ATOM      3  C   LIG    1       -1.058   3.265  -2.889  0.00  0.00    +0.100 A 
ATOM      4  C   LIG    1       -0.395   2.802  -1.772  0.00  0.00    +0.040 A 
ATOM      5  C   LIG    1       -0.742   1.585  -1.213  0.00  0.00    -0.130 A 
ATOM      6  C   LIG    1       -1.750   0.821  -1.773  0.00  0.00    +0.040 A 
ATOM      7  C   LIG    1       -2.425   1.275  -2.887  0.00  0.00    +0.090 A 
BRANCH   2   8
ATOM      8  C   LIG    1       -2.795   2.992  -4.654  0.00  0.00    +0.500 C 
ATOM      9  O   LIG    1       -2.493   4.060  -5.147  0.00  0.00    -0.490 OA
BRANCH   8  11
ATOM     10  C   LIG    1       -4.439   2.796  -6.373  0.00  0.00    +0.290 C 
ATOM     11  O   LIG    1       -3.781   2.253  -5.198  0.00  0.00    -0.350 OA
ENDBRANCH   8  11
ENDBRANCH   2   8
ENDBRANCH   1   5
BRANCH   1  12
ATOM     12  N   LIG    1       -0.700   1.560   1.217  0.00  0.00    -0.390 N 
ATOM     13  C   LIG    1       -0.560   3.032   1.351  0.00  0.00    +0.260 C 
ATOM     14  C   LIG    1       -0.796   3.309   2.852  0.00  0.00    +0.180 C 
ATOM     15  C   LIG    1       -0.459   1.982   3.564  0.00  0.00    +0.180 C 
ATOM     16  C   LIG    1       -0.046   1.015   2.434  0.00  0.00    +0.260 C 
ATOM     17  H   LIG    1       -1.675   1.299   1.193  0.00  0.00    +0.430 HD
BRANCH  15  18
ATOM     18  O   LIG    1        0.623   2.170   4.478  0.00  0.00    -0.340 OA
ATOM     19  C   LIG    1        0.620   1.257   5.577  0.00  0.00    +0.220 C 
ENDBRANCH  15  18
BRANCH  14  20
ATOM     20  O   LIG    1        0.069   4.351   3.310  0.00  0.00    -0.340 OA
ATOM     21  C   LIG    1       -0.522   5.652   3.279  0.00  0.00    +0.220 C 
ENDBRANCH  14  20
ENDBRANCH   1  12
TORSDOF 6
