REMARK  Name = ZINCkj000005hTTd.1
REMARK                            x       y       z     vdW  Elec       q    Type
REMARK                         _______ _______ _______ _____ _____    ______ ____
ROOT
ATOM      1  C   LIG    1       -0.018   1.465   0.010  0.00  0.00    +0.330 C 
ENDROOT
BRANCH   1   5
ATOM      2  C   LIG    1        3.994   2.946  -0.020  0.00  0.00    -0.090 A 
ATOM      3  C   LIG    1        3.325   2.709  -1.223  0.00  0.00    +0.100 A 
ATOM      4  C   LIG    1        2.031   2.231  -1.206  0.00  0.00    +0.040 A 
ATOM      5  C   LIG    1        1.396   1.986  -0.001  0.00  0.00    -0.130 A 
ATOM      6  C   LIG    1        2.051   2.224   1.195  0.00  0.00    +0.040 A 
ATOM      7  C   LIG    1        3.347   2.697   1.192  0.00  0.00    +0.090 A 
BRANCH   2   8
ATOM      8  C   LIG    1        5.380   3.457  -0.031  0.00  0.00    +0.500 C 
ATOM      9  O   LIG    1        5.940   3.673  -1.087  0.00  0.00    -0.490 OA
BRANCH   8  11
ATOM     10  C   LIG    1        7.382   4.187   1.045  0.00  0.00    +0.290 C 
ATOM     11  O   LIG    1        6.022   3.684   1.131  0.00  0.00    -0.350 OA
ENDBRANCH   8  11
ENDBRANCH   2   8
ENDBRANCH   1   5
BRANCH   1  12
ATOM     12  N   LIG    1        0.002  -0.004   0.002  0.00  0.00    -0.390 N 
ATOM     13  C   LIG    1       -1.376  -0.543   0.134  0.00  0.00    +0.250 C 
ATOM     14  C   LIG    1       -1.290  -1.974  -0.439  0.00  0.00    +0.190 C 
ATOM     15  C   LIG    1       -0.077  -1.952  -1.392  0.00  0.00    +0.190 C 
ATOM     16  C   LIG    1        0.468  -0.510  -1.315  0.00  0.00    +0.250 C 
ATOM     17  H   LIG    1        0.590  -0.353   0.744  0.00  0.00    +0.430 HD
BRANCH  15  18
ATOM     18  O   LIG    1        0.914  -2.884  -0.955  0.00  0.00    -0.350 OA
ATOM     19  C   LIG    1        1.698  -3.439  -2.013  0.00  0.00    +0.230 C 
ENDBRANCH  15  18
BRANCH  14  20
ATOM     20  O   LIG    1       -1.078  -2.918   0.613  0.00  0.00    -0.350 OA
ATOM     21  C   LIG    1       -2.283  -3.460   1.158  0.00  0.00    +0.230 C 
ENDBRANCH  14  20
ENDBRANCH   1  12
TORSDOF 6
