REMARK  Name = ZINCrH000004nP1M.0
REMARK                            x       y       z     vdW  Elec       q    Type
REMARK                         _______ _______ _______ _____ _____    ______ ____
ROOT
ATOM      1  C   LIG    1        1.817   5.950   0.684  0.00  0.00    +0.540 C 
ATOM      2  N   LIG    1        0.748   5.465   0.022  0.00  0.00    -0.650 N 
ATOM      3  H   LIG    1        0.152   6.070  -0.446  0.00  0.00    +0.420 HD
ATOM      4  O   LIG    1        2.610   5.188   1.200  0.00  0.00    -0.490 OA
ENDROOT
BRANCH   2   5
ATOM      5  C   LIG    1        0.498   4.087   0.012  0.00  0.00    +0.150 A 
ATOM      6  C   LIG    1       -0.809   3.619   0.024  0.00  0.00    +0.010 A 
ATOM      7  C   LIG    1       -1.057   2.259   0.009  0.00  0.00    +0.060 A 
ATOM      8  C   LIG    1       -0.004   1.361  -0.010  0.00  0.00    +0.020 A 
ATOM      9  O   LIG    1        0.019  -0.006  -0.025  0.00  0.00    -0.290 OA
ATOM     10  C   LIG    1        1.356  -0.368   0.352  0.00  0.00    +0.270 C 
ATOM     11  O   LIG    1        2.155   0.755  -0.045  0.00  0.00    -0.290 OA
ATOM     12  C   LIG    1        1.795  -1.624  -0.394  0.00  0.00    +0.060 C 
ATOM     13  C   LIG    1        0.908  -2.801   0.019  0.00  0.00    +0.030 C 
ATOM     14  C   LIG    1        1.021  -3.018   1.530  0.00  0.00    +0.010 C 
ATOM     15  C   LIG    1        0.558  -1.759   2.265  0.00  0.00    +0.030 C 
ATOM     16  C   LIG    1        1.444  -0.578   1.859  0.00  0.00    +0.010 C 
ATOM     17  C   LIG    1        1.309   1.827  -0.023  0.00  0.00    +0.050 A 
ATOM     18  C   LIG    1        1.557   3.189  -0.012  0.00  0.00    +0.060 A 
ENDBRANCH   2   5
BRANCH   1  24
ATOM     19  C   LIG    1        3.131   7.917   1.467  0.00  0.00    -0.610 A 
ATOM     20  C   LIG    1        3.319   9.281   1.554  0.00  0.00    +0.130 A 
ATOM     21  C   LIG    1        2.414  10.146   0.965  0.00  0.00    +0.030 A 
ATOM     22  C   LIG    1        1.316   9.651   0.285  0.00  0.00    +0.070 A 
ATOM     23  C   LIG    1        1.119   8.289   0.186  0.00  0.00    +0.040 A 
ATOM     24  C   LIG    1        2.025   7.411   0.782  0.00  0.00    -0.050 A 
BRANCH  19  26
ATOM     25  C   LIG    1        3.335   5.985   3.520  0.00  0.00    -0.250 C 
ATOM     26  S   LIG    1        4.285   6.817   2.217  0.00  0.00    +2.510 S 
ATOM     27  O   LIG    1        5.266   7.672   2.786  0.00  0.00    -0.950 OA
ATOM     28  O   LIG    1        4.620   5.902   1.183  0.00  0.00    -0.910 OA
ENDBRANCH  19  26
ENDBRANCH   1  24
TORSDOF 3
