REMARK  Name = ZINCnE000001TxnY.0
REMARK                            x       y       z     vdW  Elec       q    Type
REMARK                         _______ _______ _______ _____ _____    ______ ____
ROOT
ATOM      1  O   LIG    1       -1.042  -0.626   0.009  0.00  0.00    -0.550 OA
ATOM      2  C   LIG    1        0.002  -0.004   0.002  0.00  0.00    +0.510 C 
ATOM      3  N   LIG    1        1.178  -0.662  -0.013  0.00  0.00    -0.630 NA
ENDROOT
BRANCH   2   4
ATOM      4  C   LIG    1       -0.018   1.477   0.010  0.00  0.00    +0.110 A 
ATOM      5  N   LIG    1        1.121   2.149   0.003  0.00  0.00    -0.370 NA
ATOM      6  C   LIG    1        1.101   3.482   0.010  0.00  0.00    +0.070 A 
ATOM      7  C   LIG    1        2.297   4.226   0.002  0.00  0.00    +0.070 A 
ATOM      8  C   LIG    1        2.245   5.585   0.009  0.00  0.00    +0.020 A 
ATOM      9  C   LIG    1        1.024   6.257   0.024  0.00  0.00    +0.030 A 
ATOM     10  C   LIG    1       -0.153   5.573   0.032  0.00  0.00    +0.050 A 
ATOM     11  C   LIG    1       -0.143   4.168   0.025  0.00  0.00    +0.080 A 
ATOM     12  N   LIG    1       -1.285   3.470   0.032  0.00  0.00    -0.440 NA
ATOM     13  C   LIG    1       -1.248   2.158   0.020  0.00  0.00    +0.300 A 
ENDBRANCH   2   4
BRANCH   3  14
ATOM     14  C   LIG    1        1.197  -2.051  -0.020  0.00  0.00    +0.320 A 
ATOM     15  N   LIG    1        0.156  -2.832  -0.009  0.00  0.00    -0.350 NA
ATOM     16  N   LIG    1        0.355  -4.077  -0.023  0.00  0.00    -0.210 NA
ATOM     17  C   LIG    1        1.591  -4.492  -0.037  0.00  0.00    -0.030 A 
ATOM     18  S   LIG    1        2.637  -3.071  -0.040  0.00  0.00    -0.020 S 
BRANCH  17  19
ATOM     19  C   LIG    1        2.037  -5.901  -0.048  0.00  0.00    +0.010 A 
ATOM     20  C   LIG    1        3.337  -6.256  -0.061  0.00  0.00    -0.050 A 
ATOM     21  S   LIG    1        3.467  -8.010  -0.070  0.00  0.00    +0.090 S 
ATOM     22  C   LIG    1        1.717  -8.177  -0.056  0.00  0.00    -0.060 A 
ATOM     23  C   LIG    1        1.146  -6.976  -0.040  0.00  0.00    +0.050 A 
ENDBRANCH  17  19
ENDBRANCH   3  14
TORSDOF 3
