REMARK  Name = ZINCrH000004m3QS.0
REMARK                            x       y       z     vdW  Elec       q    Type
REMARK                         _______ _______ _______ _____ _____    ______ ____
ROOT
ATOM      1  C   LIG    1       -1.831   1.249  -3.364  0.00  0.00    +0.070 C 
ENDROOT
BRANCH   1   2
ATOM      2  C   LIG    1       -0.989   0.764  -2.212  0.00  0.00    +0.520 C 
ATOM      3  N   LIG    1       -0.746   1.577  -1.166  0.00  0.00    -0.550 N 
ATOM      4  C   LIG    1       -1.181   2.980  -1.193  0.00  0.00    +0.280 C 
ATOM      5  C   LIG    1       -0.024   3.841  -0.670  0.00  0.00    +0.020 C 
ATOM      6  C   LIG    1        0.254   3.464   0.785  0.00  0.00    +0.080 C 
ATOM      7  C   LIG    1        0.422   1.974   0.921  0.00  0.00    -0.130 A 
ATOM      8  C   LIG    1        1.087   1.474   2.029  0.00  0.00    +0.070 A 
ATOM      9  C   LIG    1        1.254   0.112   2.186  0.00  0.00    -0.030 A 
ATOM     10  C   LIG    1        0.757  -0.764   1.235  0.00  0.00    +0.120 A 
ATOM     11  C   LIG    1        0.094  -0.272   0.126  0.00  0.00    -0.010 A 
ATOM     12  F   LIG    1        0.920  -2.096   1.391  0.00  0.00    -0.140 F 
ATOM     13  C   LIG    1       -0.074   1.098  -0.033  0.00  0.00    +0.180 A 
ATOM     14  O   LIG    1       -0.531  -0.359  -2.228  0.00  0.00    -0.510 OA
ENDBRANCH   1   2
BRANCH   1  15
ATOM     15  C   LIG    1       -2.065   0.099  -4.346  0.00  0.00    +0.110 C 
BRANCH  15  18
ATOM     16  C   LIG    1       -3.070   1.561  -7.683  0.00  0.00    +0.150 A 
ATOM     17  C   LIG    1       -2.299   1.114  -6.621  0.00  0.00    -0.090 A 
ATOM     18  C   LIG    1       -2.907   0.585  -5.498  0.00  0.00    -0.010 A 
ATOM     19  C   LIG    1       -4.284   0.494  -5.431  0.00  0.00    -0.090 A 
ATOM     20  C   LIG    1       -5.063   0.945  -6.486  0.00  0.00    +0.150 A 
ATOM     21  C   LIG    1       -4.455   1.478  -7.617  0.00  0.00    +0.030 A 
BRANCH  16  23
ATOM     22  C   LIG    1       -1.043   2.136  -8.786  0.00  0.00    +0.240 C 
ATOM     23  O   LIG    1       -2.471   2.081  -8.787  0.00  0.00    -0.300 OA
ENDBRANCH  16  23
BRANCH  20  24
ATOM     24  O   LIG    1       -6.418   0.861  -6.417  0.00  0.00    -0.300 OA
ATOM     25  C   LIG    1       -6.974   0.303  -5.224  0.00  0.00    +0.240 C 
ENDBRANCH  20  24
BRANCH  21  26
ATOM     26  O   LIG    1       -5.216   1.915  -8.657  0.00  0.00    -0.310 OA
ATOM     27  C   LIG    1       -5.533   0.963  -9.675  0.00  0.00    +0.210 C 
ENDBRANCH  21  26
ENDBRANCH  15  18
ENDBRANCH   1  15
TORSDOF 6
