REMARK  Name = ZINCrD00000F5LHT.0
REMARK                            x       y       z     vdW  Elec       q    Type
REMARK                         _______ _______ _______ _____ _____    ______ ____
ROOT
ATOM      1  C   LIG    1       -0.246   4.918   4.920  0.00  0.00    +0.490 C 
ATOM      2  N   LIG    1       -1.371   5.630   5.130  0.00  0.00    -0.610 N 
ATOM      3  C   LIG    1       -1.768   6.019   6.490  0.00  0.00    +0.260 C 
ATOM      4  C   LIG    1       -1.990   7.534   6.525  0.00  0.00    +0.010 C 
ATOM      5  C   LIG    1       -2.997   7.923   5.441  0.00  0.00    +0.020 C 
ATOM      6  C   LIG    1       -2.439   7.549   4.066  0.00  0.00    -0.030 C 
ATOM      7  C   LIG    1       -3.432   7.969   2.980  0.00  0.00    +0.030 C 
ATOM      8  C   LIG    1       -2.222   6.034   4.002  0.00  0.00    +0.240 C 
ATOM      9  O   LIG    1        0.103   4.655   3.789  0.00  0.00    -0.500 OA
ENDROOT
BRANCH   1  10
ATOM     10  C   LIG    1        0.577   4.447   6.091  0.00  0.00    +0.310 C 
BRANCH  10  20
ATOM     11  C   LIG    1        3.302   5.709   5.430  0.00  0.00    +0.140 C 
ATOM     12  C   LIG    1        2.957   4.247   5.305  0.00  0.00    +0.090 A 
ATOM     13  C   LIG    1        3.799   3.290   4.885  0.00  0.00    -0.050 A 
ATOM     14  C   LIG    1        3.059   2.026   4.917  0.00  0.00    -0.100 A 
ATOM     15  C   LIG    1        3.383   0.704   4.603  0.00  0.00    +0.050 A 
ATOM     16  C   LIG    1        2.442  -0.276   4.744  0.00  0.00    -0.030 A 
ATOM     17  C   LIG    1        1.166   0.030   5.197  0.00  0.00    +0.020 A 
ATOM     18  C   LIG    1        0.826   1.328   5.512  0.00  0.00    -0.020 A 
ATOM     19  C   LIG    1        1.769   2.341   5.381  0.00  0.00    +0.110 A 
ATOM     20  N   LIG    1        1.738   3.700   5.603  0.00  0.00    -0.470 N 
ENDBRANCH  10  20
ENDBRANCH   1  10
BRANCH   8  21
ATOM     21  C   LIG    1       -1.536   5.668   2.685  0.00  0.00    +0.030 C 
BRANCH  21  22
ATOM     22  C   LIG    1       -0.296   6.544   2.496  0.00  0.00    +0.270 C 
BRANCH  22  23
ATOM     23  N   LIG    1        0.444   6.094   1.314  0.00  0.00    -0.710 N 
ATOM     24  H   LIG    1        0.117   5.344   0.793  0.00  0.00    +0.400 HD
ATOM     25  C   LIG    1        1.580   6.722   0.951  0.00  0.00    +0.500 C 
ATOM     26  O   LIG    1        1.989   7.660   1.602  0.00  0.00    -0.520 OA
BRANCH  25  27
ATOM     27  C   LIG    1        2.341   6.260  -0.265  0.00  0.00    +0.170 C 
ATOM     28 CL   LIG    1        3.803   7.291  -0.487  0.00  0.00    -0.130 Cl
ENDBRANCH  25  27
ENDBRANCH  22  23
ENDBRANCH  21  22
ENDBRANCH   8  21
TORSDOF 6
