REMARK  Name = ZINCrH000004q5hd.0
REMARK                            x       y       z     vdW  Elec       q    Type
REMARK                         _______ _______ _______ _____ _____    ______ ____
ROOT
ATOM      1  N   LIG    1       -5.675  -1.345   1.401  0.00  0.00    -0.530 NA
ATOM      2  C   LIG    1       -4.499  -1.916   2.074  0.00  0.00    +0.150 C 
ATOM      3  C   LIG    1       -4.856  -2.239   3.527  0.00  0.00    +0.240 C 
ATOM      4  O   LIG    1       -5.978  -3.125   3.551  0.00  0.00    -0.380 OA
ATOM      5  C   LIG    1       -7.141  -2.600   2.905  0.00  0.00    +0.230 C 
ATOM      6  C   LIG    1       -6.807  -2.281   1.446  0.00  0.00    +0.170 C 
ENDROOT
BRANCH   5   7
ATOM      7  C   LIG    1       -8.249  -3.620   2.956  0.00  0.00    -0.090 A 
ATOM      8  C   LIG    1       -7.946  -4.964   3.071  0.00  0.00    +0.100 A 
ATOM      9  C   LIG    1       -8.961  -5.900   3.123  0.00  0.00    +0.000 A 
ATOM     10  C   LIG    1      -10.283  -5.493   3.049  0.00  0.00    +0.120 A 
ATOM     11  C   LIG    1      -10.586  -4.148   2.928  0.00  0.00    +0.000 A 
ATOM     12  F   LIG    1      -11.275  -6.409   3.095  0.00  0.00    -0.130 F 
ATOM     13  C   LIG    1       -9.569  -3.212   2.882  0.00  0.00    -0.000 A 
ATOM     14 CL   LIG    1       -9.948  -1.525   2.730  0.00  0.00    -0.050 Cl
ENDBRANCH   5   7
BRANCH   1  15
ATOM     15  C   LIG    1       -5.357  -0.968   0.017  0.00  0.00    +0.310 C 
BRANCH  15  19
ATOM     16  C   LIG    1       -2.571   1.415   0.020  0.00  0.00    +0.110 A 
ATOM     17  N   LIG    1       -3.651   2.156   0.028  0.00  0.00    -0.370 NA
ATOM     18  O   LIG    1       -4.652   1.478   0.028  0.00  0.00    +0.110 OA
ATOM     19  C   LIG    1       -4.367   0.168   0.020  0.00  0.00    -0.020 A 
ATOM     20  C   LIG    1       -3.019   0.064   0.010  0.00  0.00    -0.050 A 
BRANCH  16  23
ATOM     21  C   LIG    1       -1.639   4.405   0.041  0.00  0.00    +0.160 C 
ATOM     22  C   LIG    1       -0.750   3.188   0.026  0.00  0.00    +0.130 A 
ATOM     23  C   LIG    1       -1.164   1.888   0.017  0.00  0.00    -0.190 A 
ATOM     24  C   LIG    1       -0.013   1.076   0.008  0.00  0.00    +0.270 A 
ATOM     25  N   LIG    1        1.034   1.857   0.002  0.00  0.00    -0.290 NA
ATOM     26  N   LIG    1        0.597   3.187   0.013  0.00  0.00    -0.370 N 
ATOM     27  C   LIG    1        1.456   4.374   0.012  0.00  0.00    +0.360 C 
ENDBRANCH  16  23
ENDBRANCH  15  19
ENDBRANCH   1  15
TORSDOF 4
