REMARK  Name = ZINCpe00000yXopk.0
REMARK                            x       y       z     vdW  Elec       q    Type
REMARK                         _______ _______ _______ _____ _____    ______ ____
ROOT
ATOM      1  C   LIG    1        0.144  -4.566   0.691  0.00  0.00    -0.710 A 
ATOM      2  C   LIG    1        1.484  -4.835   0.461  0.00  0.00    +0.210 A 
ATOM      3  C   LIG    1        2.332  -5.136   1.508  0.00  0.00    -0.030 A 
ATOM      4  C   LIG    1        1.838  -5.179   2.803  0.00  0.00    +0.250 A 
ATOM      5  N   LIG    1        2.655  -5.481   3.883  0.00  0.00    -0.640 N 
ATOM      6  H   LIG    1        3.595  -5.668   3.736  0.00  0.00    +0.440 HD
ATOM      7  C   LIG    1        2.155  -5.518   5.130  0.00  0.00    +0.710 A 
ATOM      8  N   LIG    1        0.865  -5.270   5.404  0.00  0.00    -0.660 N 
ATOM      9  H   LIG    1        0.558  -5.310   6.324  0.00  0.00    +0.440 HD
ATOM     10  C   LIG    1       -0.014  -4.966   4.425  0.00  0.00    +0.570 A 
ATOM     11  O   LIG    1       -1.181  -4.742   4.683  0.00  0.00    -0.480 OA
ATOM     12  O   LIG    1        2.904  -5.787   6.049  0.00  0.00    -0.530 OA
ATOM     13  C   LIG    1        0.478  -4.912   3.037  0.00  0.00    -0.220 A 
ATOM     14  C   LIG    1       -0.366  -4.605   1.972  0.00  0.00    +0.250 A 
ENDROOT
BRANCH   1  15
ATOM     15  S   LIG    1       -0.916  -4.180  -0.662  0.00  0.00    +2.690 S 
ATOM     16  O   LIG    1       -0.309  -4.737  -1.819  0.00  0.00    -0.950 OA
ATOM     17  O   LIG    1       -2.235  -4.504  -0.243  0.00  0.00    -0.940 OA
BRANCH  15  22
ATOM     18  C   LIG    1       -0.019   1.526   0.010  0.00  0.00    +0.090 C 
ATOM     19  C   LIG    1        0.002  -0.004   0.002  0.00  0.00    -0.100 C 
ATOM     20  C   LIG    1       -1.173  -0.671   0.701  0.00  0.00    +0.070 C 
ATOM     21  C   LIG    1       -1.844  -1.722  -0.140  0.00  0.00    +0.300 C 
ATOM     22  N   LIG    1       -0.879  -2.536  -0.860  0.00  0.00    -0.990 NA
ATOM     23  C   LIG    1        0.119  -1.959  -1.748  0.00  0.00    +0.350 C 
ATOM     24  C   LIG    1        1.371  -0.680   0.191  0.00  0.00    +0.190 C 
ATOM     25  F   LIG    1        1.404  -1.888   0.896  0.00  0.00    -0.150 F 
ATOM     26  F   LIG    1        2.484   0.150   0.362  0.00  0.00    -0.160 F 
ATOM     27  C   LIG    1        0.694  -0.678  -1.171  0.00  0.00    -0.010 C 
ENDBRANCH  15  22
ENDBRANCH   1  15
TORSDOF 2
