REMARK  Name = ZINCBI0000000cUl.1
REMARK                            x       y       z     vdW  Elec       q    Type
REMARK                         _______ _______ _______ _____ _____    ______ ____
ROOT
ATOM      1  C   LIG    1       -0.648   1.840   0.841  0.00  0.00    +0.100 C 
ATOM      2  C   LIG    1       -0.185   1.339  -0.530  0.00  0.00    +0.100 C 
ATOM      3  C   LIG    1       -1.252   1.678  -1.575  0.00  0.00    +0.010 C 
ATOM      4  C   LIG    1       -2.587   1.059  -1.153  0.00  0.00    +0.290 C 
ATOM      5  N   LIG    1       -2.989   1.597   0.152  0.00  0.00    -0.380 N 
ATOM      6  H   LIG    1       -3.894   1.228   0.402  0.00  0.00    +0.420 HD
ATOM      7  C   LIG    1       -2.007   1.215   1.173  0.00  0.00    +0.260 C 
ENDROOT
BRANCH   3   8
ATOM      8  C   LIG    1       -1.401   3.174  -1.676  0.00  0.00    +0.510 C 
ATOM      9  N   LIG    1       -2.267   3.708  -2.560  0.00  0.00    -0.610 N 
ATOM     10  C   LIG    1       -2.983   2.857  -3.523  0.00  0.00    +0.300 C 
ATOM     11  C   LIG    1       -4.482   3.181  -3.430  0.00  0.00    +0.210 C 
ATOM     12  N   LIG    1       -4.677   4.625  -3.614  0.00  0.00    -0.450 N 
ATOM     13  C   LIG    1       -4.029   5.391  -2.541  0.00  0.00    +0.220 C 
ATOM     14  C   LIG    1       -2.516   5.157  -2.593  0.00  0.00    +0.310 C 
ATOM     15  O   LIG    1       -0.741   3.899  -0.961  0.00  0.00    -0.510 OA
BRANCH  12  16
ATOM     16  C   LIG    1       -6.024   4.937  -3.703  0.00  0.00    +0.490 A 
ATOM     17  N   LIG    1       -6.538   5.824  -2.865  0.00  0.00    -0.540 NA
ATOM     18  C   LIG    1       -7.819   6.148  -2.925  0.00  0.00    +0.370 A 
ATOM     19  C   LIG    1       -8.627   5.539  -3.874  0.00  0.00    -0.170 A 
ATOM     20  C   LIG    1       -8.056   4.611  -4.732  0.00  0.00    +0.390 A 
ATOM     21 CL   LIG    1      -10.315   5.929  -3.984  0.00  0.00    -0.020 Cl
ATOM     22  N   LIG    1       -6.767   4.337  -4.621  0.00  0.00    -0.510 NA
ENDBRANCH  12  16
ENDBRANCH   3   8
BRANCH   1  26
ATOM     23  C   LIG    1        2.771   2.055   4.500  0.00  0.00    +0.360 C 
ATOM     24  N   LIG    1        1.849   1.544   3.482  0.00  0.00    -0.360 N 
ATOM     25  C   LIG    1        1.053   2.289   2.687  0.00  0.00    +0.260 A 
ATOM     26  C   LIG    1        0.360   1.444   1.889  0.00  0.00    -0.260 A 
ATOM     27  C   LIG    1        0.741   0.138   2.212  0.00  0.00    +0.230 A 
ATOM     28  N   LIG    1        1.638   0.197   3.163  0.00  0.00    -0.280 NA
ENDBRANCH   1  26
BRANCH   5  29
ATOM     29  C   LIG    1       -3.066   3.062   0.073  0.00  0.00    +0.300 C 
BRANCH  29  30
ATOM     30  C   LIG    1       -3.822   3.590   1.264  0.00  0.00    -0.140 A 
ATOM     31  C   LIG    1       -3.142   4.209   2.295  0.00  0.00    +0.080 A 
ATOM     32  C   LIG    1       -3.836   4.695   3.390  0.00  0.00    +0.130 A 
ATOM     33  C   LIG    1       -5.213   4.561   3.452  0.00  0.00    -0.090 A 
ATOM     34  C   LIG    1       -5.894   3.941   2.420  0.00  0.00    +0.080 A 
ATOM     35 BR   LIG    1       -6.162   5.224   4.947  0.00  0.00    +0.020 Br
ATOM     36  F   LIG    1       -3.170   5.300   4.398  0.00  0.00    -0.100 F 
ATOM     37  C   LIG    1       -5.200   3.461   1.323  0.00  0.00    +0.110 A 
ATOM     38  F   LIG    1       -5.865   2.860   0.312  0.00  0.00    -0.120 F 
ENDBRANCH  29  30
ENDBRANCH   5  29
TORSDOF 5
