REMARK  Name = ZINCBI0000000cUl.2
REMARK                            x       y       z     vdW  Elec       q    Type
REMARK                         _______ _______ _______ _____ _____    ______ ____
ROOT
ATOM      1  C   LIG    1        1.433   2.239   2.358  0.00  0.00    +0.110 C 
ATOM      2  C   LIG    1        1.373   2.996   1.028  0.00  0.00    +0.080 C 
ATOM      3  C   LIG    1        1.270   1.986  -0.119  0.00  0.00    +0.000 C 
ATOM      4  C   LIG    1        2.458   1.025  -0.052  0.00  0.00    +0.270 C 
ATOM      5  N   LIG    1        2.445   0.313   1.231  0.00  0.00    -0.380 N 
ATOM      6  H   LIG    1        1.565  -0.169   1.338  0.00  0.00    +0.430 HD
ATOM      7  C   LIG    1        2.615   1.268   2.333  0.00  0.00    +0.260 C 
ENDROOT
BRANCH   3   8
ATOM      8  C   LIG    1       -0.014   1.209   0.009  0.00  0.00    +0.510 C 
ATOM      9  N   LIG    1       -0.678   0.817  -1.097  0.00  0.00    -0.600 N 
ATOM     10  C   LIG    1       -0.114   1.046  -2.436  0.00  0.00    +0.300 C 
ATOM     11  C   LIG    1       -0.142  -0.284  -3.205  0.00  0.00    +0.220 C 
ATOM     12  N   LIG    1       -1.508  -0.824  -3.191  0.00  0.00    -0.450 N 
ATOM     13  C   LIG    1       -1.943  -1.137  -1.823  0.00  0.00    +0.230 C 
ATOM     14  C   LIG    1       -1.987   0.153  -0.997  0.00  0.00    +0.310 C 
ATOM     15  O   LIG    1       -0.449   0.931   1.107  0.00  0.00    -0.530 OA
BRANCH  12  16
ATOM     16  C   LIG    1       -1.611  -1.935  -4.010  0.00  0.00    +0.490 A 
ATOM     17  N   LIG    1       -2.054  -3.075  -3.501  0.00  0.00    -0.540 NA
ATOM     18  C   LIG    1       -2.170  -4.155  -4.257  0.00  0.00    +0.370 A 
ATOM     19  C   LIG    1       -1.810  -4.085  -5.595  0.00  0.00    -0.170 A 
ATOM     20  C   LIG    1       -1.345  -2.877  -6.094  0.00  0.00    +0.370 A 
ATOM     21 CL   LIG    1       -1.938  -5.478  -6.622  0.00  0.00    -0.030 Cl
ATOM     22  N   LIG    1       -1.259  -1.835  -5.284  0.00  0.00    -0.510 NA
ENDBRANCH  12  16
ENDBRANCH   3   8
BRANCH   1  26
ATOM     23  C   LIG    1        0.686   4.875   6.555  0.00  0.00    +0.360 C 
ATOM     24  N   LIG    1        1.280   4.365   5.316  0.00  0.00    -0.360 N 
ATOM     25  C   LIG    1        0.761   3.403   4.525  0.00  0.00    +0.260 A 
ATOM     26  C   LIG    1        1.611   3.220   3.487  0.00  0.00    -0.260 A 
ATOM     27  C   LIG    1        2.681   4.107   3.646  0.00  0.00    +0.230 A 
ATOM     28  N   LIG    1        2.483   4.794   4.742  0.00  0.00    -0.280 NA
ENDBRANCH   1  26
BRANCH   5  29
ATOM     29  C   LIG    1        3.543  -0.663   1.258  0.00  0.00    +0.340 C 
BRANCH  29  30
ATOM     30  C   LIG    1        3.304  -1.716   0.206  0.00  0.00    -0.150 A 
ATOM     31  C   LIG    1        2.781  -2.944   0.563  0.00  0.00    +0.080 A 
ATOM     32  C   LIG    1        2.558  -3.909  -0.404  0.00  0.00    +0.130 A 
ATOM     33  C   LIG    1        2.869  -3.648  -1.728  0.00  0.00    -0.090 A 
ATOM     34  C   LIG    1        3.398  -2.421  -2.084  0.00  0.00    +0.080 A 
ATOM     35 BR   LIG    1        2.571  -4.969  -3.048  0.00  0.00    +0.020 Br
ATOM     36  F   LIG    1        2.042  -5.108  -0.055  0.00  0.00    -0.100 F 
ATOM     37  C   LIG    1        3.615  -1.454  -1.118  0.00  0.00    +0.110 A 
ATOM     38  F   LIG    1        4.132  -0.255  -1.466  0.00  0.00    -0.120 F 
ENDBRANCH  29  30
ENDBRANCH   5  29
TORSDOF 5
