REMARK  Name = ZINCpe00000MJIuh.0
REMARK                            x       y       z     vdW  Elec       q    Type
REMARK                         _______ _______ _______ _____ _____    ______ ____
ROOT
ATOM      1  C   LIG    1        0.002  -0.004   0.002  0.00  0.00    +0.160 C 
ATOM      2  O   LIG    1       -0.017   1.428   0.010  0.00  0.00    -0.330 OA
ATOM      3  C   LIG    1        1.291   2.004   0.001  0.00  0.00    +0.280 C 
ATOM      4  C   LIG    1        2.116   1.377  -1.088  0.00  0.00    +0.490 C 
ATOM      5  N   LIG    1        1.764   0.231  -1.684  0.00  0.00    -0.600 N 
ATOM      6  C   LIG    1        2.648  -0.333  -2.707  0.00  0.00    +0.290 C 
ATOM      7  O   LIG    1        3.138   1.927  -1.439  0.00  0.00    -0.530 OA
ATOM      8  C   LIG    1        0.530  -0.479  -1.353  0.00  0.00    +0.280 C 
ENDROOT
BRANCH   8   9
ATOM      9  C   LIG    1       -0.503  -0.209  -2.416  0.00  0.00    -0.120 A 
ATOM     10  C   LIG    1       -0.635   1.062  -2.945  0.00  0.00    +0.040 A 
ATOM     11  C   LIG    1       -1.580   1.309  -3.923  0.00  0.00    +0.000 A 
ATOM     12  C   LIG    1       -2.400   0.288  -4.365  0.00  0.00    +0.010 A 
ATOM     13  C   LIG    1       -2.272  -0.982  -3.833  0.00  0.00    +0.000 A 
ATOM     14  C   LIG    1       -1.323  -1.230  -2.858  0.00  0.00    +0.020 A 
ENDBRANCH   8   9
BRANCH   1  17
ATOM     15  N   LIG    1       -1.602  -1.855   0.348  0.00  0.00    -0.730 N 
ATOM     16  H   LIG    1       -0.853  -2.470   0.304  0.00  0.00    +0.400 HD
ATOM     17  C   LIG    1       -1.394  -0.530   0.217  0.00  0.00    +0.530 C 
ATOM     18  O   LIG    1       -2.330   0.239   0.272  0.00  0.00    -0.490 OA
BRANCH  15  19
ATOM     19  C   LIG    1       -2.959  -2.366   0.557  0.00  0.00    +0.280 C 
BRANCH  19  20
ATOM     20  C   LIG    1       -2.917  -3.891   0.672  0.00  0.00    +0.080 C 
BRANCH  20  22
ATOM     21  C   LIG    1       -4.810  -5.340   0.068  0.00  0.00    -0.050 C 
ATOM     22  C   LIG    1       -4.313  -4.417   0.887  0.00  0.00    +0.080 C 
BRANCH  21  23
ATOM     23  C   LIG    1       -6.171  -5.853   0.278  0.00  0.00    +0.490 C 
ATOM     24  O   LIG    1       -6.843  -5.434   1.199  0.00  0.00    -0.510 OA
BRANCH  23  26
ATOM     25  C   LIG    1       -8.025  -7.249  -0.285  0.00  0.00    +0.260 C 
ATOM     26  O   LIG    1       -6.674  -6.789  -0.552  0.00  0.00    -0.360 OA
ENDBRANCH  23  26
ENDBRANCH  21  23
ENDBRANCH  20  22
ENDBRANCH  19  20
ENDBRANCH  15  19
ENDBRANCH   1  17
TORSDOF 7
