REMARK  Name = ZINCrH000004jKHA.0
REMARK                            x       y       z     vdW  Elec       q    Type
REMARK                         _______ _______ _______ _____ _____    ______ ____
ROOT
ATOM      1  N   LIG    1        2.404   1.102  -0.015  0.00  0.00    -0.690 N 
ATOM      2  H   LIG    1        3.235   1.596  -0.087  0.00  0.00    +0.410 HD
ATOM      3  C   LIG    1        2.425  -0.243   0.078  0.00  0.00    +0.710 C 
ATOM      4  N   LIG    1        3.602  -0.894   0.165  0.00  0.00    -0.730 N 
ATOM      5  H   LIG    1        4.434  -0.395   0.159  0.00  0.00    +0.400 HD
ATOM      6  O   LIG    1        1.382  -0.868   0.085  0.00  0.00    -0.570 OA
ENDROOT
BRANCH   1  10
ATOM      7  C   LIG    1       -1.238   3.137  -0.000  0.00  0.00    +0.200 A 
ATOM      8  C   LIG    1       -1.140   1.892  -0.608  0.00  0.00    -0.010 A 
ATOM      9  C   LIG    1        0.064   1.216  -0.608  0.00  0.00    +0.080 A 
ATOM     10  C   LIG    1        1.180   1.785  -0.010  0.00  0.00    +0.160 A 
ATOM     11  C   LIG    1        1.084   3.032   0.594  0.00  0.00    -0.160 A 
ATOM     12  C   LIG    1       -0.121   3.706   0.599  0.00  0.00    +0.000 A 
BRANCH  11  13
ATOM     13  C   LIG    1        2.295   3.650   1.243  0.00  0.00    +0.510 C 
ATOM     14  F   LIG    1        3.304   3.814   0.288  0.00  0.00    -0.180 F 
ATOM     15  F   LIG    1        2.753   2.813   2.267  0.00  0.00    -0.170 F 
ATOM     16  F   LIG    1        1.953   4.897   1.778  0.00  0.00    -0.170 F 
ENDBRANCH  11  13
BRANCH   7  18
ATOM     17  C   LIG    1       -2.560   5.136   0.640  0.00  0.00    +0.280 C 
ATOM     18  N   LIG    1       -2.459   3.820   0.004  0.00  0.00    -0.640 N 
ATOM     19  C   LIG    1       -3.636   3.219  -0.627  0.00  0.00    +0.290 C 
ENDBRANCH   7  18
ENDBRANCH   1  10
BRANCH   4  20
ATOM     20  C   LIG    1        3.625  -2.355   0.267  0.00  0.00    +0.270 C 
BRANCH  20  21
ATOM     21  C   LIG    1        5.074  -2.837   0.351  0.00  0.00    +0.260 C 
BRANCH  21  22
ATOM     22  C   LIG    1        5.098  -4.341   0.456  0.00  0.00    -0.160 A 
ATOM     23  C   LIG    1        5.249  -5.111  -0.681  0.00  0.00    +0.050 A 
ATOM     24  C   LIG    1        5.277  -6.490  -0.585  0.00  0.00    +0.000 A 
ATOM     25  C   LIG    1        5.142  -7.100   0.648  0.00  0.00    +0.050 A 
ATOM     26  C   LIG    1        4.985  -6.332   1.787  0.00  0.00    -0.010 A 
ATOM     27  C   LIG    1        4.963  -4.951   1.692  0.00  0.00    +0.110 A 
ATOM     28  F   LIG    1        4.809  -4.199   2.804  0.00  0.00    -0.130 F 
ENDBRANCH  21  22
BRANCH  21  29
ATOM     29  O   LIG    1        5.781  -2.431  -0.823  0.00  0.00    -0.550 OA
ATOM     30  H   LIG    1        5.411  -2.780  -1.645  0.00  0.00    +0.380 HD
ENDBRANCH  21  29
ENDBRANCH  20  21
ENDBRANCH   4  20
TORSDOF 7
