REMARK  Name = ZINCpe000000YTSI.0
REMARK                            x       y       z     vdW  Elec       q    Type
REMARK                         _______ _______ _______ _____ _____    ______ ____
ROOT
ATOM      1  N   LIG    1       -0.870   2.826   3.761  0.00  0.00    -0.520 NA
ATOM      2  C   LIG    1       -0.959   1.364   3.643  0.00  0.00    +0.190 C 
ATOM      3  C   LIG    1       -0.165   0.904   2.418  0.00  0.00    +0.190 C 
ATOM      4  N   LIG    1       -0.700   1.560   1.217  0.00  0.00    -0.540 NA
ATOM      5  C   LIG    1       -0.612   3.022   1.334  0.00  0.00    +0.190 C 
ATOM      6  C   LIG    1       -1.405   3.482   2.559  0.00  0.00    +0.190 C 
ENDROOT
BRANCH   1   7
ATOM      7  C   LIG    1       -1.558   3.300   4.969  0.00  0.00    +0.220 C 
BRANCH   7   9
ATOM      8  O   LIG    1       -0.515   5.343   4.414  0.00  0.00    -0.510 OA
ATOM      9  C   LIG    1       -1.242   4.757   5.189  0.00  0.00    +0.520 C 
ATOM     10  N   LIG    1       -1.766   5.409   6.245  0.00  0.00    -0.730 N 
ATOM     11  H   LIG    1       -2.347   4.940   6.864  0.00  0.00    +0.400 HD
BRANCH  10  12
ATOM     12  C   LIG    1       -1.459   6.825   6.458  0.00  0.00    +0.270 C 
ATOM     13  C   LIG    1       -2.442   7.695   5.655  0.00  0.00    +0.060 C 
ATOM     14  C   LIG    1       -2.279   9.146   6.175  0.00  0.00    -0.300 C 
ATOM     15  S   LIG    1       -2.175   8.907   7.989  0.00  0.00    +2.400 S 
ATOM     16  O   LIG    1       -1.141   9.729   8.514  0.00  0.00    -0.930 OA
ATOM     17  O   LIG    1       -3.480   8.965   8.548  0.00  0.00    -0.930 OA
ATOM     18  C   LIG    1       -1.607   7.168   7.954  0.00  0.00    -0.320 C 
ENDBRANCH  10  12
ENDBRANCH   7   9
ENDBRANCH   1   7
BRANCH   4  19
ATOM     19  C   LIG    1       -0.013   1.086   0.008  0.00  0.00    +0.230 C 
BRANCH  19  20
ATOM     20  C   LIG    1       -0.742   1.585  -1.213  0.00  0.00    -0.070 A 
ATOM     21  C   LIG    1       -1.750   0.825  -1.775  0.00  0.00    +0.050 A 
ATOM     22  C   LIG    1       -2.422   1.284  -2.892  0.00  0.00    +0.020 A 
ATOM     23  C   LIG    1       -2.079   2.500  -3.454  0.00  0.00    +0.040 A 
ATOM     24  C   LIG    1       -1.067   3.259  -2.895  0.00  0.00    -0.090 A 
ATOM     25 BR   LIG    1       -0.597   4.922  -3.662  0.00  0.00    -0.050 Br
ATOM     26  C   LIG    1       -0.398   2.801  -1.774  0.00  0.00    +0.040 A 
ENDBRANCH  19  20
ENDBRANCH   4  19
TORSDOF 5
