REMARK  Name = ZINCqH00000065rv.0
REMARK                            x       y       z     vdW  Elec       q    Type
REMARK                         _______ _______ _______ _____ _____    ______ ____
ROOT
ATOM      1  C   LIG    1       -2.486  -0.209  -0.383  0.00  0.00    +0.500 C 
ATOM      2  N   LIG    1       -2.628   1.131  -0.351  0.00  0.00    -0.540 N 
ATOM      3  C   LIG    1       -3.960   1.737  -0.226  0.00  0.00    +0.290 C 
ATOM      4  C   LIG    1       -4.047   2.891  -1.234  0.00  0.00    +0.040 C 
ATOM      5  C   LIG    1       -3.012   3.953  -0.852  0.00  0.00    +0.090 C 
ATOM      6  C   LIG    1       -1.653   3.325  -0.684  0.00  0.00    -0.110 A 
ATOM      7  C   LIG    1       -0.528   4.127  -0.778  0.00  0.00    +0.030 A 
ATOM      8  C   LIG    1        0.732   3.581  -0.621  0.00  0.00    -0.020 A 
ATOM      9  C   LIG    1        0.877   2.230  -0.367  0.00  0.00    +0.020 A 
ATOM     10  C   LIG    1       -0.240   1.423  -0.273  0.00  0.00    +0.010 A 
ATOM     11  C   LIG    1       -1.508   1.969  -0.438  0.00  0.00    +0.150 A 
ATOM     12  O   LIG    1       -1.394  -0.699  -0.586  0.00  0.00    -0.500 OA
ENDROOT
BRANCH   1  13
ATOM     13  C   LIG    1       -3.682  -1.100  -0.166  0.00  0.00    +0.110 C 
ATOM     14  C   LIG    1       -3.212  -2.492   0.268  0.00  0.00    +0.010 C 
ATOM     15  C   LIG    1       -2.382  -3.115  -0.857  0.00  0.00    +0.230 C 
ATOM     16  O   LIG    1       -3.166  -3.173  -2.050  0.00  0.00    -0.380 OA
ATOM     17  C   LIG    1       -3.593  -1.896  -2.530  0.00  0.00    +0.220 C 
ATOM     18  C   LIG    1       -4.472  -1.224  -1.472  0.00  0.00    +0.050 C 
BRANCH  13  20
ATOM     19  C   LIG    1       -3.884  -0.413   2.122  0.00  0.00    +0.210 C 
ATOM     20  O   LIG    1       -4.518  -0.538   0.847  0.00  0.00    -0.360 OA
ENDBRANCH  13  20
ENDBRANCH   1  13
BRANCH   5  21
ATOM     21  C   LIG    1       -2.949   4.988  -1.946  0.00  0.00    -0.070 A 
ATOM     22  C   LIG    1       -2.583   4.619  -3.227  0.00  0.00    +0.010 A 
ATOM     23  C   LIG    1       -2.529   5.567  -4.231  0.00  0.00    +0.000 A 
ATOM     24  C   LIG    1       -2.834   6.886  -3.952  0.00  0.00    +0.000 A 
ATOM     25  C   LIG    1       -3.196   7.256  -2.670  0.00  0.00    +0.000 A 
ATOM     26  C   LIG    1       -3.253   6.307  -1.667  0.00  0.00    +0.000 A 
ENDBRANCH   5  21
TORSDOF 3
