REMARK  Name = ZINCrH00000No4T0.0
REMARK                            x       y       z     vdW  Elec       q    Type
REMARK                         _______ _______ _______ _____ _____    ______ ____
ROOT
ATOM      1  C   LIG    1        0.407  -6.982   0.266  0.00  0.00    +0.550 C 
ATOM      2  N   LIG    1        1.248  -6.221   0.993  0.00  0.00    -0.670 N 
ATOM      3  H   LIG    1        1.904  -6.640   1.573  0.00  0.00    +0.410 HD
ATOM      4  O   LIG    1       -0.470  -6.459  -0.396  0.00  0.00    -0.520 OA
ENDROOT
BRANCH   2   5
ATOM      5  C   LIG    1        1.175  -4.825   0.912  0.00  0.00    +0.130 A 
ATOM      6  C   LIG    1       -0.055  -4.202   0.747  0.00  0.00    +0.040 A 
ATOM      7  C   LIG    1       -0.126  -2.826   0.667  0.00  0.00    +0.040 A 
ATOM      8  C   LIG    1        1.032  -2.064   0.752  0.00  0.00    +0.130 A 
ATOM      9  C   LIG    1        2.263  -2.688   0.912  0.00  0.00    +0.000 A 
ATOM     10  C   LIG    1        2.334  -4.064   0.998  0.00  0.00    +0.000 A 
BRANCH   8  11
ATOM     11  N   LIG    1        0.960  -0.668   0.670  0.00  0.00    -0.670 N 
ATOM     12  H   LIG    1        1.669  -0.170   0.234  0.00  0.00    +0.410 HD
ATOM     13  C   LIG    1       -0.095  -0.016   1.197  0.00  0.00    +0.540 C 
ATOM     14  O   LIG    1       -1.022  -0.642   1.668  0.00  0.00    -0.520 OA
BRANCH  13  15
ATOM     15  C   LIG    1       -0.124   1.491   1.202  0.00  0.00    -0.070 C 
ATOM     16  C   LIG    1       -0.008   2.195   2.555  0.00  0.00    +0.060 C 
ATOM     17  C   LIG    1       -1.349   2.172   1.817  0.00  0.00    +0.070 C 
ENDBRANCH  13  15
ENDBRANCH   8  11
ENDBRANCH   2   5
BRANCH   1  19
ATOM     18  C   LIG    1       -0.295  -9.201  -0.456  0.00  0.00    +0.140 C 
ATOM     19  C   LIG    1        0.548  -8.438   0.272  0.00  0.00    -0.080 C 
BRANCH  18  24
ATOM     20  C   LIG    1       -0.882 -12.843  -1.190  0.00  0.00    +0.110 A 
ATOM     21  C   LIG    1        0.120 -13.427  -0.433  0.00  0.00    -0.050 A 
ATOM     22  C   LIG    1        0.983 -12.641   0.313  0.00  0.00    +0.040 A 
ATOM     23  C   LIG    1        0.855 -11.270   0.310  0.00  0.00    +0.020 A 
ATOM     24  C   LIG    1       -0.153 -10.663  -0.450  0.00  0.00    -0.060 A 
ATOM     25  C   LIG    1       -1.029 -11.460  -1.201  0.00  0.00    +0.090 A 
BRANCH  20  27
ATOM     26  C   LIG    1       -1.519 -15.035  -1.859  0.00  0.00    +0.240 C 
ATOM     27  O   LIG    1       -1.725 -13.622  -1.920  0.00  0.00    -0.310 OA
ENDBRANCH  20  27
BRANCH  25  28
ATOM     28  O   LIG    1       -2.014 -10.884  -1.938  0.00  0.00    -0.320 OA
ATOM     29  C   LIG    1       -1.695 -10.537  -3.287  0.00  0.00    +0.230 C 
ENDBRANCH  25  28
ENDBRANCH  18  24
ENDBRANCH   1  19
TORSDOF 7
