REMARK  Name = ZINCnE000001J0Hx.1
REMARK                            x       y       z     vdW  Elec       q    Type
REMARK                         _______ _______ _______ _____ _____    ______ ____
ROOT
ATOM      1  N   LIG    1       -1.918   2.666  -4.701  0.00  0.00    -0.660 NA
ATOM      2  C   LIG    1       -0.998   2.476  -5.668  0.00  0.00    +0.450 C 
ATOM      3  O   LIG    1        0.084   2.003  -5.392  0.00  0.00    -0.580 OA
ENDROOT
BRANCH   1  11
ATOM      4  C   LIG    1       -0.486   3.002   1.415  0.00  0.00    +0.180 C 
ATOM      5  N   LIG    1       -0.710   1.565   1.213  0.00  0.00    -0.530 NA
ATOM      6  C   LIG    1       -2.150   1.261   1.137  0.00  0.00    +0.210 C 
ATOM      7  C   LIG    1       -2.814   2.165   0.094  0.00  0.00    +0.080 C 
ATOM      8  C   LIG    1       -2.005   2.079  -1.193  0.00  0.00    +0.100 A 
ATOM      9  C   LIG    1       -0.751   1.590  -1.208  0.00  0.00    -0.380 A 
ATOM     10  S   LIG    1       -0.148   1.644  -2.858  0.00  0.00    +0.050 S 
ATOM     11  C   LIG    1       -1.626   2.318  -3.387  0.00  0.00    +0.350 A 
ATOM     12  N   LIG    1       -2.434   2.459  -2.387  0.00  0.00    -0.560 NA
ATOM     13  C   LIG    1       -0.013   1.086   0.008  0.00  0.00    +0.290 C 
ENDBRANCH   1  11
BRANCH   2  14
ATOM     14  C   LIG    1       -1.314   2.853  -7.093  0.00  0.00    +0.230 C 
BRANCH  14  15
ATOM     15  O   LIG    1       -0.189   2.559  -7.924  0.00  0.00    -0.270 OA
BRANCH  15  16
ATOM     16  C   LIG    1       -0.310   2.841  -9.248  0.00  0.00    +0.160 A 
ATOM     17  C   LIG    1       -1.488   3.384  -9.738  0.00  0.00    -0.050 A 
ATOM     18  C   LIG    1       -1.607   3.675 -11.085  0.00  0.00    +0.010 A 
ATOM     19  C   LIG    1       -0.555   3.414 -11.945  0.00  0.00    -0.010 A 
ATOM     20  C   LIG    1        0.619   2.868 -11.459  0.00  0.00    +0.090 A 
ATOM     21 CL   LIG    1       -3.079   4.361 -11.697  0.00  0.00    -0.060 Cl
ATOM     22  C   LIG    1        0.744   2.581 -10.113  0.00  0.00    -0.070 A 
ATOM     23 CL   LIG    1        2.218   1.895  -9.505  0.00  0.00    -0.040 Cl
ENDBRANCH  15  16
ENDBRANCH  14  15
ENDBRANCH   2  14
TORSDOF 4
