REMARK  Name = ZINCkj00000wCkxR.0
REMARK                            x       y       z     vdW  Elec       q    Type
REMARK                         _______ _______ _______ _____ _____    ______ ____
ROOT
ATOM      1  N   LIG    1       -0.721   1.571  -1.179  0.00  0.00    -1.120 NA
ATOM      2  H   LIG    1       -1.621   1.925  -1.096  0.00  0.00    +0.430 HD
ENDROOT
BRANCH   1   3
ATOM      3  S   LIG    1        0.013   1.515  -2.662  0.00  0.00    +2.620 S 
ATOM      4  O   LIG    1        1.274   2.136  -2.452  0.00  0.00    -0.930 OA
ATOM      5  O   LIG    1       -0.943   2.080  -3.548  0.00  0.00    -0.930 OA
BRANCH   3  11
ATOM      6  C   LIG    1        0.204  -1.338  -5.265  0.00  0.00    +0.050 C 
ATOM      7  C   LIG    1        1.014  -0.467  -4.303  0.00  0.00    +0.210 C 
ATOM      8  O   LIG    1        2.240  -1.131  -3.956  0.00  0.00    -0.350 OA
ATOM      9  C   LIG    1        1.990  -1.873  -2.743  0.00  0.00    +0.230 C 
ATOM     10  C   LIG    1        1.105  -0.912  -1.908  0.00  0.00    +0.050 C 
ATOM     11  C   LIG    1        0.223  -0.255  -2.997  0.00  0.00    -0.470 C 
ENDBRANCH   3  11
ENDBRANCH   1   3
BRANCH   1  12
ATOM     12  C   LIG    1       -0.013   1.086   0.008  0.00  0.00    +0.280 C 
BRANCH  12  13
ATOM     13  C   LIG    1       -0.729   1.579   1.267  0.00  0.00    +0.260 C 
BRANCH  13  14
ATOM     14  N   LIG    1       -0.018   1.093   2.457  0.00  0.00    -0.380 N 
ATOM     15  C   LIG    1       -0.102  -0.373   2.512  0.00  0.00    +0.320 C 
ATOM     16  H   LIG    1        0.950   1.373   2.409  0.00  0.00    +0.430 HD
BRANCH  14  17
ATOM     17  C   LIG    1       -0.634   1.663   3.662  0.00  0.00    +0.170 C 
ATOM     18  C   LIG    1       -0.547   3.190   3.605  0.00  0.00    +0.040 C 
ATOM     19  C   LIG    1       -1.189   3.784   4.861  0.00  0.00    +0.040 C 
ATOM     20  C   LIG    1       -0.449   3.278   6.100  0.00  0.00    +0.020 C 
ATOM     21  C   LIG    1       -0.535   1.751   6.157  0.00  0.00    +0.040 C 
ATOM     22  C   LIG    1        0.106   1.157   4.902  0.00  0.00    +0.040 C 
ENDBRANCH  14  17
ENDBRANCH  13  14
ENDBRANCH  12  13
ENDBRANCH   1  12
TORSDOF 6
