REMARK  Name = ZINCkj00000wCkxR.1
REMARK                            x       y       z     vdW  Elec       q    Type
REMARK                         _______ _______ _______ _____ _____    ______ ____
ROOT
ATOM      1  N   LIG    1        0.002  -0.004   0.002  0.00  0.00    -1.120 NA
ATOM      2  H   LIG    1       -0.201  -0.496   0.813  0.00  0.00    +0.430 HD
ENDROOT
BRANCH   1   3
ATOM      3  S   LIG    1        0.371  -0.820  -1.391  0.00  0.00    +2.620 S 
ATOM      4  O   LIG    1       -0.490  -0.252  -2.368  0.00  0.00    -0.930 OA
ATOM      5  O   LIG    1        0.269  -2.191  -1.032  0.00  0.00    -0.930 OA
BRANCH   3  11
ATOM      6  C   LIG    1        3.795  -1.836  -2.876  0.00  0.00    +0.050 C 
ATOM      7  C   LIG    1        2.551  -0.969  -3.079  0.00  0.00    +0.210 C 
ATOM      8  O   LIG    1        2.861   0.134  -3.947  0.00  0.00    -0.350 OA
ATOM      9  C   LIG    1        3.237   1.242  -3.102  0.00  0.00    +0.230 C 
ATOM     10  C   LIG    1        2.238   1.152  -1.921  0.00  0.00    +0.050 C 
ATOM     11  C   LIG    1        2.098  -0.378  -1.730  0.00  0.00    -0.470 C 
ENDBRANCH   3  11
ENDBRANCH   1   3
BRANCH   1  12
ATOM     12  C   LIG    1       -0.018   1.461   0.010  0.00  0.00    +0.280 C 
BRANCH  12  13
ATOM     13  C   LIG    1       -0.734   1.954   1.269  0.00  0.00    +0.260 C 
BRANCH  13  14
ATOM     14  N   LIG    1       -0.754   3.423   1.277  0.00  0.00    -0.380 N 
ATOM     15  C   LIG    1       -1.566   3.908   0.153  0.00  0.00    +0.330 C 
ATOM     16  H   LIG    1        0.188   3.773   1.187  0.00  0.00    +0.420 HD
BRANCH  14  17
ATOM     17  C   LIG    1       -1.334   3.898   2.540  0.00  0.00    +0.160 C 
ATOM     18  C   LIG    1       -1.355   5.428   2.549  0.00  0.00    +0.040 C 
ATOM     19  C   LIG    1       -1.958   5.922   3.865  0.00  0.00    +0.040 C 
ATOM     20  C   LIG    1       -1.113   5.417   5.035  0.00  0.00    +0.020 C 
ATOM     21  C   LIG    1       -1.092   3.888   5.027  0.00  0.00    +0.040 C 
ATOM     22  C   LIG    1       -0.488   3.393   3.711  0.00  0.00    +0.040 C 
ENDBRANCH  14  17
ENDBRANCH  13  14
ENDBRANCH  12  13
ENDBRANCH   1  12
TORSDOF 6
