REMARK  Name = ZINCvU0000000FPJ.0
REMARK                            x       y       z     vdW  Elec       q    Type
REMARK                         _______ _______ _______ _____ _____    ______ ____
ROOT
ATOM      1  C   LIG    1        3.783  -0.983  -0.039  0.00  0.00    +0.320 C 
ENDROOT
BRANCH   1   2
ATOM      2  C   LIG    1        4.269  -1.110  -1.460  0.00  0.00    -0.100 A 
ATOM      3  C   LIG    1        3.374  -1.400  -2.473  0.00  0.00    +0.020 A 
ATOM      4  C   LIG    1        3.819  -1.514  -3.777  0.00  0.00    +0.000 A 
ATOM      5  C   LIG    1        5.160  -1.345  -4.067  0.00  0.00    +0.000 A 
ATOM      6  C   LIG    1        6.056  -1.060  -3.053  0.00  0.00    +0.000 A 
ATOM      7  C   LIG    1        5.610  -0.943  -1.750  0.00  0.00    +0.020 A 
ENDBRANCH   1   2
BRANCH   1   8
ATOM      8  N   LIG    1        2.502  -0.272  -0.023  0.00  0.00    -0.710 N 
ATOM      9  H   LIG    1        1.670  -0.772  -0.018  0.00  0.00    +0.390 HD
ATOM     10  C   LIG    1        2.478   1.075  -0.016  0.00  0.00    +0.560 C 
ATOM     11  O   LIG    1        3.520   1.701  -0.022  0.00  0.00    -0.510 OA
BRANCH  10  12
ATOM     12  C   LIG    1        1.186   1.792   0.000  0.00  0.00    -0.130 A 
ATOM     13  C   LIG    1       -0.013   1.076   0.008  0.00  0.00    +0.050 A 
ATOM     14  C   LIG    1       -1.216   1.751   0.017  0.00  0.00    +0.020 A 
ATOM     15  C   LIG    1       -1.237   3.134   0.030  0.00  0.00    +0.060 A 
ATOM     16  C   LIG    1       -0.054   3.851   0.022  0.00  0.00    +0.020 A 
ATOM     17  C   LIG    1        1.158   3.189   0.008  0.00  0.00    +0.010 A 
ATOM     18 CL   LIG    1        2.642   4.089  -0.001  0.00  0.00    -0.030 Cl
ENDBRANCH  10  12
ENDBRANCH   1   8
BRANCH   1  19
ATOM     19  C   LIG    1        3.601  -2.377   0.565  0.00  0.00    +0.060 C 
BRANCH  19  21
ATOM     20  O   LIG    1        3.128  -1.151   2.526  0.00  0.00    -0.520 OA
ATOM     21  C   LIG    1        3.234  -2.249   2.021  0.00  0.00    +0.510 C 
ATOM     22  N   LIG    1        3.023  -3.355   2.762  0.00  0.00    -0.730 N 
ATOM     23  H   LIG    1        3.108  -4.233   2.358  0.00  0.00    +0.400 HD
BRANCH  22  24
ATOM     24  C   LIG    1        2.666  -3.231   4.177  0.00  0.00    +0.270 C 
BRANCH  24  25
ATOM     25  C   LIG    1        2.484  -4.625   4.781  0.00  0.00    +0.080 C 
BRANCH  25  26
ATOM     26  C   LIG    1        2.117  -4.498   6.237  0.00  0.00    -0.070 A 
ATOM     27  C   LIG    1        3.100  -4.572   7.206  0.00  0.00    +0.050 A 
ATOM     28  C   LIG    1        2.764  -4.450   8.542  0.00  0.00    +0.040 A 
ATOM     29  C   LIG    1        1.444  -4.264   8.910  0.00  0.00    -0.030 A 
ATOM     30  C   LIG    1        0.459  -4.194   7.940  0.00  0.00    +0.050 A 
ATOM     31 CL   LIG    1        1.022  -4.117  10.587  0.00  0.00    -0.050 Cl
ATOM     32  C   LIG    1        0.796  -4.311   6.604  0.00  0.00    -0.020 A 
ATOM     33 CL   LIG    1       -0.439  -4.225   5.387  0.00  0.00    -0.050 Cl
ENDBRANCH  25  26
ENDBRANCH  24  25
ENDBRANCH  22  24
ENDBRANCH  19  21
ENDBRANCH   1  19
TORSDOF 8
