REMARK  Name = ZINCnE000001Ub2s.1
REMARK                            x       y       z     vdW  Elec       q    Type
REMARK                         _______ _______ _______ _____ _____    ______ ____
ROOT
ATOM      1  C   LIG    1        2.674   0.376   0.031  0.00  0.00    +0.230 A 
ATOM      2  C   LIG    1        1.546  -0.430  -0.058  0.00  0.00    +0.000 A 
ATOM      3  C   LIG    1        0.289   0.139  -0.058  0.00  0.00    +0.030 A 
ATOM      4  C   LIG    1        0.152   1.519   0.029  0.00  0.00    +0.060 A 
ATOM      5  C   LIG    1        1.280   2.325   0.117  0.00  0.00    +0.050 A 
ATOM      6  C   LIG    1        2.537   1.755   0.118  0.00  0.00    -0.040 A 
ENDROOT
BRANCH   1  11
ATOM      7  O   LIG    1        6.181  -2.771  -0.073  0.00  0.00    -0.650 OA
ATOM      8  C   LIG    1        5.571  -1.718  -0.021  0.00  0.00    +0.430 A 
ATOM      9  C   LIG    1        6.140  -0.427   0.083  0.00  0.00    -0.220 A 
ATOM     10  C   LIG    1        5.135   0.472   0.112  0.00  0.00    +0.180 A 
ATOM     11  N   LIG    1        3.949  -0.202   0.031  0.00  0.00    -0.350 N 
ATOM     12  N   LIG    1        4.231  -1.573  -0.046  0.00  0.00    -0.500 NA
ENDBRANCH   1  11
BRANCH   4  13
ATOM     13  N   LIG    1       -1.122   2.097   0.022  0.00  0.00    -1.040 N 
ATOM     14  H   LIG    1       -1.781   1.810  -0.629  0.00  0.00    +0.420 HD
BRANCH  13  15
ATOM     15  S   LIG    1       -1.505   3.270   1.126  0.00  0.00    +2.700 S 
ATOM     16  O   LIG    1       -2.884   3.562   0.940  0.00  0.00    -0.940 OA
ATOM     17  O   LIG    1       -0.484   4.254   1.036  0.00  0.00    -0.940 OA
BRANCH  15  18
ATOM     18  C   LIG    1       -1.360   2.548   2.726  0.00  0.00    -0.670 A 
ATOM     19  C   LIG    1       -2.148   1.553   3.139  0.00  0.00    -0.030 A 
ATOM     20  S   LIG    1       -1.708   1.093   4.779  0.00  0.00    +0.270 S 
ATOM     21  C   LIG    1       -0.449   2.321   4.817  0.00  0.00    -0.210 A 
ATOM     22 BR   LIG    1        0.696   2.662   6.283  0.00  0.00    +0.030 Br
ATOM     23 CL   LIG    1       -3.411   0.821   2.200  0.00  0.00    +0.030 Cl
ATOM     24  C   LIG    1       -0.424   2.974   3.654  0.00  0.00    +0.160 A 
ENDBRANCH  15  18
ENDBRANCH  13  15
ENDBRANCH   4  13
TORSDOF 4
