REMARK  Name = ZINCvU0000000DyH.0
REMARK                            x       y       z     vdW  Elec       q    Type
REMARK                         _______ _______ _______ _____ _____    ______ ____
ROOT
ATOM      1  C   LIG    1        4.243  -4.151   1.779  0.00  0.00    +0.110 C 
ENDROOT
BRANCH   1   2
ATOM      2  C   LIG    1        4.471  -2.785   1.184  0.00  0.00    +0.540 C 
ATOM      3  N   LIG    1        3.469  -2.155   0.541  0.00  0.00    -0.720 N 
ATOM      4  H   LIG    1        2.600  -2.579   0.462  0.00  0.00    +0.400 HD
ATOM      5  O   LIG    1        5.557  -2.254   1.283  0.00  0.00    -0.520 OA
BRANCH   3   6
ATOM      6  C   LIG    1        3.690  -0.827  -0.037  0.00  0.00    +0.280 C 
ATOM      7  C   LIG    1        4.244  -0.975  -1.456  0.00  0.00    +0.040 C 
BRANCH   6   8
ATOM      8  C   LIG    1        2.385  -0.075  -0.083  0.00  0.00    -0.080 A 
ATOM      9  C   LIG    1        1.208  -0.752  -0.167  0.00  0.00    +0.010 A 
ATOM     10  C   LIG    1       -0.009  -0.074  -0.210  0.00  0.00    +0.020 A 
ATOM     11  C   LIG    1       -0.055   1.286  -0.170  0.00  0.00    +0.030 A 
ATOM     12  C   LIG    1        1.140   2.020  -0.084  0.00  0.00    -0.050 A 
ATOM     13  C   LIG    1        1.132   3.424  -0.039  0.00  0.00    +0.020 A 
ATOM     14  C   LIG    1        2.310   4.102   0.046  0.00  0.00    +0.010 A 
ATOM     15  C   LIG    1        3.526   3.424   0.089  0.00  0.00    +0.020 A 
ATOM     16  C   LIG    1        3.572   2.064   0.048  0.00  0.00    +0.020 A 
ATOM     17  C   LIG    1        2.378   1.330  -0.039  0.00  0.00    -0.040 A 
ENDBRANCH   6   8
ENDBRANCH   3   6
ENDBRANCH   1   2
BRANCH   1  18
ATOM     18  S   LIG    1        5.767  -4.728   2.568  0.00  0.00    +0.080 S 
BRANCH  18  20
ATOM     19  N   LIG    1        5.981  -7.206   3.850  0.00  0.00    -0.460 N 
ATOM     20  C   LIG    1        5.230  -6.297   3.161  0.00  0.00    +0.140 A 
ATOM     21  N   LIG    1        4.033  -6.817   3.019  0.00  0.00    -0.290 NA
ATOM     22  N   LIG    1        3.991  -7.976   3.574  0.00  0.00    -0.280 NA
ATOM     23  C   LIG    1        5.149  -8.262   4.099  0.00  0.00    +0.200 A 
BRANCH  23  24
ATOM     24  C   LIG    1        5.506  -9.525   4.839  0.00  0.00    +0.090 C 
ATOM     25  C   LIG    1        5.314 -10.729   3.914  0.00  0.00    +0.030 C 
ATOM     26  C   LIG    1        5.677 -12.012   4.665  0.00  0.00    +0.010 C 
ATOM     27  C   LIG    1        4.772 -12.159   5.890  0.00  0.00    +0.010 C 
ATOM     28  C   LIG    1        4.964 -10.955   6.814  0.00  0.00    +0.010 C 
ATOM     29  C   LIG    1        4.601  -9.673   6.064  0.00  0.00    +0.030 C 
ENDBRANCH  23  24
BRANCH  19  30
ATOM     30  C   LIG    1        7.386  -7.074   4.243  0.00  0.00    +0.340 C 
BRANCH  30  32
ATOM     31  C   LIG    1        8.121  -7.026   6.571  0.00  0.00    +0.060 C 
ATOM     32  C   LIG    1        7.469  -6.431   5.603  0.00  0.00    -0.070 C 
ENDBRANCH  30  32
ENDBRANCH  19  30
ENDBRANCH  18  20
ENDBRANCH   1  18
TORSDOF 8
