REMARK  Name = ZINCpe00000bl8aM.0
REMARK                            x       y       z     vdW  Elec       q    Type
REMARK                         _______ _______ _______ _____ _____    ______ ____
ROOT
ATOM      1  C   LIG    1        1.417   2.459  -0.578  0.00  0.00    +0.250 C 
ATOM      2  C   LIG    1       -0.052   2.137  -0.860  0.00  0.00    +0.010 C 
ATOM      3  C   LIG    1       -0.292   0.639  -0.647  0.00  0.00    +0.290 C 
ATOM      4  N   LIG    1        0.660  -0.115  -1.474  0.00  0.00    -0.590 N 
ATOM      5  C   LIG    1        2.094   0.181  -1.347  0.00  0.00    +0.220 C 
ATOM      6  C   LIG    1        2.874  -0.597  -2.409  0.00  0.00    +0.050 C 
ATOM      7  C   LIG    1        0.227  -1.059  -2.332  0.00  0.00    +0.590 C 
ATOM      8  O   LIG    1        0.992  -1.538  -3.145  0.00  0.00    -0.490 OA
ATOM      9  C   LIG    1        2.307   1.684  -1.552  0.00  0.00    +0.040 C 
ENDROOT
BRANCH   7  10
ATOM     10  C   LIG    1       -1.185  -1.514  -2.284  0.00  0.00    +0.270 A 
ATOM     11  N   LIG    1       -1.960  -1.109  -1.289  0.00  0.00    -0.460 NA
ATOM     12  C   LIG    1       -3.223  -1.489  -1.218  0.00  0.00    +0.310 A 
ATOM     13  C   LIG    1       -3.732  -2.334  -2.198  0.00  0.00    +0.020 A 
ATOM     14  C   LIG    1       -2.887  -2.743  -3.224  0.00  0.00    +0.320 A 
ATOM     15  F   LIG    1       -5.017  -2.748  -2.155  0.00  0.00    -0.110 F 
ATOM     16  N   LIG    1       -1.637  -2.319  -3.235  0.00  0.00    -0.440 NA
ENDBRANCH   7  10
BRANCH   1  18
ATOM     17  C   LIG    1        1.499   2.923   1.812  0.00  0.00    +0.520 C 
ATOM     18  N   LIG    1        1.747   2.073   0.796  0.00  0.00    -0.720 N 
ATOM     19  H   LIG    1        2.143   1.206   0.975  0.00  0.00    +0.400 HD
ATOM     20  O   LIG    1        1.004   4.008   1.589  0.00  0.00    -0.510 OA
BRANCH  17  25
ATOM     21  C   LIG    1        0.079   0.965   6.272  0.00  0.00    +0.180 C 
ATOM     22  C   LIG    1        0.666   1.835   5.191  0.00  0.00    +0.090 C 
ATOM     23  N   LIG    1        1.076   3.035   5.340  0.00  0.00    -0.280 NA
ATOM     24  O   LIG    1        1.571   3.606   4.145  0.00  0.00    -0.170 OA
ATOM     25  C   LIG    1        1.838   2.526   3.226  0.00  0.00    +0.130 C 
ATOM     26  C   LIG    1        0.871   1.434   3.743  0.00  0.00    +0.080 C 
ENDBRANCH  17  25
ENDBRANCH   1  18
TORSDOF 3
