REMARK  Name = ZINCkj000005iJ4u.0
REMARK                            x       y       z     vdW  Elec       q    Type
REMARK                         _______ _______ _______ _____ _____    ______ ____
ROOT
ATOM      1  S   LIG    1        2.655   0.767   0.487  0.00  0.00    +2.700 S 
ATOM      2  O   LIG    1        2.145   0.087   1.625  0.00  0.00    -0.950 OA
ATOM      3  O   LIG    1        3.835   1.558   0.519  0.00  0.00    -0.940 OA
ENDROOT
BRANCH   1   7
ATOM      4  C   LIG    1        3.311  -2.383  -2.699  0.00  0.00    +0.190 A 
ATOM      5  C   LIG    1        2.844  -2.749  -1.445  0.00  0.00    -0.090 A 
ATOM      6  C   LIG    1        2.645  -1.786  -0.475  0.00  0.00    +0.170 A 
ATOM      7  C   LIG    1        2.911  -0.459  -0.752  0.00  0.00    -0.730 A 
ATOM      8  C   LIG    1        3.371  -0.090  -2.003  0.00  0.00    +0.060 A 
ATOM      9  C   LIG    1        3.654   1.359  -2.304  0.00  0.00    +0.110 C 
ATOM     10  C   LIG    1        3.578  -1.050  -2.975  0.00  0.00    -0.040 A 
BRANCH   4  12
ATOM     11  C   LIG    1        3.212  -4.681  -3.301  0.00  0.00    +0.250 C 
ATOM     12  O   LIG    1        3.508  -3.328  -3.655  0.00  0.00    -0.310 OA
ENDBRANCH   4  12
ENDBRANCH   1   7
BRANCH   1  13
ATOM     13  N   LIG    1        1.442   1.760  -0.047  0.00  0.00    -1.110 NA
ATOM     14  H   LIG    1        1.626   2.693  -0.233  0.00  0.00    +0.420 HD
BRANCH  13  15
ATOM     15  C   LIG    1        0.091   1.226  -0.239  0.00  0.00    +0.280 C 
ATOM     16  C   LIG    1       -0.963   1.877   0.673  0.00  0.00    +0.060 C 
ATOM     17  C   LIG    1       -1.914   1.843  -0.538  0.00  0.00    +0.150 C 
ATOM     18  C   LIG    1       -0.658   1.857  -1.425  0.00  0.00    +0.060 C 
BRANCH  17  19
ATOM     19  N   LIG    1       -2.742   3.049  -0.672  0.00  0.00    -0.380 N 
ATOM     20  C   LIG    1       -3.912   2.941   0.210  0.00  0.00    +0.310 C 
ATOM     21  C   LIG    1       -3.190   3.183  -2.065  0.00  0.00    +0.310 C 
ATOM     22  H   LIG    1       -2.200   3.860  -0.414  0.00  0.00    +0.430 HD
ENDBRANCH  17  19
ENDBRANCH  13  15
ENDBRANCH   1  13
TORSDOF 5
