REMARK  Name = ZINCnE000001G9bo.0
REMARK                            x       y       z     vdW  Elec       q    Type
REMARK                         _______ _______ _______ _____ _____    ______ ____
ROOT
ATOM      1  C   LIG    1        5.400   3.215  -1.105  0.00  0.00    +0.250 C 
ENDROOT
BRANCH   1   2
ATOM      2  O   LIG    1        6.371   2.366  -0.491  0.00  0.00    -0.540 OA
ATOM      3  H   LIG    1        6.582   1.574  -1.005  0.00  0.00    +0.370 HD
ENDBRANCH   1   2
BRANCH   1   4
ATOM      4  C   LIG    1        5.920   3.685  -2.465  0.00  0.00    +0.050 C 
BRANCH   4   5
ATOM      5  S   LIG    1        7.468   4.602  -2.237  0.00  0.00    -0.010 S 
BRANCH   5  10
ATOM      6  N   LIG    1        9.592   6.447  -7.116  0.00  0.00    -0.640 NA
ATOM      7  C   LIG    1        8.922   5.926  -6.116  0.00  0.00    +0.340 A 
ATOM      8  N   LIG    1        7.755   5.221  -6.171  0.00  0.00    -0.510 NA
ATOM      9  N   LIG    1        7.253   4.779  -4.967  0.00  0.00    -0.250 NA
ATOM     10  C   LIG    1        7.906   5.055  -3.882  0.00  0.00    -0.070 A 
ATOM     11  S   LIG    1        9.327   5.986  -4.390  0.00  0.00    -0.110 S 
BRANCH   6  13
ATOM     12  C   LIG    1        8.725   7.674  -9.046  0.00  0.00    -0.010 C 
ATOM     13  C   LIG    1        9.096   6.299  -8.486  0.00  0.00    +0.170 C 
ENDBRANCH   6  13
ENDBRANCH   5  10
ENDBRANCH   4   5
ENDBRANCH   1   4
BRANCH   1  14
ATOM     14  C   LIG    1        4.094   2.442  -1.297  0.00  0.00    +0.170 C 
BRANCH  14  15
ATOM     15  O   LIG    1        3.548   2.104  -0.020  0.00  0.00    -0.320 OA
BRANCH  15  16
ATOM     16  C   LIG    1        2.380   1.409  -0.013  0.00  0.00    +0.100 A 
ATOM     17  C   LIG    1        2.396   0.022  -0.020  0.00  0.00    -0.100 A 
ATOM     18  C   LIG    1        1.207  -0.681  -0.013  0.00  0.00    +0.010 A 
ATOM     19  C   LIG    1        0.002  -0.004   0.002  0.00  0.00    +0.000 A 
ATOM     20  C   LIG    1       -0.017   1.379   0.010  0.00  0.00    -0.080 A 
ATOM     21  C   LIG    1       -1.332   2.114   0.020  0.00  0.00    +0.090 C 
ATOM     22  C   LIG    1        3.710  -0.717  -0.036  0.00  0.00    +0.110 C 
ATOM     23  C   LIG    1        1.169   2.087   0.002  0.00  0.00    -0.100 A 
ATOM     24  C   LIG    1        1.148   3.594   0.010  0.00  0.00    +0.090 C 
ENDBRANCH  15  16
ENDBRANCH  14  15
ENDBRANCH   1  14
TORSDOF 8
