REMARK  Name = ZINCah0000002nsK.0
REMARK                            x       y       z     vdW  Elec       q    Type
REMARK                         _______ _______ _______ _____ _____    ______ ____
ROOT
ATOM      1  N   LIG    1       -0.016   1.348   0.009  0.00  0.00    -0.400 N 
ATOM      2  N   LIG    1        1.310   1.797  -0.001  0.00  0.00    -0.310 NA
ATOM      3  C   LIG    1        2.099   0.753  -0.014  0.00  0.00    +0.260 A 
ATOM      4  C   LIG    1        1.306  -0.397  -0.013  0.00  0.00    -0.210 A 
ATOM      5  C   LIG    1        0.002  -0.004   0.002  0.00  0.00    +0.370 A 
ENDROOT
BRANCH   5   6
ATOM      6  N   LIG    1       -1.110  -0.842   0.008  0.00  0.00    -0.860 N 
ATOM      7  H   LIG    1       -0.992  -1.805   0.002  0.00  0.00    +0.420 HD
ATOM      8  H   LIG    1       -2.002  -0.463   0.019  0.00  0.00    +0.400 HD
ENDBRANCH   5   6
BRANCH   1   9
ATOM      9  C   LIG    1       -1.212   2.194   0.020  0.00  0.00    +0.320 C 
BRANCH   9  11
ATOM     10  C   LIG    1       -2.794   3.464   1.479  0.00  0.00    +0.030 C 
ATOM     11  C   LIG    1       -1.622   2.481   1.466  0.00  0.00    -0.030 C 
ATOM     12  C   LIG    1       -2.043   1.176   2.145  0.00  0.00    +0.020 C 
ENDBRANCH   9  11
ENDBRANCH   1   9
TORSDOF 3
