REMARK  Name = ZINCpk000000nPMs.0
REMARK                            x       y       z     vdW  Elec       q    Type
REMARK                         _______ _______ _______ _____ _____    ______ ____
ROOT
ATOM      1  N   LIG    1        0.909   2.150  -6.332  0.00  0.00    -0.550 N 
ATOM      2  C   LIG    1       -0.433   1.602  -6.105  0.00  0.00    +0.310 C 
ATOM      3  C   LIG    1       -0.305   0.699  -4.858  0.00  0.00    +0.010 C 
ATOM      4  C   LIG    1        1.193   0.317  -4.899  0.00  0.00    +0.090 C 
ATOM      5  C   LIG    1        1.843   1.444  -5.671  0.00  0.00    +0.510 C 
ATOM      6  O   LIG    1        3.033   1.676  -5.691  0.00  0.00    -0.500 OA
ENDROOT
BRANCH   1  11
ATOM      7  C   LIG    1        0.439   4.955  -8.662  0.00  0.00    -0.050 A 
ATOM      8  C   LIG    1        1.722   5.467  -8.718  0.00  0.00    -0.020 A 
ATOM      9  C   LIG    1        2.737   4.880  -7.983  0.00  0.00    +0.040 A 
ATOM     10  C   LIG    1        2.469   3.784  -7.187  0.00  0.00    -0.010 A 
ATOM     11  C   LIG    1        1.182   3.264  -7.133  0.00  0.00    +0.170 A 
ATOM     12  C   LIG    1        0.166   3.855  -7.872  0.00  0.00    -0.030 A 
BRANCH   7  14
ATOM     13  C   LIG    1       -0.827   7.055  -9.029  0.00  0.00    +0.030 C 
ATOM     14  C   LIG    1       -0.663   5.598  -9.464  0.00  0.00    +0.020 C 
ATOM     15  C   LIG    1       -0.308   5.546 -10.951  0.00  0.00    +0.040 C 
ENDBRANCH   7  14
ENDBRANCH   1  11
BRANCH   3  16
ATOM     16  C   LIG    1       -0.632   1.464  -3.602  0.00  0.00    +0.520 C 
ATOM     17  N   LIG    1       -0.458   0.887  -2.396  0.00  0.00    -0.720 N 
ATOM     18  H   LIG    1       -0.122  -0.021  -2.337  0.00  0.00    +0.410 HD
ATOM     19  O   LIG    1       -1.052   2.600  -3.676  0.00  0.00    -0.520 OA
BRANCH  17  20
ATOM     20  C   LIG    1       -0.776   1.631  -1.175  0.00  0.00    +0.270 C 
ATOM     21  C   LIG    1       -2.258   1.439  -0.812  0.00  0.00    +0.060 C 
ATOM     22  C   LIG    1       -2.483   1.936   0.630  0.00  0.00    -0.300 C 
ATOM     23  S   LIG    1       -0.867   1.709   1.471  0.00  0.00    +2.390 S 
ATOM     24  O   LIG    1       -0.345   2.978   1.840  0.00  0.00    -0.930 OA
ATOM     25  O   LIG    1       -0.979   0.678   2.442  0.00  0.00    -0.930 OA
ATOM     26  C   LIG    1        0.048   1.076   0.015  0.00  0.00    -0.310 C 
ENDBRANCH  17  20
ENDBRANCH   3  16
TORSDOF 4
