REMARK  Name = ZINCpe00000zfMMq.0
REMARK                            x       y       z     vdW  Elec       q    Type
REMARK                         _______ _______ _______ _____ _____    ______ ____
ROOT
ATOM      1  C   LIG    1        1.785   2.159   2.503  0.00  0.00    +0.330 C 
ATOM      2  N   LIG    1        2.164   2.304   1.095  0.00  0.00    -0.480 N 
ATOM      3  C   LIG    1        1.395   2.024  -0.000  0.00  0.00    +0.180 A 
ATOM      4  N   LIG    1        2.110   2.298  -1.055  0.00  0.00    -0.270 NA
ATOM      5  N   LIG    1        3.270   2.723  -0.703  0.00  0.00    -0.310 NA
ATOM      6  C   LIG    1        3.360   2.744   0.606  0.00  0.00    +0.360 A 
ENDROOT
BRANCH   6   7
ATOM      7  N   LIG    1        4.458   3.143   1.350  0.00  0.00    -0.440 N 
ATOM      8  C   LIG    1        5.577   3.565   0.466  0.00  0.00    +0.270 C 
ATOM      9  C   LIG    1        5.835   5.029   0.794  0.00  0.00    -0.040 C 
ATOM     10  C   LIG    1        7.266   5.524   0.725  0.00  0.00    +0.060 C 
ATOM     11  C   LIG    1        7.230   7.024   1.059  0.00  0.00    +0.080 C 
ATOM     12  C   LIG    1        6.222   7.359   2.116  0.00  0.00    +0.520 C 
ATOM     13  N   LIG    1        5.324   6.500   2.637  0.00  0.00    -0.710 N 
ATOM     14  H   LIG    1        4.633   6.817   3.239  0.00  0.00    +0.400 HD
ATOM     15  O   LIG    1        6.216   8.495   2.539  0.00  0.00    -0.550 OA
ATOM     16  C   LIG    1        5.402   5.103   2.286  0.00  0.00    +0.220 C 
ATOM     17  C   LIG    1        4.112   4.286   2.244  0.00  0.00    +0.210 C 
ENDBRANCH   6   7
BRANCH   3  18
ATOM     18  C   LIG    1       -0.018   1.503   0.010  0.00  0.00    +0.250 C 
BRANCH  18  19
ATOM     19  C   LIG    1        0.002  -0.004   0.002  0.00  0.00    -0.190 A 
ATOM     20  C   LIG    1       -0.074  -0.689   1.167  0.00  0.00    +0.320 A 
ATOM     21  N   LIG    1       -0.062  -2.046   1.176  0.00  0.00    -0.600 N 
ATOM     22  H   LIG    1       -0.122  -2.521   2.019  0.00  0.00    +0.420 HD
ATOM     23  C   LIG    1        0.037  -2.742   0.026  0.00  0.00    +0.520 A 
ATOM     24  C   LIG    1        0.123  -2.062  -1.202  0.00  0.00    -0.160 A 
ATOM     25 CL   LIG    1        0.252  -2.949  -2.688  0.00  0.00    -0.020 Cl
ATOM     26  O   LIG    1        0.052  -3.962   0.051  0.00  0.00    -0.520 OA
ATOM     27  C   LIG    1        0.106  -0.698  -1.212  0.00  0.00    +0.160 A 
ENDBRANCH  18  19
ENDBRANCH   3  18
TORSDOF 3
