REMARK  Name = ZINCrH000004jonR.0
REMARK                            x       y       z     vdW  Elec       q    Type
REMARK                         _______ _______ _______ _____ _____    ______ ____
ROOT
ATOM      1  C   LIG    1        2.689   7.663   0.013  0.00  0.00    +0.530 C 
ATOM      2  N   LIG    1        1.801   8.677   0.026  0.00  0.00    -0.720 N 
ATOM      3  H   LIG    1        0.850   8.489   0.034  0.00  0.00    +0.410 HD
ATOM      4  O   LIG    1        3.879   7.898   0.003  0.00  0.00    -0.520 OA
ENDROOT
BRANCH   1   5
ATOM      5  C   LIG    1        2.203   6.236   0.011  0.00  0.00    +0.110 C 
BRANCH   5   6
ATOM      6  S   LIG    1        3.624   5.115  -0.008  0.00  0.00    +0.070 S 
BRANCH   6  15
ATOM      7  N   LIG    1        3.402   2.342  -0.018  0.00  0.00    -0.470 N 
ATOM      8  C   LIG    1        2.403   1.382  -0.013  0.00  0.00    +0.060 A 
ATOM      9  C   LIG    1        2.403  -0.004  -0.021  0.00  0.00    +0.010 A 
ATOM     10  C   LIG    1        1.206  -0.691  -0.013  0.00  0.00    +0.030 A 
ATOM     11  C   LIG    1        0.002  -0.004   0.002  0.00  0.00    +0.000 A 
ATOM     12  C   LIG    1       -0.017   1.373   0.010  0.00  0.00    +0.060 A 
ATOM     13  C   LIG    1        1.186   2.083   0.002  0.00  0.00    +0.060 A 
ATOM     14  N   LIG    1        1.488   3.408   0.005  0.00  0.00    -0.500 NA
ATOM     15  C   LIG    1        2.789   3.563  -0.007  0.00  0.00    +0.250 A 
BRANCH   7  17
ATOM     16  C   LIG    1        5.335   2.015  -1.480  0.00  0.00    +0.040 C 
ATOM     17  C   LIG    1        4.846   2.094  -0.033  0.00  0.00    +0.300 C 
ENDBRANCH   7  17
ENDBRANCH   6  15
ENDBRANCH   5   6
ENDBRANCH   1   5
BRANCH   2  18
ATOM     18  C   LIG    1        2.274  10.064   0.028  0.00  0.00    +0.260 C 
BRANCH  18  19
ATOM     19  C   LIG    1        1.073  11.011   0.043  0.00  0.00    +0.000 C 
BRANCH  19  20
ATOM     20  C   LIG    1        1.566  12.460   0.045  0.00  0.00    +0.290 C 
BRANCH  20  21
ATOM     21  N   LIG    1        0.416  13.367   0.061  0.00  0.00    -0.630 N 
ATOM     22  C   LIG    1       -0.171  13.827  -1.200  0.00  0.00    +0.280 C 
BRANCH  21  23
ATOM     23  C   LIG    1       -0.121  13.794   1.277  0.00  0.00    +0.210 A 
ATOM     24  C   LIG    1        0.431  13.355   2.474  0.00  0.00    -0.080 A 
ATOM     25  C   LIG    1       -0.099  13.783   3.675  0.00  0.00    +0.050 A 
ATOM     26  C   LIG    1       -1.185  14.640   3.688  0.00  0.00    -0.060 A 
ATOM     27  C   LIG    1       -1.740  15.075   2.498  0.00  0.00    +0.050 A 
ATOM     28  C   LIG    1       -1.211  14.655   1.294  0.00  0.00    -0.080 A 
ENDBRANCH  21  23
ENDBRANCH  20  21
ENDBRANCH  19  20
ENDBRANCH  18  19
ENDBRANCH   2  18
TORSDOF 9
