REMARK  Name = ZINCvU0000000Bbv.0
REMARK                            x       y       z     vdW  Elec       q    Type
REMARK                         _______ _______ _______ _____ _____    ______ ____
ROOT
ATOM      1  C   LIG    1        0.379  -4.190   0.616  0.00  0.00    +0.220 A 
ATOM      2  N   LIG    1        1.329  -4.828  -0.059  0.00  0.00    -0.290 NA
ATOM      3  N   LIG    1        2.236  -4.191  -0.712  0.00  0.00    -0.160 NA
ATOM      4  C   LIG    1        2.243  -2.862  -0.734  0.00  0.00    +0.060 A 
ATOM      5  C   LIG    1        1.248  -2.163  -0.021  0.00  0.00    +0.230 A 
ATOM      6  N   LIG    1        0.330  -2.864   0.641  0.00  0.00    -0.450 NA
ENDROOT
BRANCH   5   7
ATOM      7  C   LIG    1        1.221  -0.682  -0.013  0.00  0.00    -0.080 A 
ATOM      8  C   LIG    1        0.002  -0.004   0.002  0.00  0.00    +0.070 A 
ATOM      9  C   LIG    1       -0.017   1.376   0.010  0.00  0.00    +0.000 A 
ATOM     10  C   LIG    1        1.170   2.086   0.002  0.00  0.00    +0.040 A 
ATOM     11  C   LIG    1        2.382   1.419  -0.013  0.00  0.00    +0.000 A 
ATOM     12  C   LIG    1        2.414   0.040  -0.021  0.00  0.00    +0.060 A 
ENDBRANCH   5   7
BRANCH   4  13
ATOM     13  C   LIG    1        3.283  -2.127  -1.491  0.00  0.00    -0.060 A 
ATOM     14  C   LIG    1        2.966  -0.930  -2.132  0.00  0.00    +0.050 A 
ATOM     15  C   LIG    1        3.940  -0.247  -2.832  0.00  0.00    +0.010 A 
ATOM     16  C   LIG    1        5.226  -0.754  -2.907  0.00  0.00    +0.030 A 
ATOM     17  C   LIG    1        5.544  -1.944  -2.277  0.00  0.00    +0.000 A 
ATOM     18  C   LIG    1        4.580  -2.633  -1.570  0.00  0.00    +0.060 A 
ENDBRANCH   4  13
BRANCH   1  19
ATOM     19  S   LIG    1       -0.836  -5.119   1.491  0.00  0.00    +0.110 S 
BRANCH  19  21
ATOM     20  C   LIG    1       -0.427  -7.054  -0.393  0.00  0.00    +0.090 C 
ATOM     21  C   LIG    1       -0.282  -6.799   1.109  0.00  0.00    +0.010 C 
BRANCH  21  22
ATOM     22  C   LIG    1       -1.124  -7.791   1.870  0.00  0.00    +0.540 C 
ATOM     23  N   LIG    1       -0.630  -9.011   2.161  0.00  0.00    -0.600 N 
ATOM     24  C   LIG    1        0.725  -9.373   1.737  0.00  0.00    +0.280 C 
ATOM     25  O   LIG    1       -2.246  -7.491   2.221  0.00  0.00    -0.520 OA
BRANCH  23  26
ATOM     26  C   LIG    1       -1.448  -9.975   2.901  0.00  0.00    +0.240 C 
ATOM     27  C   LIG    1       -0.741 -10.349   4.205  0.00  0.00    +0.010 C 
ATOM     28  C   LIG    1       -1.595 -11.356   4.978  0.00  0.00    +0.020 C 
ATOM     29  C   LIG    1       -1.797 -12.612   4.128  0.00  0.00    +0.010 C 
ATOM     30  C   LIG    1       -2.504 -12.238   2.824  0.00  0.00    +0.020 C 
ATOM     31  C   LIG    1       -1.650 -11.231   2.051  0.00  0.00    +0.010 C 
ENDBRANCH  23  26
ENDBRANCH  21  22
ENDBRANCH  19  21
ENDBRANCH   1  19
TORSDOF 6
