REMARK  Name = ZINCqH0000038XPu.0
REMARK                            x       y       z     vdW  Elec       q    Type
REMARK                         _______ _______ _______ _____ _____    ______ ____
ROOT
ATOM      1  C   LIG    1       -2.893   5.885  -0.065  0.00  0.00    +0.600 C 
ATOM      2  N   LIG    1       -3.589   6.716  -0.866  0.00  0.00    -0.680 N 
ATOM      3  H   LIG    1       -4.490   6.484  -1.140  0.00  0.00    +0.410 HD
ATOM      4  O   LIG    1       -1.802   6.218   0.356  0.00  0.00    -0.490 OA
ENDROOT
BRANCH   1  10
ATOM      5  C   LIG    1       -5.756   4.877  -0.662  0.00  0.00    +0.360 C 
ATOM      6  N   LIG    1       -4.716   4.121   0.039  0.00  0.00    -0.280 N 
ATOM      7  N   LIG    1       -4.851   2.931   0.504  0.00  0.00    -0.260 NA
ATOM      8  C   LIG    1       -3.746   2.523   1.073  0.00  0.00    +0.190 A 
ATOM      9  C   LIG    1       -2.807   3.553   0.973  0.00  0.00    -0.090 A 
ATOM     10  C   LIG    1       -3.454   4.574   0.299  0.00  0.00    -0.060 A 
BRANCH   9  11
ATOM     11  C   LIG    1       -1.390   3.549   1.485  0.00  0.00    +0.070 C 
ATOM     12  C   LIG    1       -0.519   2.436   0.880  0.00  0.00    +0.020 C 
ATOM     13  C   LIG    1        0.087   2.256   2.283  0.00  0.00    +0.010 C 
ATOM     14  C   LIG    1       -1.224   2.836   2.840  0.00  0.00    +0.020 C 
ENDBRANCH   9  11
ENDBRANCH   1  10
BRANCH   2  15
ATOM     15  C   LIG    1       -3.012   7.914  -1.301  0.00  0.00    +0.150 A 
ATOM     16  C   LIG    1       -1.646   7.978  -1.546  0.00  0.00    +0.030 A 
ATOM     17  C   LIG    1       -1.073   9.158  -1.981  0.00  0.00    +0.040 A 
ATOM     18  C   LIG    1       -1.853  10.283  -2.164  0.00  0.00    +0.020 A 
ATOM     19  C   LIG    1       -3.224  10.229  -1.915  0.00  0.00    -0.010 A 
ATOM     20  C   LIG    1       -3.803   9.039  -1.482  0.00  0.00    +0.000 A 
BRANCH  19  21
ATOM     21  C   LIG    1       -4.064  11.436  -2.111  0.00  0.00    -0.160 A 
ATOM     22  C   LIG    1       -4.686  12.019  -1.046  0.00  0.00    +0.320 A 
ATOM     23  N   LIG    1       -5.451  13.125  -1.215  0.00  0.00    -0.600 N 
ATOM     24  H   LIG    1       -5.884  13.530  -0.447  0.00  0.00    +0.420 HD
ATOM     25  C   LIG    1       -5.622  13.667  -2.436  0.00  0.00    +0.510 A 
ATOM     26  C   LIG    1       -5.002  13.093  -3.559  0.00  0.00    -0.090 A 
ATOM     27  O   LIG    1       -6.318  14.661  -2.567  0.00  0.00    -0.550 OA
ATOM     28  C   LIG    1       -4.227  11.984  -3.402  0.00  0.00    +0.140 A 
ENDBRANCH  19  21
ENDBRANCH   2  15
TORSDOF 4
