REMARK  Name = ZINCah0000002hFG.0
REMARK                            x       y       z     vdW  Elec       q    Type
REMARK                         _______ _______ _______ _____ _____    ______ ____
ROOT
ATOM      1  C   LIG    1        1.148   1.920   0.001  0.00  0.00    +0.350 A 
ATOM      2  N   LIG    1        2.220   1.182  -0.013  0.00  0.00    -0.490 NA
ATOM      3  S   LIG    1        1.672  -0.427  -0.016  0.00  0.00    +0.180 S 
ATOM      4  C   LIG    1        0.002  -0.004   0.002  0.00  0.00    +0.340 A 
ATOM      5  N   LIG    1       -0.016   1.312   0.009  0.00  0.00    -0.580 NA
ENDROOT
BRANCH   1   7
ATOM      6  C   LIG    1        0.151   4.148   0.802  0.00  0.00    +0.090 C 
ATOM      7  C   LIG    1        1.240   3.424   0.008  0.00  0.00    -0.060 C 
ATOM      8  C   LIG    1        1.762   4.106  -1.258  0.00  0.00    +0.060 C 
ATOM      9  C   LIG    1        2.637   4.046  -0.004  0.00  0.00    +0.070 C 
ENDBRANCH   1   7
BRANCH   4  10
ATOM     10  N   LIG    1       -1.084  -0.861   0.007  0.00  0.00    -0.790 N 
ATOM     11  H   LIG    1       -0.944  -1.821   0.001  0.00  0.00    +0.420 HD
ATOM     12  H   LIG    1       -1.985  -0.502   0.018  0.00  0.00    +0.420 HD
ENDBRANCH   4  10
TORSDOF 2
