REMARK  Name = ZINCpe000000YWxG.0
REMARK                            x       y       z     vdW  Elec       q    Type
REMARK                         _______ _______ _______ _____ _____    ______ ____
ROOT
ATOM      1  C   LIG    1        0.117   1.000   2.802  0.00  0.00    +0.150 A 
ATOM      2  C   LIG    1       -0.235   1.243   4.126  0.00  0.00    -0.020 A 
ATOM      3  C   LIG    1        0.543   0.710   5.138  0.00  0.00    +0.200 A 
ATOM      4  C   LIG    1        1.651  -0.051   4.792  0.00  0.00    -0.750 A 
ATOM      5  C   LIG    1        1.942  -0.253   3.457  0.00  0.00    +0.400 A 
ATOM      6  N   LIG    1        1.180   0.263   2.512  0.00  0.00    -0.510 NA
ENDROOT
BRANCH   4   7
ATOM      7  S   LIG    1        2.675  -0.753   6.042  0.00  0.00    +2.700 S 
ATOM      8  O   LIG    1        2.486   0.039   7.207  0.00  0.00    -0.950 OA
ATOM      9  O   LIG    1        3.947  -0.967   5.445  0.00  0.00    -0.950 OA
BRANCH   7  10
ATOM     10  N   LIG    1        2.065  -2.252   6.392  0.00  0.00    -1.000 NA
ATOM     11  C   LIG    1        1.053  -2.430   7.445  0.00  0.00    +0.270 C 
ATOM     12  C   LIG    1       -0.111  -3.245   6.858  0.00  0.00    +0.220 C 
ATOM     13  O   LIG    1        0.404  -4.439   6.264  0.00  0.00    -0.370 OA
ATOM     14  C   LIG    1        1.291  -4.211   5.166  0.00  0.00    +0.210 C 
ATOM     15  C   LIG    1        2.523  -3.445   5.663  0.00  0.00    +0.270 C 
ENDBRANCH   7  10
ENDBRANCH   4   7
BRANCH   1  16
ATOM     16  S   LIG    1       -0.862   1.671   1.500  0.00  0.00    +0.040 S 
BRANCH  16  17
ATOM     17  C   LIG    1       -0.013   1.086   0.008  0.00  0.00    +0.110 C 
BRANCH  17  19
ATOM     18  O   LIG    1       -1.736   2.268  -1.088  0.00  0.00    -0.510 OA
ATOM     19  C   LIG    1       -0.742   1.585  -1.213  0.00  0.00    +0.540 C 
ATOM     20  N   LIG    1       -0.288   1.272  -2.443  0.00  0.00    -0.720 N 
ATOM     21  H   LIG    1        0.507   0.726  -2.543  0.00  0.00    +0.410 HD
BRANCH  20  22
ATOM     22  C   LIG    1       -0.997   1.758  -3.630  0.00  0.00    +0.320 C 
BRANCH  22  23
ATOM     23  C   LIG    1       -0.281   1.264  -4.889  0.00  0.00    +0.450 C 
ATOM     24  F   LIG    1        1.032   1.748  -4.899  0.00  0.00    -0.180 F 
ATOM     25  F   LIG    1       -0.958   1.728  -6.022  0.00  0.00    -0.170 F 
ATOM     26  F   LIG    1       -0.262  -0.135  -4.896  0.00  0.00    -0.180 F 
ENDBRANCH  22  23
ENDBRANCH  20  22
ENDBRANCH  17  19
ENDBRANCH  16  17
ENDBRANCH   1  16
TORSDOF 7
