REMARK  Name = ZINCb800000010Nh.0
REMARK                            x       y       z     vdW  Elec       q    Type
REMARK                         _______ _______ _______ _____ _____    ______ ____
ROOT
ATOM      1  C   LIG    1       -2.164   1.050   1.278  0.00  0.00    +0.200 C 
ENDROOT
BRANCH   1   3
ATOM      2  C   LIG    1       -0.013   1.086   0.008  0.00  0.00    +0.050 C 
ATOM      3  C   LIG    1       -0.729   1.579   1.267  0.00  0.00    -0.040 C 
ATOM      4  C   LIG    1        0.011   1.072   2.506  0.00  0.00    +0.030 C 
ENDBRANCH   1   3
BRANCH   1   5
ATOM      5  O   LIG    1       -2.855   1.523   0.120  0.00  0.00    -0.540 OA
ATOM      6  H   LIG    1       -2.907   2.487   0.059  0.00  0.00    +0.380 HD
ENDBRANCH   1   5
BRANCH   1   7
ATOM      7  C   LIG    1       -2.880   1.543   2.537  0.00  0.00    +0.300 C 
BRANCH   7   8
ATOM      8  N   LIG    1       -4.214   0.940   2.608  0.00  0.00    -0.290 N 
ATOM      9  C   LIG    1       -4.708   0.229   3.647  0.00  0.00    +0.130 A 
ATOM     10  C   LIG    1       -5.962  -0.135   3.293  0.00  0.00    +0.140 A 
ATOM     11  N   LIG    1       -6.172   0.365   2.070  0.00  0.00    -0.280 NA
ATOM     12  N   LIG    1       -5.119   1.001   1.694  0.00  0.00    -0.060 NA
ENDBRANCH   7   8
ENDBRANCH   1   7
TORSDOF 4
