REMARK  Name = ZINCtV00001bB3ed.0
REMARK                            x       y       z     vdW  Elec       q    Type
REMARK                         _______ _______ _______ _____ _____    ______ ____
ROOT
ATOM      1  C   LIG    1       -1.048   1.666  -1.182  0.00  0.00    +0.270 C 
ATOM      2  C   LIG    1       -0.222   1.191   0.031  0.00  0.00    +0.030 C 
ATOM      3  C   LIG    1       -1.146   1.448   1.247  0.00  0.00    +0.040 C 
ATOM      4  C   LIG    1       -2.548   1.079   0.691  0.00  0.00    +0.020 C 
ATOM      5  C   LIG    1       -2.527   1.594  -0.763  0.00  0.00    +0.030 C 
ENDROOT
BRANCH   5   6
ATOM      6  C   LIG    1       -3.272   0.640  -1.659  0.00  0.00    -0.030 A 
ATOM      7  C   LIG    1       -2.999  -0.714  -1.607  0.00  0.00    +0.010 A 
ATOM      8  C   LIG    1       -3.687  -1.590  -2.426  0.00  0.00    +0.050 A 
ATOM      9  C   LIG    1       -4.640  -1.111  -3.305  0.00  0.00    -0.190 A 
ATOM     10  C   LIG    1       -4.909   0.243  -3.361  0.00  0.00    +0.060 A 
ATOM     11  C   LIG    1       -4.226   1.119  -2.538  0.00  0.00    +0.050 A 
BRANCH   9  12
ATOM     12  C   LIG    1       -5.386  -2.066  -4.202  0.00  0.00    +0.510 C 
ATOM     13  F   LIG    1       -6.663  -1.559  -4.462  0.00  0.00    -0.180 F 
ATOM     14  F   LIG    1       -5.497  -3.309  -3.569  0.00  0.00    -0.180 F 
ATOM     15  F   LIG    1       -4.689  -2.216  -5.405  0.00  0.00    -0.180 F 
ENDBRANCH   9  12
ENDBRANCH   5   6
BRANCH   1  17
ATOM     16  C   LIG    1       -0.007  -0.431  -2.162  0.00  0.00    +0.300 C 
ATOM     17  N   LIG    1       -0.808   0.784  -2.328  0.00  0.00    -0.560 N 
BRANCH  17  18
ATOM     18  C   LIG    1       -1.338   1.099  -3.564  0.00  0.00    +0.440 A 
ATOM     19  N   LIG    1       -2.069   2.151  -3.850  0.00  0.00    -0.340 NA
ATOM     20  N   LIG    1       -2.388   2.124  -5.096  0.00  0.00    -0.210 NA
ATOM     21  C   LIG    1       -1.874   1.055  -5.655  0.00  0.00    +0.160 A 
ATOM     22  O   LIG    1       -1.193   0.387  -4.697  0.00  0.00    -0.240 OA
BRANCH  21  23
ATOM     23  C   LIG    1       -2.009   0.657  -7.071  0.00  0.00    +0.020 A 
ATOM     24  C   LIG    1       -1.400  -0.511  -7.532  0.00  0.00    +0.050 A 
ATOM     25  C   LIG    1       -1.534  -0.880  -8.855  0.00  0.00    +0.040 A 
ATOM     26  C   LIG    1       -2.261  -0.089  -9.727  0.00  0.00    +0.040 A 
ATOM     27  C   LIG    1       -2.862   1.074  -9.279  0.00  0.00    +0.050 A 
ATOM     28  C   LIG    1       -2.741   1.452  -7.957  0.00  0.00    -0.060 A 
ATOM     29 BR   LIG    1       -3.564   3.041  -7.346  0.00  0.00    -0.000 Br
ENDBRANCH  21  23
ENDBRANCH  17  18
ENDBRANCH   1  17
TORSDOF 5
