REMARK  Name = ZINCqH00000072oj.0
REMARK                            x       y       z     vdW  Elec       q    Type
REMARK                         _______ _______ _______ _____ _____    ______ ____
ROOT
ATOM      1  C   LIG    1        5.986  -0.728   3.373  0.00  0.00    -0.030 C 
ATOM      2  C   LIG    1        6.582  -0.948   1.980  0.00  0.00    +0.040 C 
ATOM      3  C   LIG    1        5.583  -1.730   1.120  0.00  0.00    +0.290 C 
ATOM      4  N   LIG    1        4.299  -1.017   1.121  0.00  0.00    -0.600 N 
ATOM      5  C   LIG    1        3.684  -0.669   2.410  0.00  0.00    +0.280 C 
ATOM      6  C   LIG    1        3.698  -0.683  -0.038  0.00  0.00    +0.570 C 
ATOM      7  O   LIG    1        4.219  -0.971  -1.098  0.00  0.00    -0.510 OA
ATOM      8  C   LIG    1        4.701   0.095   3.256  0.00  0.00    +0.050 C 
ENDROOT
BRANCH   6   9
ATOM      9  C   LIG    1        2.408   0.033  -0.021  0.00  0.00    -0.200 A 
ATOM     10  C   LIG    1        1.206  -0.683  -0.014  0.00  0.00    +0.160 A 
ATOM     11  C   LIG    1        0.002  -0.004   0.002  0.00  0.00    -0.010 A 
ATOM     12  C   LIG    1       -0.017   1.379   0.010  0.00  0.00    +0.110 A 
ATOM     13  C   LIG    1        1.167   2.095   0.002  0.00  0.00    -0.010 A 
ATOM     14  F   LIG    1        1.222  -2.034  -0.021  0.00  0.00    -0.120 F 
ATOM     15  C   LIG    1        2.380   1.432  -0.013  0.00  0.00    +0.160 A 
ATOM     16  F   LIG    1        3.535   2.133  -0.020  0.00  0.00    -0.120 F 
ENDBRANCH   6   9
BRANCH   1  17
ATOM     17  C   LIG    1        6.979   0.011   4.233  0.00  0.00    +0.410 C 
ATOM     18  O   LIG    1        7.763   0.784   3.725  0.00  0.00    -0.450 OA
BRANCH  17  22
ATOM     19  C   LIG    1        7.031  -0.615   8.421  0.00  0.00    +0.160 A 
ATOM     20  C   LIG    1        7.931   0.273   7.842  0.00  0.00    -0.030 A 
ATOM     21  C   LIG    1        7.919   0.479   6.486  0.00  0.00    +0.120 A 
ATOM     22  C   LIG    1        6.997  -0.206   5.685  0.00  0.00    -0.210 A 
ATOM     23  C   LIG    1        6.089  -1.095   6.274  0.00  0.00    +0.110 A 
ATOM     24  C   LIG    1        6.113  -1.298   7.630  0.00  0.00    -0.080 A 
BRANCH  19  26
ATOM     25  C   LIG    1        6.095  -1.739  10.293  0.00  0.00    +0.240 C 
ATOM     26  O   LIG    1        7.047  -0.814   9.763  0.00  0.00    -0.310 OA
ENDBRANCH  19  26
ENDBRANCH  17  22
ENDBRANCH   1  17
TORSDOF 4
