REMARK  Name = ZINCqH0000003cx6.0
REMARK                            x       y       z     vdW  Elec       q    Type
REMARK                         _______ _______ _______ _____ _____    ______ ____
ROOT
ATOM      1  C   LIG    1        0.176   3.919  -6.692  0.00  0.00    -0.050 A 
ATOM      2  C   LIG    1       -0.499   3.204  -5.713  0.00  0.00    -0.010 A 
ATOM      3  C   LIG    1       -1.559   2.365  -6.081  0.00  0.00    +0.380 A 
ATOM      4  N   LIG    1       -1.942   2.221  -7.329  0.00  0.00    -0.450 NA
ATOM      5  C   LIG    1       -1.354   2.874  -8.336  0.00  0.00    +0.160 A 
ATOM      6  C   LIG    1       -1.788   2.705  -9.662  0.00  0.00    +0.040 A 
ATOM      7  C   LIG    1       -1.166   3.379 -10.668  0.00  0.00    +0.040 A 
ATOM      8  C   LIG    1       -0.101   4.238 -10.406  0.00  0.00    +0.010 A 
ATOM      9  C   LIG    1        0.347   4.426  -9.132  0.00  0.00    +0.070 A 
ATOM     10  C   LIG    1       -0.270   3.748  -8.075  0.00  0.00    -0.090 A 
ENDROOT
BRANCH   1  13
ATOM     11  N   LIG    1        1.764   4.867  -5.086  0.00  0.00    -0.720 N 
ATOM     12  H   LIG    1        1.359   4.314  -4.399  0.00  0.00    +0.400 HD
ATOM     13  C   LIG    1        1.301   4.816  -6.351  0.00  0.00    +0.560 C 
ATOM     14  O   LIG    1        1.808   5.508  -7.212  0.00  0.00    -0.520 OA
BRANCH  11  16
ATOM     15  C   LIG    1        3.205   5.622  -3.260  0.00  0.00    +0.030 C 
ATOM     16  C   LIG    1        2.878   5.756  -4.749  0.00  0.00    +0.250 C 
ENDBRANCH  11  16
ENDBRANCH   1  13
BRANCH   3  17
ATOM     17  N   LIG    1       -2.227   1.654  -5.089  0.00  0.00    -0.650 N 
ATOM     18  H   LIG    1       -2.006   1.800  -4.156  0.00  0.00    +0.420 HD
ATOM     19  C   LIG    1       -3.180   0.762  -5.425  0.00  0.00    +0.580 C 
ATOM     20  O   LIG    1       -3.523   0.647  -6.586  0.00  0.00    -0.460 OA
BRANCH  19  21
ATOM     21  C   LIG    1       -3.807  -0.073  -4.385  0.00  0.00    -0.250 A 
ATOM     22  C   LIG    1       -4.778  -1.015  -4.558  0.00  0.00    +0.120 A 
ATOM     23  O   LIG    1       -5.067  -1.547  -3.367  0.00  0.00    -0.170 OA
ATOM     24  C   LIG    1       -4.323  -0.988  -2.400  0.00  0.00    +0.180 A 
ATOM     25  C   LIG    1       -3.518  -0.063  -2.943  0.00  0.00    -0.030 A 
BRANCH  22  26
ATOM     26  C   LIG    1       -5.413  -1.395  -5.871  0.00  0.00    +0.050 C 
ATOM     27  C   LIG    1       -6.927  -1.213  -6.003  0.00  0.00    +0.050 C 
ATOM     28  C   LIG    1       -6.334  -2.618  -5.883  0.00  0.00    +0.040 C 
ENDBRANCH  22  26
ENDBRANCH  19  21
ENDBRANCH   3  17
TORSDOF 5
