REMARK  Name = ZINCtV00000L6kyt.0
REMARK                            x       y       z     vdW  Elec       q    Type
REMARK                         _______ _______ _______ _____ _____    ______ ____
ROOT
ATOM      1  C   LIG    1        3.504   6.139  -0.370  0.00  0.00    +0.320 A 
ATOM      2  C   LIG    1        2.475   5.506   0.258  0.00  0.00    -0.380 A 
ATOM      3  S   LIG    1        0.994   6.433   0.124  0.00  0.00    +0.200 S 
ATOM      4  C   LIG    1        1.781   7.702  -0.807  0.00  0.00    +0.100 A 
ATOM      5  N   LIG    1        1.275   8.830  -1.314  0.00  0.00    -0.460 NA
ATOM      6  C   LIG    1        2.001   9.687  -1.995  0.00  0.00    +0.220 A 
ATOM      7  C   LIG    1        3.347   9.464  -2.226  0.00  0.00    -0.020 A 
ATOM      8  C   LIG    1        3.940   8.310  -1.727  0.00  0.00    +0.060 A 
ATOM      9  C   LIG    1        3.133   7.395  -0.992  0.00  0.00    -0.170 A 
ENDROOT
BRANCH   8  10
ATOM     10  C   LIG    1        5.377   8.038  -1.956  0.00  0.00    -0.090 A 
ATOM     11  C   LIG    1        6.338   8.961  -1.544  0.00  0.00    +0.080 A 
ATOM     12  C   LIG    1        7.676   8.701  -1.755  0.00  0.00    -0.010 A 
ATOM     13  C   LIG    1        8.066   7.529  -2.383  0.00  0.00    +0.120 A 
ATOM     14  C   LIG    1        7.115   6.611  -2.799  0.00  0.00    -0.010 A 
ATOM     15  F   LIG    1        9.378   7.281  -2.592  0.00  0.00    -0.130 F 
ATOM     16  C   LIG    1        5.775   6.859  -2.588  0.00  0.00    +0.070 A 
ENDBRANCH   8  10
BRANCH   1  17
ATOM     17  N   LIG    1        4.792   5.627  -0.413  0.00  0.00    -0.830 N 
ATOM     18  H   LIG    1        5.547   6.224  -0.529  0.00  0.00    +0.400 HD
ATOM     19  H   LIG    1        4.937   4.672  -0.327  0.00  0.00    +0.420 HD
ENDBRANCH   1  17
BRANCH   6  20
ATOM     20  C   LIG    1        1.357  10.938  -2.534  0.00  0.00    +0.010 C 
ATOM     21  C   LIG    1        2.280  12.075  -2.974  0.00  0.00    +0.040 C 
ATOM     22  C   LIG    1        1.462  12.208  -1.688  0.00  0.00    +0.050 C 
ENDBRANCH   6  20
BRANCH   2  23
ATOM     23  C   LIG    1        2.588   4.269   0.933  0.00  0.00    +0.480 C 
ATOM     24  O   LIG    1        3.683   3.757   1.089  0.00  0.00    -0.470 OA
BRANCH  23  25
ATOM     25  C   LIG    1        1.376   3.595   1.449  0.00  0.00    -0.150 A 
ATOM     26  C   LIG    1        1.455   2.783   2.582  0.00  0.00    +0.090 A 
ATOM     27  C   LIG    1        0.323   2.158   3.060  0.00  0.00    +0.020 A 
ATOM     28  C   LIG    1       -0.891   2.330   2.414  0.00  0.00    -0.010 A 
ATOM     29  C   LIG    1       -0.976   3.139   1.293  0.00  0.00    +0.030 A 
ATOM     30 CL   LIG    1       -2.311   1.535   3.017  0.00  0.00    -0.060 Cl
ATOM     31  C   LIG    1        0.150   3.769   0.806  0.00  0.00    +0.070 A 
ENDBRANCH  23  25
ENDBRANCH   2  23
TORSDOF 5
