REMARK  Name = ZINCrD00000lFqvb.0
REMARK                            x       y       z     vdW  Elec       q    Type
REMARK                         _______ _______ _______ _____ _____    ______ ____
ROOT
ATOM      1  C   LIG    1        2.196   3.495   0.039  0.00  0.00    +0.310 C 
ATOM      2  C   LIG    1        3.475   4.085   0.643  0.00  0.00    +0.040 C 
ATOM      3  C   LIG    1        4.695   3.517  -0.089  0.00  0.00    +0.010 C 
ATOM      4  C   LIG    1        4.854   2.034   0.266  0.00  0.00    +0.110 C 
ATOM      5  C   LIG    1        3.523   1.353   0.080  0.00  0.00    -0.140 A 
ATOM      6  C   LIG    1        3.255  -0.078  -0.024  0.00  0.00    -0.080 A 
ATOM      7  C   LIG    1        4.052  -1.225   0.010  0.00  0.00    +0.040 A 
ATOM      8  C   LIG    1        3.468  -2.466  -0.120  0.00  0.00    +0.070 A 
ATOM      9  F   LIG    1        4.237  -3.577  -0.088  0.00  0.00    -0.140 F 
ATOM     10  C   LIG    1        2.093  -2.582  -0.284  0.00  0.00    +0.010 A 
ATOM     11  C   LIG    1        1.294  -1.460  -0.319  0.00  0.00    +0.030 A 
ATOM     12  C   LIG    1        1.862  -0.198  -0.190  0.00  0.00    +0.090 A 
ATOM     13  N   LIG    1        1.339   1.079  -0.186  0.00  0.00    -0.580 N 
ATOM     14  H   LIG    1        0.400   1.296  -0.288  0.00  0.00    +0.420 HD
ATOM     15  C   LIG    1        2.342   1.992  -0.024  0.00  0.00    +0.070 A 
ENDROOT
BRANCH   1  17
ATOM     16  C   LIG    1        1.363   5.202  -1.488  0.00  0.00    +0.560 C 
ATOM     17  N   LIG    1        1.999   4.027  -1.312  0.00  0.00    -0.720 N 
ATOM     18  H   LIG    1        2.328   3.533  -2.080  0.00  0.00    +0.400 HD
ATOM     19  O   LIG    1        0.872   5.774  -0.538  0.00  0.00    -0.520 OA
BRANCH  16  20
ATOM     20  C   LIG    1        1.259   5.804  -2.866  0.00  0.00    +0.060 C 
ATOM     21  C   LIG    1        2.086   7.059  -3.152  0.00  0.00    +0.070 C 
ATOM     22  C   LIG    1        0.568   7.162  -2.993  0.00  0.00    +0.100 C 
BRANCH  20  29
ATOM     23  O   LIG    1       -0.904   4.386  -3.167  0.00  0.00    -0.530 OA
ATOM     24  C   LIG    1       -0.061   4.158  -4.008  0.00  0.00    +0.510 C 
ATOM     25  C   LIG    1       -0.358   3.118  -5.049  0.00  0.00    +0.070 C 
ATOM     26  C   LIG    1        0.598   3.276  -6.234  0.00  0.00    +0.020 C 
ATOM     27  C   LIG    1        2.028   3.388  -5.691  0.00  0.00    +0.020 C 
ATOM     28  C   LIG    1        2.160   4.707  -4.929  0.00  0.00    +0.260 C 
ATOM     29  N   LIG    1        1.079   4.848  -3.961  0.00  0.00    -0.570 N 
ENDBRANCH  20  29
ENDBRANCH  16  20
ENDBRANCH   1  17
TORSDOF 3
