REMARK  Name = ZINCrD000000fWq4.0
REMARK                            x       y       z     vdW  Elec       q    Type
REMARK                         _______ _______ _______ _____ _____    ______ ____
ROOT
ATOM      1  C   LIG    1        0.325   2.015   0.134  0.00  0.00    +0.000 C 
ATOM      2  C   LIG    1       -0.411   2.634  -1.084  0.00  0.00    +0.040 C 
ATOM      3  C   LIG    1       -1.725   3.137  -0.424  0.00  0.00    +0.230 C 
ATOM      4  N   LIG    1       -1.318   3.627   0.905  0.00  0.00    -0.620 N 
ATOM      5  C   LIG    1       -1.978   4.542   1.642  0.00  0.00    +0.730 C 
ATOM      6  N   LIG    1       -3.116   5.091   1.172  0.00  0.00    -0.660 N 
ATOM      7  H   LIG    1       -3.459   4.827   0.304  0.00  0.00    +0.400 HD
ATOM      8  O   LIG    1       -1.547   4.873   2.729  0.00  0.00    -0.550 OA
ATOM      9  C   LIG    1       -0.071   2.951   1.295  0.00  0.00    +0.190 C 
ATOM     10  C   LIG    1        1.031   3.987   1.527  0.00  0.00    +0.040 C 
ATOM     11  C   LIG    1       -0.298   2.134   2.568  0.00  0.00    +0.030 C 
ENDROOT
BRANCH   6  12
ATOM     12  C   LIG    1       -3.799   6.039   1.934  0.00  0.00    +0.330 A 
ATOM     13  C   LIG    1       -3.433   6.500   3.161  0.00  0.00    -0.090 A 
ATOM     14  C   LIG    1       -4.388   7.436   3.569  0.00  0.00    +0.260 A 
ATOM     15  N   LIG    1       -5.293   7.537   2.629  0.00  0.00    -0.290 NA
ATOM     16  N   LIG    1       -4.943   6.671   1.585  0.00  0.00    -0.380 N 
BRANCH  16  17
ATOM     17  C   LIG    1       -5.686   6.482   0.337  0.00  0.00    +0.280 C 
ATOM     18  C   LIG    1       -7.111   5.987   0.642  0.00  0.00    +0.080 C 
ATOM     19  C   LIG    1       -7.965   6.122  -0.634  0.00  0.00    -0.300 C 
ATOM     20  S   LIG    1       -7.213   7.505  -1.566  0.00  0.00    +2.400 S 
ATOM     21  O   LIG    1       -8.105   8.611  -1.568  0.00  0.00    -0.920 OA
ATOM     22  O   LIG    1       -6.687   7.016  -2.792  0.00  0.00    -0.930 OA
ATOM     23  C   LIG    1       -5.836   7.836  -0.403  0.00  0.00    -0.310 C 
ENDBRANCH  16  17
ENDBRANCH   6  12
BRANCH   1  24
ATOM     24  C   LIG    1        1.839   2.032  -0.083  0.00  0.00    +0.040 C 
BRANCH  24  26
ATOM     25  C   LIG    1        1.631   1.328  -2.471  0.00  0.00    +0.020 C 
ATOM     26  C   LIG    1        2.219   0.961  -1.108  0.00  0.00    -0.070 C 
ATOM     27  C   LIG    1        1.665  -0.393  -0.660  0.00  0.00    +0.020 C 
ATOM     28  C   LIG    1        3.743   0.877  -1.216  0.00  0.00    +0.020 C 
ENDBRANCH  24  26
ENDBRANCH   1  24
TORSDOF 4
