REMARK  Name = ZINCrH000004naRB.0
REMARK                            x       y       z     vdW  Elec       q    Type
REMARK                         _______ _______ _______ _____ _____    ______ ____
ROOT
ATOM      1  C   LIG    1        1.443   1.281   0.023  0.00  0.00    +0.520 C 
ATOM      2  N   LIG    1        2.326   1.048  -0.968  0.00  0.00    -0.600 N 
ATOM      3  C   LIG    1        1.919   0.177  -2.088  0.00  0.00    +0.260 C 
ATOM      4  C   LIG    1        2.378   0.730  -3.450  0.00  0.00    +0.020 C 
ATOM      5  C   LIG    1        2.192   2.227  -3.490  0.00  0.00    +0.010 C 
ATOM      6  C   LIG    1        3.476   2.909  -3.028  0.00  0.00    +0.000 C 
ATOM      7  C   LIG    1        3.593   3.054  -1.569  0.00  0.00    +0.020 C 
ATOM      8  C   LIG    1        3.630   1.667  -0.893  0.00  0.00    +0.290 C 
ATOM      9  O   LIG    1        1.711   2.074   0.900  0.00  0.00    -0.500 OA
ENDROOT
BRANCH   1  16
ATOM     10  C   LIG    1       -3.626  -1.046   2.700  0.00  0.00    +0.100 A 
ATOM     11  C   LIG    1       -4.436  -0.907   1.583  0.00  0.00    -0.040 A 
ATOM     12  C   LIG    1       -3.925  -0.350   0.429  0.00  0.00    +0.040 A 
ATOM     13  C   LIG    1       -2.602   0.074   0.380  0.00  0.00    +0.090 A 
ATOM     14  O   LIG    1       -2.136   0.610  -0.779  0.00  0.00    -0.310 OA
ATOM     15  C   LIG    1       -0.927   1.371  -0.725  0.00  0.00    +0.260 C 
ATOM     16  C   LIG    1        0.122   0.555   0.041  0.00  0.00    -0.040 C 
ATOM     17  C   LIG    1       -0.356   0.390   1.486  0.00  0.00    +0.130 C 
ATOM     18  C   LIG    1       -1.795  -0.062   1.496  0.00  0.00    -0.110 A 
ATOM     19  C   LIG    1       -2.307  -0.623   2.654  0.00  0.00    +0.010 A 
BRANCH  10  21
ATOM     20  C   LIG    1       -5.492  -2.011   3.815  0.00  0.00    +0.250 C 
ATOM     21  O   LIG    1       -4.125  -1.597   3.839  0.00  0.00    -0.320 OA
ENDBRANCH  10  21
ENDBRANCH   1  16
BRANCH   8  22
ATOM     22  C   LIG    1        4.026   1.830   0.551  0.00  0.00    -0.010 A 
ATOM     23  C   LIG    1        4.351   3.077   1.062  0.00  0.00    -0.030 A 
ATOM     24  C   LIG    1        4.706   3.189   2.393  0.00  0.00    +0.250 A 
ATOM     25  N   LIG    1        4.746   2.125   3.172  0.00  0.00    -0.490 NA
ATOM     26  C   LIG    1        4.448   0.923   2.719  0.00  0.00    +0.250 A 
ATOM     27  C   LIG    1        4.080   0.735   1.400  0.00  0.00    -0.050 A 
ENDBRANCH   8  22
TORSDOF 3
