REMARK  Name = ZINCrg00000AwsES.0
REMARK                            x       y       z     vdW  Elec       q    Type
REMARK                         _______ _______ _______ _____ _____    ______ ____
ROOT
ATOM      1  N   LIG    1       -0.214   3.270   2.741  0.00  0.00    -0.700 N 
ATOM      2  H   LIG    1       -0.682   3.846   3.366  0.00  0.00    +0.400 HD
ATOM      3  C   LIG    1        0.478   3.809   1.718  0.00  0.00    +0.540 C 
ATOM      4  O   LIG    1        1.064   3.089   0.937  0.00  0.00    -0.540 OA
ENDROOT
BRANCH   3   5
ATOM      5  C   LIG    1        0.524   5.305   1.544  0.00  0.00    +0.330 C 
ATOM      6  C   LIG    1       -0.286   5.706   0.334  0.00  0.00    -0.250 A 
ATOM      7  C   LIG    1        0.173   6.532  -0.642  0.00  0.00    +0.110 A 
ATOM      8  N   LIG    1       -0.807   6.673  -1.552  0.00  0.00    -0.360 N 
ATOM      9  N   LIG    1       -1.902   5.905  -1.127  0.00  0.00    -0.290 NA
ATOM     10  C   LIG    1       -0.743   7.484  -2.770  0.00  0.00    +0.360 C 
ATOM     11  C   LIG    1        1.545   7.157  -0.658  0.00  0.00    +0.110 C 
ATOM     12  C   LIG    1        2.138   7.085   0.755  0.00  0.00    +0.330 C 
ATOM     13  C   LIG    1       -1.583   5.327   0.006  0.00  0.00    +0.250 A 
ATOM     14  N   LIG    1        1.912   5.740   1.305  0.00  0.00    -0.990 NA
BRANCH  14  15
ATOM     15  S   LIG    1        3.186   4.739   1.649  0.00  0.00    +2.610 S 
ATOM     16  O   LIG    1        2.661   3.817   2.594  0.00  0.00    -0.940 OA
ATOM     17  O   LIG    1        4.242   5.623   1.997  0.00  0.00    -0.960 OA
ATOM     18  C   LIG    1        3.544   3.906   0.078  0.00  0.00    -0.260 C 
ENDBRANCH  14  15
ENDBRANCH   3   5
BRANCH   1  19
ATOM     19  C   LIG    1       -0.258   1.816   2.911  0.00  0.00    +0.230 C 
ATOM     20  C   LIG    1        1.165   1.278   3.076  0.00  0.00    +0.060 C 
ATOM     21  C   LIG    1       -0.905   1.178   1.680  0.00  0.00    +0.050 C 
BRANCH  19  26
ATOM     22  C   LIG    1       -3.367   0.396   7.514  0.00  0.00    +0.130 C 
ATOM     23  C   LIG    1       -2.546   0.792   6.315  0.00  0.00    +0.130 A 
ATOM     24  C   LIG    1       -1.969   2.047   6.266  0.00  0.00    -0.030 A 
ATOM     25  C   LIG    1       -1.209   2.400   5.161  0.00  0.00    +0.060 A 
ATOM     26  C   LIG    1       -1.068   1.477   4.136  0.00  0.00    -0.140 A 
ATOM     27  C   LIG    1       -1.676   0.241   4.254  0.00  0.00    +0.280 A 
ATOM     28  N   LIG    1       -2.386  -0.062   5.323  0.00  0.00    -0.480 NA
ENDBRANCH  19  26
ENDBRANCH   1  19
TORSDOF 4
