REMARK  Name = ZINCrH00000tj0MH.0
REMARK                            x       y       z     vdW  Elec       q    Type
REMARK                         _______ _______ _______ _____ _____    ______ ____
ROOT
ATOM      1  C   LIG    1       -4.315  -1.624   2.056  0.00  0.00    +0.570 C 
ATOM      2  N   LIG    1       -3.940  -0.402   1.629  0.00  0.00    -0.520 N 
ATOM      3  H   LIG    1       -4.606   0.224   1.304  0.00  0.00    +0.430 HD
ATOM      4  O   LIG    1       -3.480  -2.408   2.464  0.00  0.00    -0.530 OA
ENDROOT
BRANCH   1   8
ATOM      5  C   LIG    1       -8.418  -2.732   1.977  0.00  0.00    +0.130 A 
ATOM      6  C   LIG    1       -8.030  -1.474   1.537  0.00  0.00    -0.090 A 
ATOM      7  C   LIG    1       -6.700  -1.111   1.561  0.00  0.00    +0.060 A 
ATOM      8  C   LIG    1       -5.739  -2.010   2.029  0.00  0.00    -0.090 A 
ATOM      9  C   LIG    1       -6.129  -3.279   2.466  0.00  0.00    +0.040 A 
ATOM     10 BR   LIG    1       -9.329  -0.254   0.903  0.00  0.00    -0.010 Br
ATOM     11  C   LIG    1       -7.463  -3.635   2.444  0.00  0.00    +0.110 A 
BRANCH  11  12
ATOM     12  O   LIG    1       -7.846  -4.867   2.874  0.00  0.00    -0.300 OA
ATOM     13  C   LIG    1       -6.816  -5.740   3.340  0.00  0.00    +0.250 C 
ENDBRANCH  11  12
BRANCH   5  14
ATOM     14  O   LIG    1       -9.729  -3.085   1.951  0.00  0.00    -0.310 OA
BRANCH  14  16
ATOM     15  C   LIG    1      -11.696  -4.033   0.916  0.00  0.00    +0.070 C 
ATOM     16  C   LIG    1      -10.209  -3.711   0.759  0.00  0.00    +0.180 C 
ENDBRANCH  14  16
ENDBRANCH   5  14
ENDBRANCH   1   8
BRANCH   2  17
ATOM     17  N   LIG    1       -2.588  -0.035   1.655  0.00  0.00    -0.520 N 
ATOM     18  H   LIG    1       -1.922  -0.660   1.980  0.00  0.00    +0.430 HD
ATOM     19  C   LIG    1       -2.213   1.187   1.228  0.00  0.00    +0.510 C 
ATOM     20  O   LIG    1       -3.046   1.969   0.821  0.00  0.00    -0.500 OA
BRANCH  19  21
ATOM     21  C   LIG    1       -0.759   1.582   1.255  0.00  0.00    +0.020 C 
ATOM     22  C   LIG    1       -0.072   1.087  -0.019  0.00  0.00    +0.120 C 
BRANCH  21  23
ATOM     23  S   LIG    1       -0.625   3.388   1.352  0.00  0.00    -0.030 S 
BRANCH  23  24
ATOM     24  C   LIG    1       -1.221   3.744   2.971  0.00  0.00    -0.090 A 
ATOM     25  C   LIG    1       -1.529   2.707   3.844  0.00  0.00    -0.020 A 
ATOM     26  C   LIG    1       -1.991   2.989   5.114  0.00  0.00    +0.030 A 
ATOM     27  C   LIG    1       -2.158   4.302   5.515  0.00  0.00    +0.010 A 
ATOM     28  C   LIG    1       -1.857   5.337   4.647  0.00  0.00    +0.030 A 
ATOM     29  C   LIG    1       -1.390   5.062   3.377  0.00  0.00    +0.030 A 
ENDBRANCH  23  24
ENDBRANCH  21  23
ENDBRANCH  19  21
ENDBRANCH   2  17
TORSDOF 8
