REMARK  Name = ZINCpe000000YSPN.2
REMARK                            x       y       z     vdW  Elec       q    Type
REMARK                         _______ _______ _______ _____ _____    ______ ____
ROOT
ATOM      1  C   LIG    1        2.587   6.105   1.451  0.00  0.00    +0.040 C 
ENDROOT
BRANCH   1   3
ATOM      2  O   LIG    1        2.723   8.219   0.410  0.00  0.00    -0.540 OA
ATOM      3  C   LIG    1        2.691   7.608   1.458  0.00  0.00    +0.530 C 
ATOM      4  N   LIG    1        2.749   8.275   2.628  0.00  0.00    -0.610 N 
ATOM      5  C   LIG    1        2.712   7.559   3.913  0.00  0.00    +0.280 C 
ATOM      6  C   LIG    1        1.606   8.180   4.769  0.00  0.00    +0.170 C 
ATOM      7  N   LIG    1        1.822   9.632   4.893  0.00  0.00    -0.530 NA
ATOM      8  C   LIG    1        0.830  10.184   5.830  0.00  0.00    +0.160 C 
ATOM      9  C   LIG    1        1.090  11.673   6.057  0.00  0.00    +0.020 C 
ATOM     10  C   LIG    1        0.987  12.402   4.713  0.00  0.00    +0.010 C 
ATOM     11  C   LIG    1        2.014  11.802   3.752  0.00  0.00    +0.040 C 
ATOM     12  C   LIG    1        1.761  10.300   3.588  0.00  0.00    +0.120 C 
ATOM     13  C   LIG    1        2.856   9.739   2.663  0.00  0.00    +0.300 C 
ENDBRANCH   1   3
BRANCH   1  14
ATOM     14  C   LIG    1        2.538   5.604   0.006  0.00  0.00    +0.360 C 
BRANCH  14  15
ATOM     15  N   LIG    1        2.437   4.142   0.000  0.00  0.00    -0.460 N 
ATOM     16  N   LIG    1        3.597   3.363  -0.015  0.00  0.00    +0.090 NA
ATOM     17  N   LIG    1        3.576   2.079  -0.021  0.00  0.00    -0.200 NA
ATOM     18  C   LIG    1        2.414   1.380  -0.014  0.00  0.00    +0.060 A 
ATOM     19  C   LIG    1        2.406  -0.017  -0.021  0.00  0.00    +0.080 A 
ATOM     20  C   LIG    1        1.207  -0.693  -0.013  0.00  0.00    +0.070 A 
ATOM     21  C   LIG    1        0.002  -0.004   0.002  0.00  0.00    +0.040 A 
ATOM     22  C   LIG    1       -0.017   1.374   0.010  0.00  0.00    +0.100 A 
ATOM     23  C   LIG    1        1.186   2.078   0.002  0.00  0.00    -0.150 A 
ATOM     24  C   LIG    1        1.221   3.548   0.009  0.00  0.00    +0.530 A 
ATOM     25  O   LIG    1        0.196   4.205   0.023  0.00  0.00    -0.500 OA
ENDBRANCH  14  15
ENDBRANCH   1  14
TORSDOF 3
