REMARK  Name = ZINCrD0000072stu.0
REMARK                            x       y       z     vdW  Elec       q    Type
REMARK                         _______ _______ _______ _____ _____    ______ ____
ROOT
ATOM      1  O   LIG    1        5.054   4.780  -0.025  0.00  0.00    -0.330 OA
ENDROOT
BRANCH   1   2
ATOM      2  C   LIG    1        3.718   4.603  -0.012  0.00  0.00    +0.520 C 
ATOM      3  O   LIG    1        2.978   5.567   0.001  0.00  0.00    -0.500 OA
BRANCH   2   9
ATOM      4  N   LIG    1        1.330  -0.455  -0.013  0.00  0.00    -0.390 N 
ATOM      5  N   LIG    1        0.002  -0.004   0.002  0.00  0.00    +0.000 NA
ATOM      6  N   LIG    1       -0.015   1.282   0.009  0.00  0.00    -0.200 NA
ATOM      7  C   LIG    1        1.250   1.766  -0.000  0.00  0.00    -0.030 A 
ATOM      8  C   LIG    1        1.776   3.060   0.000  0.00  0.00    +0.210 A 
ATOM      9  C   LIG    1        3.154   3.239  -0.013  0.00  0.00    -0.140 A 
ATOM     10  C   LIG    1        4.012   2.129  -0.027  0.00  0.00    +0.140 A 
ATOM     11  C   LIG    1        3.504   0.865  -0.027  0.00  0.00    +0.010 A 
ATOM     12  C   LIG    1        2.126   0.664  -0.015  0.00  0.00    +0.120 A 
BRANCH   4  14
ATOM     13  C   LIG    1        1.924  -2.326  -1.471  0.00  0.00    +0.050 C 
ATOM     14  C   LIG    1        1.780  -1.849  -0.024  0.00  0.00    +0.330 C 
ENDBRANCH   4  14
ENDBRANCH   2   9
ENDBRANCH   1   2
BRANCH   1  15
ATOM     15  C   LIG    1        5.537   6.149  -0.023  0.00  0.00    +0.160 C 
ATOM     16  C   LIG    1        5.692   6.637  -1.465  0.00  0.00    +0.070 C 
BRANCH  15  17
ATOM     17  C   LIG    1        6.872   6.210   0.674  0.00  0.00    +0.430 C 
ATOM     18  O   LIG    1        7.536   5.202   0.802  0.00  0.00    -0.440 OA
BRANCH  17  19
ATOM     19  C   LIG    1        7.352   7.444   1.180  0.00  0.00    -0.270 A 
ATOM     20  C   LIG    1        6.723   8.668   1.110  0.00  0.00    +0.330 A 
ATOM     21  N   LIG    1        7.486   9.604   1.705  0.00  0.00    -0.560 N 
ATOM     22  H   LIG    1        7.250  10.542   1.782  0.00  0.00    +0.420 HD
ATOM     23  C   LIG    1        8.654   9.047   2.187  0.00  0.00    +0.070 A 
ATOM     24  C   LIG    1        9.750   9.576   2.860  0.00  0.00    +0.000 A 
ATOM     25  C   LIG    1       10.796   8.755   3.222  0.00  0.00    +0.030 A 
ATOM     26  C   LIG    1       10.769   7.401   2.922  0.00  0.00    +0.000 A 
ATOM     27  C   LIG    1        9.691   6.859   2.256  0.00  0.00    +0.060 A 
ATOM     28  C   LIG    1        8.628   7.677   1.884  0.00  0.00    -0.060 A 
ENDBRANCH  17  19
ENDBRANCH  15  17
ENDBRANCH   1  15
TORSDOF 6
