REMARK  Name = ZINCpk00000Fb7jf.0
REMARK                            x       y       z     vdW  Elec       q    Type
REMARK                         _______ _______ _______ _____ _____    ______ ____
ROOT
ATOM      1  C   LIG    1        1.018  -3.515   3.066  0.00  0.00    +0.270 C 
ATOM      2  C   LIG    1       -0.054  -2.429   2.982  0.00  0.00    +0.300 C 
ATOM      3  N   LIG    1       -0.056  -1.876   1.618  0.00  0.00    -0.610 N 
ATOM      4  C   LIG    1       -0.115  -2.819   0.490  0.00  0.00    +0.250 C 
ATOM      5  C   LIG    1        0.965  -3.887   0.695  0.00  0.00    +0.240 C 
ATOM      6  C   LIG    1       -0.001  -0.546   1.408  0.00  0.00    +0.500 C 
ATOM      7  O   LIG    1        0.047   0.215   2.351  0.00  0.00    -0.500 OA
ATOM      8  O   LIG    1        0.827  -4.450   2.002  0.00  0.00    -0.380 OA
ENDROOT
BRANCH   6   9
ATOM      9  C   LIG    1        0.002  -0.004   0.002  0.00  0.00    +0.220 C 
ATOM     10  C   LIG    1        1.337  -0.325  -0.710  0.00  0.00    +0.110 C 
ATOM     11  C   LIG    1        2.151   0.923  -0.426  0.00  0.00    -0.150 A 
ATOM     12  C   LIG    1        3.499   1.188  -0.522  0.00  0.00    +0.040 A 
ATOM     13  C   LIG    1        3.983   2.442  -0.184  0.00  0.00    +0.070 A 
ATOM     14  C   LIG    1        3.106   3.422   0.250  0.00  0.00    +0.040 A 
ATOM     15  C   LIG    1        1.756   3.157   0.342  0.00  0.00    +0.040 A 
ATOM     16  F   LIG    1        5.304   2.707  -0.277  0.00  0.00    -0.130 F 
ATOM     17  C   LIG    1        1.262   1.901   0.000  0.00  0.00    +0.100 A 
ATOM     18  O   LIG    1       -0.017   1.433   0.010  0.00  0.00    -0.270 OA
ENDBRANCH   6   9
BRANCH   1  22
ATOM     19  C   LIG    1        0.712  -5.754   5.912  0.00  0.00    +0.190 A 
ATOM     20  N   LIG    1        0.822  -4.582   6.476  0.00  0.00    -0.280 NA
ATOM     21  N   LIG    1        0.940  -3.676   5.571  0.00  0.00    -0.270 NA
ATOM     22  C   LIG    1        0.911  -4.229   4.389  0.00  0.00    +0.180 A 
ATOM     23  N   LIG    1        0.761  -5.563   4.572  0.00  0.00    -0.560 N 
ATOM     24  H   LIG    1        0.702  -6.243   3.882  0.00  0.00    +0.430 HD
BRANCH  19  26
ATOM     25  C   LIG    1        1.701  -7.257   7.619  0.00  0.00    +0.050 C 
ATOM     26  C   LIG    1        0.556  -7.075   6.621  0.00  0.00    +0.140 C 
ENDBRANCH  19  26
ENDBRANCH   1  22
TORSDOF 3
