REMARK  Name = ZINCvU0000000DS7.0
REMARK                            x       y       z     vdW  Elec       q    Type
REMARK                         _______ _______ _______ _____ _____    ______ ____
ROOT
ATOM      1  C   LIG    1        0.096   1.901   2.421  0.00  0.00    +0.550 C 
ATOM      2  O   LIG    1        0.902   0.996   2.522  0.00  0.00    -0.490 OA
ENDROOT
BRANCH   1   3
ATOM      3  C   LIG    1       -0.383   2.597   3.626  0.00  0.00    -0.240 A 
ATOM      4  C   LIG    1        0.182   3.719   4.206  0.00  0.00    +0.170 A 
ATOM      5  N   LIG    1       -0.561   4.030   5.281  0.00  0.00    -0.340 N 
ATOM      6  N   LIG    1       -1.604   3.103   5.385  0.00  0.00    -0.250 NA
ATOM      7 CL   LIG    1        1.590   4.566   3.649  0.00  0.00    +0.020 Cl
ATOM      8  C   LIG    1       -1.512   2.249   4.404  0.00  0.00    +0.130 A 
ATOM      9  C   LIG    1       -2.443   1.093   4.146  0.00  0.00    +0.180 C 
BRANCH   5  10
ATOM     10  C   LIG    1       -0.320   5.152   6.192  0.00  0.00    +0.390 C 
BRANCH  10  11
ATOM     11  C   LIG    1       -1.057   6.369   5.696  0.00  0.00    -0.120 A 
ATOM     12  C   LIG    1       -0.404   7.301   4.912  0.00  0.00    +0.050 A 
ATOM     13  C   LIG    1       -1.083   8.415   4.452  0.00  0.00    +0.010 A 
ATOM     14  C   LIG    1       -2.410   8.603   4.786  0.00  0.00    +0.050 A 
ATOM     15  C   LIG    1       -3.063   7.674   5.575  0.00  0.00    +0.030 A 
ATOM     16  C   LIG    1       -2.387   6.556   6.030  0.00  0.00    -0.010 A 
ATOM     17 CL   LIG    1       -3.206   5.389   7.020  0.00  0.00    -0.050 Cl
ENDBRANCH  10  11
ENDBRANCH   5  10
ENDBRANCH   1   3
BRANCH   1  18
ATOM     18  O   LIG    1       -0.358   2.265   1.206  0.00  0.00    -0.330 OA
BRANCH  18  19
ATOM     19  C   LIG    1        0.158   1.535   0.062  0.00  0.00    +0.240 C 
BRANCH  19  20
ATOM     20  C   LIG    1       -0.458   2.078  -1.201  0.00  0.00    +0.430 C 
ATOM     21  O   LIG    1       -1.255   2.991  -1.143  0.00  0.00    -0.450 OA
BRANCH  20  25
ATOM     22  C   LIG    1        1.689  -0.817  -4.803  0.00  0.00    +0.130 C 
ATOM     23  C   LIG    1        0.863   0.214  -4.078  0.00  0.00    +0.020 A 
ATOM     24  C   LIG    1        0.844   0.402  -2.748  0.00  0.00    -0.010 A 
ATOM     25  C   LIG    1       -0.096   1.503  -2.498  0.00  0.00    -0.270 A 
ATOM     26  C   LIG    1       -0.572   1.881  -3.739  0.00  0.00    +0.120 A 
ATOM     27  C   LIG    1       -1.573   2.976  -4.006  0.00  0.00    +0.150 C 
ATOM     28  N   LIG    1        0.015   1.106  -4.668  0.00  0.00    -0.430 N 
BRANCH  28  29
ATOM     29  C   LIG    1       -0.227   1.201  -6.110  0.00  0.00    +0.220 C 
ATOM     30  C   LIG    1       -0.629  -0.173  -6.651  0.00  0.00    +0.060 C 
ATOM     31  C   LIG    1        1.049   1.671  -6.811  0.00  0.00    +0.050 C 
ENDBRANCH  28  29
ENDBRANCH  20  25
ENDBRANCH  19  20
ENDBRANCH  18  19
ENDBRANCH   1  18
TORSDOF 8
