REMARK  Name = ZINCqH0000003iyP.0
REMARK                            x       y       z     vdW  Elec       q    Type
REMARK                         _______ _______ _______ _____ _____    ______ ____
ROOT
ATOM      1  N   LIG    1        4.575  -0.369   1.154  0.00  0.00    -0.720 N 
ATOM      2  H   LIG    1        3.811  -0.773   1.594  0.00  0.00    +0.410 HD
ATOM      3  C   LIG    1        5.537  -1.149   0.622  0.00  0.00    +0.600 C 
ATOM      4  O   LIG    1        6.496  -0.642   0.071  0.00  0.00    -0.510 OA
ENDROOT
BRANCH   3   5
ATOM      5  C   LIG    1        5.428  -2.612   0.708  0.00  0.00    -0.030 A 
ATOM      6  C   LIG    1        6.330  -3.494   0.205  0.00  0.00    +0.060 A 
ATOM      7  C   LIG    1        5.815  -4.826   0.524  0.00  0.00    -0.140 A 
ATOM      8  C   LIG    1        6.268  -6.126   0.289  0.00  0.00    +0.070 A 
ATOM      9  C   LIG    1        5.528  -7.189   0.725  0.00  0.00    -0.100 A 
ATOM     10  C   LIG    1        4.332  -6.985   1.399  0.00  0.00    +0.060 A 
ATOM     11  C   LIG    1        3.868  -5.710   1.640  0.00  0.00    +0.030 A 
ATOM     12  C   LIG    1        6.014  -8.593   0.471  0.00  0.00    +0.100 C 
ATOM     13  C   LIG    1        4.603  -4.613   1.207  0.00  0.00    +0.070 A 
ATOM     14  O   LIG    1        4.412  -3.282   1.293  0.00  0.00    -0.180 OA
ENDBRANCH   3   5
BRANCH   1  15
ATOM     15  C   LIG    1        4.685   1.089   1.069  0.00  0.00    +0.250 C 
ATOM     16  C   LIG    1        5.540   1.606   2.228  0.00  0.00    +0.030 C 
BRANCH  15  22
ATOM     17  C   LIG    1       -0.014   1.211   0.009  0.00  0.00    +0.650 C 
ATOM     18  N   LIG    1        1.143   1.901   0.001  0.00  0.00    -0.590 N 
ATOM     19  C   LIG    1        1.140   3.370   0.009  0.00  0.00    +0.270 C 
ATOM     20  C   LIG    1        2.010   3.859   1.172  0.00  0.00    +0.020 C 
ATOM     21  C   LIG    1        3.402   3.235   1.059  0.00  0.00    +0.030 C 
ATOM     22  C   LIG    1        3.289   1.711   1.148  0.00  0.00    -0.030 C 
ATOM     23  C   LIG    1        2.434   1.198  -0.009  0.00  0.00    +0.310 C 
ATOM     24  O   LIG    1        0.002  -0.004   0.002  0.00  0.00    -0.570 OA
BRANCH  17  25
ATOM     25  O   LIG    1       -1.189   1.868   0.018  0.00  0.00    -0.370 OA
BRANCH  25  27
ATOM     26  C   LIG    1       -3.622   1.976   0.030  0.00  0.00    +0.070 C 
ATOM     27  C   LIG    1       -2.396   1.061   0.019  0.00  0.00    +0.220 C 
ENDBRANCH  25  27
ENDBRANCH  17  25
ENDBRANCH  15  22
ENDBRANCH   1  15
TORSDOF 5
