REMARK  Name = ZINCpk00000j9jap.0
REMARK                            x       y       z     vdW  Elec       q    Type
REMARK                         _______ _______ _______ _____ _____    ______ ____
ROOT
ATOM      1  C   LIG    1       -1.726  -4.221  -1.381  0.00  0.00    +0.170 C 
ATOM      2  C   LIG    1       -3.088  -4.938  -1.576  0.00  0.00    +0.080 C 
ATOM      3  C   LIG    1       -2.686  -6.263  -2.258  0.00  0.00    +0.250 C 
ATOM      4  N   LIG    1       -1.376  -6.049  -2.891  0.00  0.00    -0.620 N 
ATOM      5  C   LIG    1       -0.672  -6.974  -3.571  0.00  0.00    +0.610 C 
ATOM      6  O   LIG    1        0.407  -6.684  -4.055  0.00  0.00    -0.510 OA
ATOM      7  C   LIG    1       -0.961  -4.654  -2.656  0.00  0.00    +0.270 C 
ENDROOT
BRANCH   5   8
ATOM      8  C   LIG    1       -1.205  -8.331  -3.730  0.00  0.00    -0.030 A 
ATOM      9  C   LIG    1       -0.598  -9.372  -4.402  0.00  0.00    +0.040 A 
ATOM     10  C   LIG    1       -1.449 -10.478  -4.302  0.00  0.00    +0.010 A 
ATOM     11  C   LIG    1       -2.541 -10.100  -3.593  0.00  0.00    +0.190 A 
ATOM     12  F   LIG    1       -1.225 -11.704  -4.824  0.00  0.00    -0.120 F 
ATOM     13  N   LIG    1       -2.404  -8.796  -3.239  0.00  0.00    -0.530 N 
ATOM     14  H   LIG    1       -3.044  -8.279  -2.726  0.00  0.00    +0.420 HD
ENDBRANCH   5   8
BRANCH   1  15
ATOM     15  O   LIG    1       -1.895  -2.803  -1.341  0.00  0.00    -0.290 OA
BRANCH  15  18
ATOM     16  C   LIG    1       -0.080  -0.019   0.138  0.00  0.00    +0.140 A 
ATOM     17  C   LIG    1       -1.077  -0.712  -0.515  0.00  0.00    -0.030 A 
ATOM     18  C   LIG    1       -0.936  -2.085  -0.703  0.00  0.00    +0.170 A 
ATOM     19  C   LIG    1        0.215  -2.703  -0.220  0.00  0.00    -0.110 A 
ATOM     20  C   LIG    1        1.167  -1.938   0.423  0.00  0.00    +0.300 A 
ATOM     21  N   LIG    1        1.000  -0.639   0.577  0.00  0.00    -0.490 NA
BRANCH  16  22
ATOM     22  C   LIG    1       -0.221   1.467   0.348  0.00  0.00    +0.350 C 
BRANCH  22  25
ATOM     23  C   LIG    1       -1.589   3.249   3.447  0.00  0.00    +0.100 C 
ATOM     24  C   LIG    1       -1.006   2.987   2.083  0.00  0.00    +0.510 C 
ATOM     25  N   LIG    1       -0.788   1.721   1.674  0.00  0.00    -0.730 N 
ATOM     26  H   LIG    1       -1.008   0.979   2.258  0.00  0.00    +0.400 HD
ATOM     27  O   LIG    1       -0.732   3.916   1.352  0.00  0.00    -0.540 OA
ENDBRANCH  22  25
ENDBRANCH  16  22
ENDBRANCH  15  18
ENDBRANCH   1  15
TORSDOF 5
