REMARK  Name = ZINCvU0000000HZ0.0
REMARK                            x       y       z     vdW  Elec       q    Type
REMARK                         _______ _______ _______ _____ _____    ______ ____
ROOT
ATOM      1  C   LIG    1       -3.878  -1.595  -0.726  0.00  0.00    +0.190 A 
ATOM      2  N   LIG    1       -4.297  -1.872   0.489  0.00  0.00    -0.280 NA
ATOM      3  N   LIG    1       -5.353  -2.601   0.436  0.00  0.00    -0.250 NA
ATOM      4  C   LIG    1       -5.669  -2.843  -0.816  0.00  0.00    +0.200 A 
ATOM      5  N   LIG    1       -4.733  -2.206  -1.598  0.00  0.00    -0.310 N 
ENDROOT
BRANCH   4   6
ATOM      6  C   LIG    1       -6.813  -3.648  -1.293  0.00  0.00    -0.040 A 
ATOM      7  C   LIG    1       -7.881  -3.922  -0.438  0.00  0.00    +0.120 A 
ATOM      8  C   LIG    1       -8.949  -4.668  -0.889  0.00  0.00    -0.040 A 
ATOM      9  C   LIG    1       -8.958  -5.156  -2.189  0.00  0.00    +0.120 A 
ATOM     10  C   LIG    1       -7.894  -4.890  -3.042  0.00  0.00    +0.030 A 
ATOM     11  C   LIG    1       -6.825  -4.140  -2.600  0.00  0.00    +0.040 A 
BRANCH   9  12
ATOM     12  O   LIG    1      -10.010  -5.896  -2.629  0.00  0.00    -0.320 OA
BRANCH  12  13
ATOM     13  C   LIG    1      -11.070  -6.131  -1.700  0.00  0.00    +0.600 C 
ATOM     14  F   LIG    1      -11.614  -4.909  -1.293  0.00  0.00    -0.200 F 
ATOM     15  F   LIG    1      -10.570  -6.814  -0.585  0.00  0.00    -0.200 F 
ENDBRANCH  12  13
ENDBRANCH   9  12
ENDBRANCH   4   6
BRANCH   5  16
ATOM     16  N   LIG    1       -4.673  -2.189  -2.962  0.00  0.00    -0.590 N 
ATOM     17  H   LIG    1       -5.597  -2.150  -3.365  0.00  0.00    +0.380 HD
ATOM     18  H   LIG    1       -4.159  -2.984  -3.312  0.00  0.00    +0.370 HD
ENDBRANCH   5  16
BRANCH   1  19
ATOM     19  S   LIG    1       -2.470  -0.625  -1.150  0.00  0.00    +0.060 S 
BRANCH  19  20
ATOM     20  C   LIG    1       -1.881  -0.185   0.505  0.00  0.00    +0.200 C 
BRANCH  20  23
ATOM     21  C   LIG    1        0.436   2.613   0.216  0.00  0.00    +0.300 A 
ATOM     22  N   LIG    1       -0.696   1.989   0.315  0.00  0.00    -0.530 NA
ATOM     23  C   LIG    1       -0.646   0.671   0.388  0.00  0.00    +0.110 A 
ATOM     24  C   LIG    1        0.585   0.159   0.348  0.00  0.00    -0.100 A 
ATOM     25  S   LIG    1        1.727   1.492   0.208  0.00  0.00    +0.150 S 
BRANCH  21  26
ATOM     26  N   LIG    1        0.579   3.990   0.130  0.00  0.00    -0.630 N 
ATOM     27  H   LIG    1       -0.204   4.554   0.036  0.00  0.00    +0.420 HD
BRANCH  26  32
ATOM     28  C   LIG    1        5.745   6.324   0.323  0.00  0.00    +0.090 C 
ATOM     29  C   LIG    1        4.372   5.704   0.271  0.00  0.00    -0.100 A 
ATOM     30  C   LIG    1        3.417   6.212  -0.590  0.00  0.00    +0.040 A 
ATOM     31  C   LIG    1        2.159   5.646  -0.640  0.00  0.00    +0.000 A 
ATOM     32  C   LIG    1        1.852   4.565   0.177  0.00  0.00    +0.150 A 
ATOM     33  C   LIG    1        2.812   4.060   1.045  0.00  0.00    -0.020 A 
ATOM     34  C   LIG    1        4.071   4.628   1.086  0.00  0.00    +0.040 A 
ENDBRANCH  26  32
ENDBRANCH  21  26
ENDBRANCH  20  23
ENDBRANCH  19  20
ENDBRANCH   1  19
TORSDOF 9
