REMARK  Name = ZINCrD000000CWBe.0
REMARK                            x       y       z     vdW  Elec       q    Type
REMARK                         _______ _______ _______ _____ _____    ______ ____
ROOT
ATOM      1  N   LIG    1        2.383   4.334   0.031  0.00  0.00    -1.060 N 
ATOM      2  H   LIG    1        3.129   4.073   0.594  0.00  0.00    +0.430 HD
ENDROOT
BRANCH   1   7
ATOM      3  C   LIG    1       -0.488   2.143  -0.648  0.00  0.00    -0.110 A 
ATOM      4  C   LIG    1       -1.300   2.434   0.432  0.00  0.00    +0.050 A 
ATOM      5  C   LIG    1       -0.887   3.348   1.385  0.00  0.00    +0.020 A 
ATOM      6  C   LIG    1        0.333   3.981   1.254  0.00  0.00    +0.030 A 
ATOM      7  C   LIG    1        1.149   3.695   0.167  0.00  0.00    +0.120 A 
ATOM      8  C   LIG    1        0.734   2.773  -0.785  0.00  0.00    +0.050 A 
BRANCH   3   9
ATOM      9  C   LIG    1       -0.939   1.142  -1.680  0.00  0.00    +0.390 C 
BRANCH   9  15
ATOM     10  O   LIG    1       -2.262  -0.823  -0.076  0.00  0.00    -0.520 OA
ATOM     11  C   LIG    1       -1.163  -1.064  -0.536  0.00  0.00    +0.640 C 
ATOM     12  O   LIG    1       -0.524  -2.221  -0.330  0.00  0.00    -0.330 OA
ATOM     13  C   LIG    1        0.762  -2.194  -1.014  0.00  0.00    +0.260 C 
ATOM     14  C   LIG    1        0.798  -0.807  -1.686  0.00  0.00    +0.250 C 
ATOM     15  N   LIG    1       -0.481  -0.196  -1.296  0.00  0.00    -0.630 N 
ENDBRANCH   9  15
ENDBRANCH   3   9
ENDBRANCH   1   7
BRANCH   1  16
ATOM     16  S   LIG    1        2.575   5.537  -1.091  0.00  0.00    +2.690 S 
ATOM     17  O   LIG    1        2.068   5.027  -2.317  0.00  0.00    -0.950 OA
ATOM     18  O   LIG    1        3.903   6.019  -0.940  0.00  0.00    -0.950 OA
BRANCH  16  19
ATOM     19  C   LIG    1        1.509   6.860  -0.624  0.00  0.00    -0.680 A 
ATOM     20  C   LIG    1        0.194   6.874  -1.049  0.00  0.00    +0.120 A 
ATOM     21  C   LIG    1       -0.635   7.913  -0.678  0.00  0.00    -0.010 A 
ATOM     22  C   LIG    1       -0.156   8.950   0.112  0.00  0.00    -0.020 A 
ATOM     23  C   LIG    1       -1.110  10.061   0.464  0.00  0.00    +0.080 C 
ATOM     24  C   LIG    1       -0.587  10.860   1.656  0.00  0.00    +0.020 C 
ATOM     25  C   LIG    1        0.862  11.269   1.365  0.00  0.00    +0.020 C 
ATOM     26  C   LIG    1        1.735  10.017   1.409  0.00  0.00    +0.080 C 
ATOM     27  C   LIG    1        1.154   8.935   0.536  0.00  0.00    -0.100 A 
ATOM     28  C   LIG    1        1.986   7.888   0.163  0.00  0.00    +0.120 A 
ENDBRANCH  16  19
ENDBRANCH   1  16
TORSDOF 5
