REMARK  Name = ZINCpk00000KfLBi.0
REMARK                            x       y       z     vdW  Elec       q    Type
REMARK                         _______ _______ _______ _____ _____    ______ ____
ROOT
ATOM      1  C   LIG    1        3.275   2.071  -0.583  0.00  0.00    +0.220 C 
ATOM      2  C   LIG    1        4.675   1.465  -0.345  0.00  0.00    +0.050 C 
ATOM      3  C   LIG    1        5.627   2.589  -0.833  0.00  0.00    +0.040 C 
ATOM      4  C   LIG    1        4.853   3.860  -0.405  0.00  0.00    +0.270 C 
ATOM      5  N   LIG    1        3.434   3.532  -0.628  0.00  0.00    -0.610 N 
ATOM      6  C   LIG    1        2.445   4.423  -0.839  0.00  0.00    +0.580 C 
ATOM      7  O   LIG    1        2.708   5.602  -0.975  0.00  0.00    -0.510 OA
ENDROOT
BRANCH   6   8
ATOM      8  C   LIG    1        1.040   3.966  -0.905  0.00  0.00    -0.130 A 
ATOM      9  C   LIG    1        0.751   2.622  -1.142  0.00  0.00    +0.070 A 
ATOM     10  C   LIG    1       -0.561   2.198  -1.198  0.00  0.00    +0.050 A 
ATOM     11  C   LIG    1       -1.593   3.103  -1.030  0.00  0.00    +0.050 A 
ATOM     12  C   LIG    1       -1.315   4.444  -0.799  0.00  0.00    +0.120 A 
ATOM     13  C   LIG    1       -0.001   4.879  -0.736  0.00  0.00    +0.110 A 
BRANCH  12  14
ATOM     14  N   LIG    1       -2.365   5.359  -0.630  0.00  0.00    -0.330 N 
ATOM     15  C   LIG    1       -3.691   5.101  -0.662  0.00  0.00    +0.470 A 
ATOM     16  N   LIG    1       -4.312   6.233  -0.458  0.00  0.00    -0.330 NA
ATOM     17  N   LIG    1       -3.470   7.189  -0.298  0.00  0.00    -0.030 NA
ATOM     18  N   LIG    1       -2.264   6.739  -0.383  0.00  0.00    -0.070 NA
ENDBRANCH  12  14
ENDBRANCH   6   8
BRANCH   1  19
ATOM     19  C   LIG    1        2.339   1.684   0.563  0.00  0.00    +0.310 C 
BRANCH  19  23
ATOM     20  C   LIG    1        1.789  -3.162   1.722  0.00  0.00    +0.100 C 
ATOM     21  C   LIG    1        1.778  -1.855   0.971  0.00  0.00    -0.240 A 
ATOM     22  C   LIG    1        2.183  -0.657   1.453  0.00  0.00    +0.230 A 
ATOM     23  N   LIG    1        2.020   0.257   0.473  0.00  0.00    -0.370 N 
ATOM     24  N   LIG    1        1.493  -0.401  -0.646  0.00  0.00    -0.300 NA
ATOM     25  C   LIG    1        1.346  -1.666  -0.345  0.00  0.00    +0.240 A 
ENDBRANCH  19  23
ENDBRANCH   1  19
TORSDOF 4
