REMARK  Name = ZINCrD000000fohA.0
REMARK                            x       y       z     vdW  Elec       q    Type
REMARK                         _______ _______ _______ _____ _____    ______ ____
ROOT
ATOM      1  C   LIG    1        3.565   3.477  -0.116  0.00  0.00    +0.560 C 
ATOM      2  N   LIG    1        3.583   2.133  -0.021  0.00  0.00    -0.660 N 
ATOM      3  H   LIG    1        4.429   1.663   0.049  0.00  0.00    +0.420 HD
ATOM      4  O   LIG    1        2.506   4.073  -0.102  0.00  0.00    -0.500 OA
ENDROOT
BRANCH   1   8
ATOM      5  C   LIG    1        7.209   5.632  -0.460  0.00  0.00    -0.650 A 
ATOM      6  C   LIG    1        6.005   6.313  -0.444  0.00  0.00    +0.130 A 
ATOM      7  C   LIG    1        4.818   5.620  -0.333  0.00  0.00    +0.070 A 
ATOM      8  C   LIG    1        4.833   4.227  -0.235  0.00  0.00    -0.080 A 
ATOM      9  C   LIG    1        6.052   3.546  -0.245  0.00  0.00    +0.030 A 
ATOM     10  C   LIG    1        7.232   4.252  -0.363  0.00  0.00    +0.120 A 
BRANCH   5  11
ATOM     11  S   LIG    1        8.721   6.526  -0.603  0.00  0.00    +2.700 S 
ATOM     12  O   LIG    1        8.398   7.764  -1.220  0.00  0.00    -0.950 OA
ATOM     13  O   LIG    1        9.675   5.617  -1.135  0.00  0.00    -0.950 OA
BRANCH  11  14
ATOM     14  N   LIG    1        9.225   6.886   0.933  0.00  0.00    -1.110 NA
ATOM     15  H   LIG    1        9.268   7.810   1.225  0.00  0.00    +0.420 HD
BRANCH  14  16
ATOM     16  C   LIG    1        9.604   5.809   1.851  0.00  0.00    +0.300 C 
BRANCH  16  18
ATOM     17  C   LIG    1        9.950   6.155   4.243  0.00  0.00    +0.050 C 
ATOM     18  C   LIG    1       10.358   6.388   3.020  0.00  0.00    -0.050 C 
ENDBRANCH  16  18
ENDBRANCH  14  16
ENDBRANCH  11  14
ENDBRANCH   5  11
ENDBRANCH   1   8
BRANCH   2  19
ATOM     19  C   LIG    1        2.381   1.414  -0.025  0.00  0.00    +0.150 A 
ATOM     20  C   LIG    1        1.250   1.954  -0.619  0.00  0.00    +0.060 A 
ATOM     21  C   LIG    1        0.065   1.243  -0.621  0.00  0.00    +0.030 A 
ATOM     22  C   LIG    1        0.003  -0.006  -0.032  0.00  0.00    +0.050 A 
ATOM     23  C   LIG    1        1.127  -0.551   0.562  0.00  0.00    -0.030 A 
ATOM     24  C   LIG    1        2.319   0.155   0.568  0.00  0.00    +0.070 A 
BRANCH  24  25
ATOM     25  O   LIG    1        3.425  -0.380   1.151  0.00  0.00    -0.320 OA
BRANCH  25  26
ATOM     26  C   LIG    1        3.286  -1.675   1.739  0.00  0.00    +0.610 C 
ATOM     27  F   LIG    1        2.316  -1.629   2.745  0.00  0.00    -0.160 F 
ATOM     28  F   LIG    1        4.510  -2.071   2.289  0.00  0.00    -0.130 F 
ATOM     29  F   LIG    1        2.897  -2.593   0.758  0.00  0.00    -0.160 F 
ENDBRANCH  25  26
ENDBRANCH  24  25
ENDBRANCH   2  19
TORSDOF 8
