REMARK  Name = ZINCpe000000WCrc.1
REMARK                            x       y       z     vdW  Elec       q    Type
REMARK                         _______ _______ _______ _____ _____    ______ ____
ROOT
ATOM      1  C   LIG    1        3.366   1.018   7.328  0.00  0.00    +0.570 C 
ATOM      2  N   LIG    1        2.021   1.110   7.334  0.00  0.00    -0.730 N 
ATOM      3  H   LIG    1        1.552   1.298   8.162  0.00  0.00    +0.400 HD
ATOM      4  O   LIG    1        3.955   0.783   6.290  0.00  0.00    -0.510 OA
ENDROOT
BRANCH   1  11
ATOM      5  C   LIG    1        5.523   1.103   8.590  0.00  0.00    +0.380 A 
ATOM      6  N   LIG    1        6.198   1.274   9.714  0.00  0.00    -0.550 NA
ATOM      7  C   LIG    1        5.592   1.531  10.857  0.00  0.00    +0.200 A 
ATOM      8  C   LIG    1        4.215   1.638  10.929  0.00  0.00    -0.070 A 
ATOM      9  C   LIG    1        3.458   1.473   9.782  0.00  0.00    +0.140 A 
ATOM     10  C   LIG    1        6.414   1.710  12.107  0.00  0.00    +0.140 C 
ATOM     11  C   LIG    1        4.123   1.202   8.581  0.00  0.00    -0.220 A 
BRANCH   5  13
ATOM     12  C   LIG    1        7.611   0.748   7.518  0.00  0.00    +0.250 C 
ATOM     13  O   LIG    1        6.186   0.836   7.440  0.00  0.00    -0.270 OA
ENDBRANCH   5  13
ENDBRANCH   1  11
BRANCH   2  14
ATOM     14  C   LIG    1        1.269   0.927   6.090  0.00  0.00    +0.240 C 
ATOM     15  C   LIG    1       -0.153   0.463   6.415  0.00  0.00    +0.040 C 
ATOM     16  C   LIG    1       -0.952   0.333   5.117  0.00  0.00    +0.190 C 
ATOM     17  N   LIG    1       -0.986   1.630   4.429  0.00  0.00    -0.520 NA
ATOM     18  C   LIG    1        0.365   2.074   4.064  0.00  0.00    +0.180 C 
ATOM     19  C   LIG    1        1.203   2.256   5.332  0.00  0.00    +0.030 C 
BRANCH  17  20
ATOM     20  C   LIG    1       -1.860   1.577   3.249  0.00  0.00    +0.130 C 
ATOM     21  C   LIG    1       -3.333   1.378   3.675  0.00  0.00    +0.060 C 
ATOM     22  C   LIG    1       -3.841   2.838   3.736  0.00  0.00    +0.270 C 
ATOM     23  N   LIG    1       -2.982   3.588   2.813  0.00  0.00    -0.620 N 
ATOM     24  C   LIG    1       -3.305   4.912   2.275  0.00  0.00    +0.290 C 
ATOM     25  C   LIG    1       -1.858   2.908   2.530  0.00  0.00    +0.530 C 
ATOM     26  O   LIG    1       -0.972   3.303   1.802  0.00  0.00    -0.530 OA
ENDBRANCH  17  20
ENDBRANCH   2  14
TORSDOF 4
