REMARK  Name = ZINCqH0000050j6P.0
REMARK                            x       y       z     vdW  Elec       q    Type
REMARK                         _______ _______ _______ _____ _____    ______ ____
ROOT
ATOM      1  C   LIG    1       -0.030   1.134  -2.471  0.00  0.00    +0.520 C 
ATOM      2  N   LIG    1       -0.512   1.452  -3.690  0.00  0.00    -0.720 N 
ATOM      3  H   LIG    1       -1.312   1.995  -3.768  0.00  0.00    +0.410 HD
ATOM      4  O   LIG    1        0.969   0.455  -2.373  0.00  0.00    -0.540 OA
ENDROOT
BRANCH   1   5
ATOM      5  C   LIG    1       -0.734   1.625  -1.232  0.00  0.00    +0.070 C 
BRANCH   5   6
ATOM      6  C   LIG    1        0.013   1.128   0.008  0.00  0.00    +0.070 C 
BRANCH   6   7
ATOM      7  C   LIG    1       -0.690   1.618   1.247  0.00  0.00    +0.400 C 
ATOM      8  O   LIG    1       -1.690   2.298   1.149  0.00  0.00    -0.450 OA
BRANCH   7  13
ATOM      9  C   LIG    1        1.364   0.263   6.443  0.00  0.00    +0.090 C 
ATOM     10  C   LIG    1        0.826   0.619   5.081  0.00  0.00    -0.050 A 
ATOM     11  C   LIG    1        1.474   0.166   3.945  0.00  0.00    +0.000 A 
ATOM     12  C   LIG    1        0.985   0.483   2.695  0.00  0.00    +0.060 A 
ATOM     13  C   LIG    1       -0.164   1.272   2.577  0.00  0.00    -0.180 A 
ATOM     14  C   LIG    1       -0.814   1.725   3.730  0.00  0.00    +0.070 A 
ATOM     15  C   LIG    1       -0.315   1.396   4.973  0.00  0.00    -0.100 A 
ATOM     16  C   LIG    1       -1.013   1.883   6.216  0.00  0.00    +0.090 C 
ENDBRANCH   7  13
ENDBRANCH   6   7
ENDBRANCH   5   6
ENDBRANCH   1   5
BRANCH   2  17
ATOM     17  C   LIG    1        0.171   0.975  -4.894  0.00  0.00    +0.320 C 
BRANCH  17  18
ATOM     18  C   LIG    1       -0.564   1.464  -6.116  0.00  0.00    +0.510 C 
ATOM     19  N   LIG    1       -0.114   1.147  -7.346  0.00  0.00    -0.670 N 
ATOM     20  H   LIG    1        0.718   0.658  -7.446  0.00  0.00    +0.420 HD
ATOM     21  O   LIG    1       -1.561   2.144  -5.992  0.00  0.00    -0.510 OA
BRANCH  19  22
ATOM     22  C   LIG    1       -0.847   1.521  -8.478  0.00  0.00    +0.170 A 
ATOM     23  C   LIG    1       -1.548   2.719  -8.488  0.00  0.00    +0.030 A 
ATOM     24  C   LIG    1       -2.271   3.086  -9.606  0.00  0.00    +0.060 A 
ATOM     25  C   LIG    1       -2.297   2.260 -10.715  0.00  0.00    +0.010 A 
ATOM     26  C   LIG    1       -1.601   1.066 -10.709  0.00  0.00    +0.070 A 
ATOM     27  C   LIG    1       -0.871   0.696  -9.596  0.00  0.00    -0.120 A 
ATOM     28 BR   LIG    1        0.088  -0.934  -9.591  0.00  0.00    -0.040 Br
ENDBRANCH  19  22
ENDBRANCH  17  18
ENDBRANCH   2  17
TORSDOF 7
