REMARK  Name = ZINCvU0000000EQc.0
REMARK                            x       y       z     vdW  Elec       q    Type
REMARK                         _______ _______ _______ _____ _____    ______ ____
ROOT
ATOM      1  C   LIG    1       -0.318   8.091  -1.766  0.00  0.00    +0.500 A 
ATOM      2  N   LIG    1       -0.690   9.326  -1.544  0.00  0.00    -0.470 NA
ATOM      3  C   LIG    1       -1.796   9.334  -0.755  0.00  0.00    +0.060 A 
ATOM      4  C   LIG    1       -2.589  10.354  -0.224  0.00  0.00    +0.060 A 
ATOM      5  C   LIG    1       -3.675  10.037   0.562  0.00  0.00    +0.010 A 
ATOM      6  C   LIG    1       -3.987   8.713   0.830  0.00  0.00    +0.020 A 
ATOM      7  C   LIG    1       -3.214   7.693   0.313  0.00  0.00    +0.010 A 
ATOM      8  C   LIG    1       -2.120   7.994  -0.484  0.00  0.00    +0.050 A 
ATOM      9  N   LIG    1       -1.165   7.229  -1.132  0.00  0.00    -0.500 N 
ENDROOT
BRANCH   1  12
ATOM     10  O   LIG    1        1.280   9.834  -2.967  0.00  0.00    -0.450 OA
ATOM     11  C   LIG    1        1.543   8.655  -3.114  0.00  0.00    +0.600 C 
ATOM     12  N   LIG    1        0.772   7.715  -2.531  0.00  0.00    -0.630 N 
ATOM     13  H   LIG    1        0.982   6.776  -2.648  0.00  0.00    +0.420 HD
BRANCH  11  14
ATOM     14  C   LIG    1        2.702   8.256  -3.928  0.00  0.00    +0.020 A 
ATOM     15  C   LIG    1        3.505   9.156  -4.538  0.00  0.00    -0.010 A 
ATOM     16  S   LIG    1        4.738   8.327  -5.383  0.00  0.00    +0.240 S 
ATOM     17  C   LIG    1        4.082   6.780  -4.862  0.00  0.00    +0.110 A 
ATOM     18  N   LIG    1        3.033   6.985  -4.120  0.00  0.00    -0.440 NA
BRANCH  17  19
ATOM     19  C   LIG    1        4.633   5.461  -5.210  0.00  0.00    -0.130 A 
ATOM     20  C   LIG    1        5.723   5.250  -5.980  0.00  0.00    +0.060 A 
ATOM     21  C   LIG    1        6.048   3.924  -6.167  0.00  0.00    +0.040 A 
ATOM     22  C   LIG    1        5.237   3.050  -5.557  0.00  0.00    -0.150 A 
ATOM     23 CL   LIG    1        5.404   1.324  -5.616  0.00  0.00    -0.000 Cl
ATOM     24  S   LIG    1        3.981   3.916  -4.681  0.00  0.00    +0.240 S 
ENDBRANCH  17  19
ENDBRANCH  11  14
ENDBRANCH   1  12
BRANCH   9  25
ATOM     25  C   LIG    1       -1.083   5.766  -1.140  0.00  0.00    +0.320 C 
BRANCH  25  26
ATOM     26  C   LIG    1       -0.217   5.298   0.031  0.00  0.00    +0.080 C 
BRANCH  26  27
ATOM     27  C   LIG    1       -0.132   3.793   0.023  0.00  0.00    +0.130 A 
ATOM     28  C   LIG    1        1.106   3.179   0.008  0.00  0.00    -0.020 A 
ATOM     29  C   LIG    1        1.173   1.794   0.001  0.00  0.00    +0.070 A 
ATOM     30  C   LIG    1       -0.013   1.076   0.008  0.00  0.00    -0.030 A 
ATOM     31  C   LIG    1       -1.214   1.759   0.017  0.00  0.00    +0.270 A 
ATOM     32  N   LIG    1       -1.240   3.078   0.030  0.00  0.00    -0.480 NA
ENDBRANCH  26  27
ENDBRANCH  25  26
ENDBRANCH   9  25
TORSDOF 6
