REMARK  Name = ZINCpe000000TrD8.0
REMARK                            x       y       z     vdW  Elec       q    Type
REMARK                         _______ _______ _______ _____ _____    ______ ____
ROOT
ATOM      1  N   LIG    1       -4.123   6.634   1.728  0.00  0.00    -0.590 N 
ATOM      2  C   LIG    1       -3.567   5.434   1.472  0.00  0.00    +0.510 C 
ATOM      3  O   LIG    1       -3.231   4.713   2.388  0.00  0.00    -0.510 OA
ENDROOT
BRANCH   1   5
ATOM      4  C   LIG    1       -5.979   7.201   0.240  0.00  0.00    +0.020 C 
ATOM      5  C   LIG    1       -4.529   7.505   0.622  0.00  0.00    +0.270 C 
ENDBRANCH   1   5
BRANCH   2   6
ATOM      6  C   LIG    1       -3.363   4.986   0.047  0.00  0.00    +0.410 C 
BRANCH   6   7
ATOM      7  N   LIG    1       -2.747   3.657   0.036  0.00  0.00    -0.130 N 
ATOM      8  N   LIG    1       -3.386   2.540   0.033  0.00  0.00    -0.040 NA
ATOM      9  N   LIG    1       -2.536   1.571   0.023  0.00  0.00    -0.260 NA
ATOM     10  C   LIG    1       -1.311   2.116   0.020  0.00  0.00    +0.210 A 
ATOM     11  N   LIG    1       -1.480   3.423   0.033  0.00  0.00    -0.280 NA
BRANCH  10  12
ATOM     12  C   LIG    1       -0.017   1.389   0.010  0.00  0.00    +0.020 A 
ATOM     13  C   LIG    1        0.002  -0.004   0.002  0.00  0.00    +0.050 A 
ATOM     14  C   LIG    1        1.208  -0.677  -0.013  0.00  0.00    +0.050 A 
ATOM     15  C   LIG    1        2.396   0.029  -0.021  0.00  0.00    +0.000 A 
ATOM     16  C   LIG    1        2.385   1.415  -0.014  0.00  0.00    +0.100 A 
ATOM     17  F   LIG    1        3.549   2.100  -0.022  0.00  0.00    -0.130 F 
ATOM     18  C   LIG    1        1.182   2.097   0.002  0.00  0.00    +0.030 A 
ENDBRANCH  10  12
ENDBRANCH   6   7
ENDBRANCH   2   6
BRANCH   1  19
ATOM     19  C   LIG    1       -4.321   7.069   3.113  0.00  0.00    +0.340 C 
BRANCH  19  20
ATOM     20  C   LIG    1       -3.100   7.816   3.585  0.00  0.00    +0.500 C 
ATOM     21  N   LIG    1       -3.056   8.312   4.837  0.00  0.00    -0.730 N 
ATOM     22  H   LIG    1       -3.810   8.189   5.434  0.00  0.00    +0.400 HD
ATOM     23  O   LIG    1       -2.157   7.969   2.838  0.00  0.00    -0.530 OA
BRANCH  21  24
ATOM     24  C   LIG    1       -1.869   9.038   5.295  0.00  0.00    +0.230 C 
ATOM     25  C   LIG    1       -0.830   8.041   5.812  0.00  0.00    +0.020 C 
ATOM     26  C   LIG    1       -2.261   9.996   6.422  0.00  0.00    +0.030 C 
ENDBRANCH  21  24
ENDBRANCH  19  20
ENDBRANCH   1  19
TORSDOF 7
