REMARK  Name = ZINCvU0000000CSv.0
REMARK                            x       y       z     vdW  Elec       q    Type
REMARK                         _______ _______ _______ _____ _____    ______ ____
ROOT
ATOM      1  N   LIG    1        2.493   3.665   1.485  0.00  0.00    -0.540 NA
ENDROOT
BRANCH   1   3
ATOM      2  C   LIG    1        1.385   4.470   3.515  0.00  0.00    +0.060 C 
ATOM      3  C   LIG    1        1.200   3.754   2.175  0.00  0.00    +0.180 C 
ATOM      4  C   LIG    1        0.213   4.541   1.309  0.00  0.00    +0.010 C 
ENDBRANCH   1   3
BRANCH   1   5
ATOM      5  C   LIG    1        2.968   4.995   1.081  0.00  0.00    +0.530 C 
BRANCH   5   6
ATOM      6  N   LIG    1        4.432   4.998   1.036  0.00  0.00    -0.330 N 
ATOM      7  N   LIG    1        5.123   4.388   0.013  0.00  0.00    -0.320 NA
ATOM      8  C   LIG    1        6.420   4.428   0.033  0.00  0.00    +0.330 A 
ATOM      9  S   LIG    1        6.850   5.333   1.496  0.00  0.00    +0.100 S 
ATOM     10  C   LIG    1        5.167   5.603   1.988  0.00  0.00    +0.240 A 
ATOM     11  S   LIG    1        4.603   6.444   3.369  0.00  0.00    -0.420 S 
BRANCH   8  12
ATOM     12  N   LIG    1        7.289   3.878  -0.899  0.00  0.00    -0.610 N 
ATOM     13  H   LIG    1        6.941   3.474  -1.709  0.00  0.00    +0.430 HD
BRANCH  12  14
ATOM     14  C   LIG    1        8.668   3.906  -0.670  0.00  0.00    +0.160 A 
ATOM     15  C   LIG    1        9.164   3.729   0.615  0.00  0.00    +0.000 A 
ATOM     16  C   LIG    1       10.527   3.753   0.837  0.00  0.00    +0.060 A 
ATOM     17  C   LIG    1       11.398   3.963  -0.216  0.00  0.00    +0.030 A 
ATOM     18  C   LIG    1       10.908   4.145  -1.497  0.00  0.00    +0.070 A 
ATOM     19  C   LIG    1        9.546   4.118  -1.727  0.00  0.00    -0.060 A 
ATOM     20 CL   LIG    1        8.932   4.346  -3.335  0.00  0.00    -0.050 Cl
ENDBRANCH  12  14
ENDBRANCH   8  12
ENDBRANCH   5   6
ENDBRANCH   1   5
BRANCH   1  21
ATOM     21  C   LIG    1        2.412   2.762   0.329  0.00  0.00    +0.360 C 
BRANCH  21  22
ATOM     22  C   LIG    1        2.163   1.355   0.807  0.00  0.00    +0.170 A 
ATOM     23  N   LIG    1        0.998   0.801   0.996  0.00  0.00    -0.270 NA
ATOM     24  N   LIG    1        1.158  -0.408   1.407  0.00  0.00    -0.270 NA
ATOM     25  C   LIG    1        2.441  -0.668   1.496  0.00  0.00    +0.210 A 
ATOM     26  O   LIG    1        3.102   0.444   1.117  0.00  0.00    -0.210 OA
BRANCH  25  27
ATOM     27  C   LIG    1        3.049  -1.944   1.930  0.00  0.00    -0.030 A 
ATOM     28  C   LIG    1        4.437  -2.081   1.970  0.00  0.00    +0.050 A 
ATOM     29  C   LIG    1        4.998  -3.273   2.380  0.00  0.00    +0.010 A 
ATOM     30  C   LIG    1        4.187  -4.335   2.742  0.00  0.00    +0.040 A 
ATOM     31  C   LIG    1        2.810  -4.207   2.699  0.00  0.00    +0.020 A 
ATOM     32  C   LIG    1        2.237  -3.019   2.295  0.00  0.00    +0.070 A 
ENDBRANCH  25  27
ENDBRANCH  21  22
ENDBRANCH   1  21
TORSDOF 8
