REMARK  Name = ZINCkj000005lQWb.1
REMARK                            x       y       z     vdW  Elec       q    Type
REMARK                         _______ _______ _______ _____ _____    ______ ____
ROOT
ATOM      1  O   LIG    1       -4.753  -0.363   0.725  0.00  0.00    -0.580 OA
ATOM      2  C   LIG    1       -4.070   0.036   1.648  0.00  0.00    +0.710 C 
ATOM      3  N   LIG    1       -4.450  -0.201   2.919  0.00  0.00    -0.750 N 
ATOM      4  H   LIG    1       -3.905   0.117   3.656  0.00  0.00    +0.400 HD
ATOM      5  N   LIG    1       -2.932   0.715   1.401  0.00  0.00    -0.740 N 
ATOM      6  H   LIG    1       -2.387   1.033   2.137  0.00  0.00    +0.400 HD
ENDROOT
BRANCH   3   7
ATOM      7  C   LIG    1       -5.687  -0.939   3.188  0.00  0.00    +0.310 C 
BRANCH   7   8
ATOM      8  C   LIG    1       -5.884  -1.069   4.700  0.00  0.00    -0.010 C 
ATOM      9  C   LIG    1       -6.201   0.312   5.333  0.00  0.00    +0.080 C 
ATOM     10  C   LIG    1       -7.000  -0.102   6.596  0.00  0.00    +0.250 C 
ATOM     11  N   LIG    1       -7.808  -1.265   6.172  0.00  0.00    -0.360 N 
ATOM     12  H   LIG    1       -8.732  -0.959   5.909  0.00  0.00    +0.420 HD
ATOM     13  C   LIG    1       -7.147  -1.899   5.016  0.00  0.00    +0.280 C 
BRANCH  11  14
ATOM     14  C   LIG    1       -7.901  -2.228   7.277  0.00  0.00    +0.100 C 
ATOM     15  C   LIG    1       -9.293  -2.736   7.656  0.00  0.00    +0.100 C 
ATOM     16  C   LIG    1       -8.560  -1.754   8.573  0.00  0.00    +0.090 C 
ENDBRANCH  11  14
ENDBRANCH   7   8
ENDBRANCH   3   7
BRANCH   5  17
ATOM     17  C   LIG    1       -2.519   0.972   0.019  0.00  0.00    +0.350 C 
BRANCH  17  18
ATOM     18  C   LIG    1       -1.223   1.743   0.017  0.00  0.00    -0.170 A 
ATOM     19  C   LIG    1       -1.231   3.129   0.031  0.00  0.00    +0.090 A 
ATOM     20  C   LIG    1       -0.015   3.796   0.023  0.00  0.00    -0.030 A 
ATOM     21  C   LIG    1        1.155   3.062   0.007  0.00  0.00    +0.270 A 
ATOM     22  N   LIG    1        1.125   1.743   0.001  0.00  0.00    -0.480 NA
ATOM     23  C   LIG    1       -0.013   1.076   0.008  0.00  0.00    +0.280 A 
ENDBRANCH  17  18
ENDBRANCH   5  17
TORSDOF 5
