REMARK  Name = ZINCvU0000000I3N.0
REMARK                            x       y       z     vdW  Elec       q    Type
REMARK                         _______ _______ _______ _____ _____    ______ ____
ROOT
ATOM      1  C   LIG    1        6.684  -1.420   5.425  0.00  0.00    +0.250 C 
ATOM      2  C   LIG    1        7.621  -2.579   5.037  0.00  0.00    +0.020 C 
ATOM      3  C   LIG    1        8.791  -1.589   5.210  0.00  0.00    +0.260 C 
ATOM      4  C   LIG    1        7.879  -0.809   6.157  0.00  0.00    -0.120 C 
ATOM      5  C   LIG    1        8.024  -0.933   7.675  0.00  0.00    +0.050 C 
ATOM      6  C   LIG    1        8.779   0.407   7.625  0.00  0.00    +0.010 C 
ATOM      7  C   LIG    1        8.017   0.705   6.321  0.00  0.00    +0.040 C 
ENDROOT
BRANCH   1   9
ATOM      8  C   LIG    1        4.959  -0.751   3.840  0.00  0.00    +0.530 C 
ATOM      9  N   LIG    1        6.226  -0.626   4.282  0.00  0.00    -0.710 N 
ATOM     10  H   LIG    1        6.834  -0.010   3.845  0.00  0.00    +0.400 HD
ATOM     11  O   LIG    1        4.173  -1.452   4.441  0.00  0.00    -0.530 OA
BRANCH   8  12
ATOM     12  C   LIG    1        4.520  -0.019   2.597  0.00  0.00    -0.010 C 
BRANCH  12  14
ATOM     13  C   LIG    1        3.520   1.707   4.102  0.00  0.00    +0.010 C 
ATOM     14  C   LIG    1        4.430   1.479   2.893  0.00  0.00    +0.020 C 
ENDBRANCH  12  14
BRANCH  12  15
ATOM     15  C   LIG    1        3.148  -0.536   2.160  0.00  0.00    +0.050 C 
BRANCH  15  16
ATOM     16  C   LIG    1        2.755   0.119   0.834  0.00  0.00    -0.020 C 
ATOM     17  C   LIG    1        3.726  -0.325  -0.262  0.00  0.00    +0.000 C 
ATOM     18  C   LIG    1        3.334   0.331  -1.587  0.00  0.00    +0.000 C 
ATOM     19  C   LIG    1        1.912  -0.092  -1.964  0.00  0.00    +0.000 C 
ATOM     20  C   LIG    1        0.941   0.352  -0.868  0.00  0.00    +0.000 C 
ATOM     21  C   LIG    1        1.334  -0.303   0.458  0.00  0.00    +0.010 C 
ENDBRANCH  15  16
ENDBRANCH  12  15
ENDBRANCH   8  12
ENDBRANCH   1   9
BRANCH   3  22
ATOM     22  N   LIG    1        9.962  -2.173   5.868  0.00  0.00    -0.700 N 
ATOM     23  H   LIG    1        9.936  -2.371   6.817  0.00  0.00    +0.410 HD
BRANCH  22  24
ATOM     24  C   LIG    1       11.111  -2.442   5.133  0.00  0.00    +0.430 A 
ATOM     25  C   LIG    1       11.142  -2.155   3.773  0.00  0.00    -0.100 A 
ATOM     26  C   LIG    1       12.291  -2.428   3.053  0.00  0.00    +0.170 A 
ATOM     27  C   LIG    1       13.376  -2.981   3.722  0.00  0.00    -0.300 A 
ATOM     28  C   LIG    1       13.276  -3.240   5.074  0.00  0.00    +0.380 A 
ATOM     29  N   LIG    1       12.168  -2.965   5.736  0.00  0.00    -0.540 NA
BRANCH  27  30
ATOM     30  C   LIG    1       14.649  -3.294   2.978  0.00  0.00    +0.520 C 
ATOM     31  F   LIG    1       14.347  -3.608   1.649  0.00  0.00    -0.180 F 
ATOM     32  F   LIG    1       15.285  -4.384   3.582  0.00  0.00    -0.180 F 
ATOM     33  F   LIG    1       15.496  -2.181   3.014  0.00  0.00    -0.180 F 
ENDBRANCH  27  30
ENDBRANCH  22  24
ENDBRANCH   3  22
TORSDOF 8
