REMARK  Name = ZINCpk00000KfL8o.0
REMARK                            x       y       z     vdW  Elec       q    Type
REMARK                         _______ _______ _______ _____ _____    ______ ____
ROOT
ATOM      1  C   LIG    1       -1.234   3.034   0.030  0.00  0.00    +0.320 A 
ATOM      2  C   LIG    1       -0.073   3.800   0.023  0.00  0.00    -0.050 A 
ATOM      3  C   LIG    1        1.154   3.162   0.008  0.00  0.00    +0.110 A 
ATOM      4  C   LIG    1        1.179   1.774   0.000  0.00  0.00    -0.190 A 
ATOM      5  C   LIG    1       -0.013   1.076   0.008  0.00  0.00    +0.310 A 
ATOM      6  N   LIG    1       -1.169   1.711   0.017  0.00  0.00    -0.520 NA
ENDROOT
BRANCH   1  10
ATOM      7  C   LIG    1       -6.048   2.392   0.052  0.00  0.00    +0.060 C 
ATOM      8  C   LIG    1       -4.907   3.408   0.127  0.00  0.00    +0.160 C 
ATOM      9  C   LIG    1       -3.564   2.676   0.050  0.00  0.00    +0.200 C 
ATOM     10  N   LIG    1       -2.474   3.662   0.045  0.00  0.00    -0.480 N 
ATOM     11  C   LIG    1       -2.611   4.584  -1.092  0.00  0.00    +0.180 C 
ATOM     12  C   LIG    1       -3.963   5.297  -1.004  0.00  0.00    +0.160 C 
ATOM     13  C   LIG    1       -4.146   6.199  -2.226  0.00  0.00    +0.050 C 
ATOM     14  O   LIG    1       -5.009   4.322  -0.969  0.00  0.00    -0.380 OA
ENDBRANCH   1  10
BRANCH   4  15
ATOM     15  C   LIG    1        2.493   1.036  -0.017  0.00  0.00    +0.350 C 
BRANCH  15  16
ATOM     16  N   LIG    1        2.905   0.804  -1.403  0.00  0.00    -0.740 N 
ATOM     17  H   LIG    1        2.348   1.117  -2.133  0.00  0.00    +0.400 HD
ATOM     18  C   LIG    1        4.058   0.157  -1.665  0.00  0.00    +0.710 C 
ATOM     19  N   LIG    1        4.437  -0.055  -2.940  0.00  0.00    -0.740 N 
ATOM     20  H   LIG    1        3.881   0.257  -3.670  0.00  0.00    +0.400 HD
ATOM     21  O   LIG    1        4.756  -0.235  -0.749  0.00  0.00    -0.590 OA
BRANCH  19  22
ATOM     22  C   LIG    1        5.691  -0.759  -3.224  0.00  0.00    +0.390 C 
BRANCH  22  23
ATOM     23  C   LIG    1        5.880  -0.865  -4.715  0.00  0.00    +0.050 A 
ATOM     24  N   LIG    1        5.385  -1.798  -5.487  0.00  0.00    -0.270 NA
ATOM     25  N   LIG    1        5.788  -1.537  -6.803  0.00  0.00    -0.470 N 
ATOM     26  H   LIG    1        5.564  -2.067  -7.584  0.00  0.00    +0.440 HD
ATOM     27  C   LIG    1        6.548  -0.422  -6.791  0.00  0.00    +0.240 A 
ATOM     28  C   LIG    1        6.621   0.013  -5.512  0.00  0.00    -0.110 A 
ENDBRANCH  22  23
ENDBRANCH  19  22
ENDBRANCH  15  16
ENDBRANCH   4  15
TORSDOF 5
