REMARK  Name = ZINCrD00000758ot.0
REMARK                            x       y       z     vdW  Elec       q    Type
REMARK                         _______ _______ _______ _____ _____    ______ ____
ROOT
ATOM      1  C   LIG    1        3.980  -7.183  -4.065  0.00  0.00    +0.400 C 
ATOM      2  O   LIG    1        4.937  -6.551  -3.671  0.00  0.00    -0.420 OA
ENDROOT
BRANCH   1   3
ATOM      3  C   LIG    1        4.181  -8.402  -4.862  0.00  0.00    -0.160 A 
ATOM      4  C   LIG    1        3.078  -9.136  -5.314  0.00  0.00    +0.070 A 
ATOM      5  C   LIG    1        3.271 -10.272  -6.064  0.00  0.00    +0.020 A 
ATOM      6  C   LIG    1        4.567 -10.702  -6.367  0.00  0.00    -0.020 A 
ATOM      7  C   LIG    1        5.661  -9.967  -5.909  0.00  0.00    -0.100 A 
ATOM      8  C   LIG    1        6.910 -10.667  -6.387  0.00  0.00    +0.170 C 
ATOM      9  C   LIG    1        6.441 -11.873  -7.163  0.00  0.00    -0.080 A 
ATOM     10  C   LIG    1        7.124 -12.870  -7.825  0.00  0.00    +0.030 A 
ATOM     11  C   LIG    1        6.427 -13.878  -8.469  0.00  0.00    +0.030 A 
ATOM     12  C   LIG    1        5.044 -13.888  -8.449  0.00  0.00    +0.010 A 
ATOM     13  C   LIG    1        4.352 -12.894  -7.789  0.00  0.00    +0.040 A 
ATOM     14  C   LIG    1        5.048 -11.873  -7.138  0.00  0.00    -0.070 A 
ATOM     15  C   LIG    1        5.477  -8.835  -5.169  0.00  0.00    +0.100 A 
ENDBRANCH   1   3
BRANCH   1  16
ATOM     16  C   LIG    1        2.584  -6.719  -3.737  0.00  0.00    +0.240 C 
BRANCH  16  17
ATOM     17  O   LIG    1        2.652  -5.503  -2.946  0.00  0.00    -0.340 OA
BRANCH  17  18
ATOM     18  C   LIG    1        1.485  -4.957  -2.568  0.00  0.00    +0.470 C 
ATOM     19  O   LIG    1        0.443  -5.477  -2.888  0.00  0.00    -0.500 OA
BRANCH  18  20
ATOM     20  C   LIG    1        1.477  -3.694  -1.746  0.00  0.00    +0.130 C 
BRANCH  20  21
ATOM     21  C   LIG    1        0.031  -3.286  -1.453  0.00  0.00    +0.220 C 
BRANCH  21  26
ATOM     22  C   LIG    1       -0.018   1.503   0.010  0.00  0.00    +0.200 C 
ATOM     23  C   LIG    1        0.002  -0.004   0.002  0.00  0.00    +0.170 A 
ATOM     24  N   LIG    1        0.022  -0.779   1.045  0.00  0.00    -0.380 NA
ATOM     25  O   LIG    1        0.034  -1.943   0.704  0.00  0.00    +0.080 OA
ATOM     26  C   LIG    1        0.023  -2.023  -0.630  0.00  0.00    +0.180 A 
ATOM     27  N   LIG    1       -0.003  -0.794  -1.086  0.00  0.00    -0.480 NA
ENDBRANCH  21  26
ENDBRANCH  20  21
ENDBRANCH  18  20
ENDBRANCH  17  18
ENDBRANCH  16  17
ENDBRANCH   1  16
TORSDOF 7
