REMARK  Name = ZINCpe0000158P6w.0
REMARK                            x       y       z     vdW  Elec       q    Type
REMARK                         _______ _______ _______ _____ _____    ______ ____
ROOT
ATOM      1  O   LIG    1       -0.624  -6.309   7.895  0.00  0.00    -0.520 OA
ATOM      2  C   LIG    1       -1.673  -5.766   7.604  0.00  0.00    +0.510 C 
ATOM      3  C   LIG    1       -2.213  -5.862   6.189  0.00  0.00    +0.050 C 
ATOM      4  C   LIG    1       -1.189  -5.083   5.310  0.00  0.00    +0.040 C 
ATOM      5  C   LIG    1       -1.934  -3.993   4.547  0.00  0.00    +0.290 C 
ATOM      6  N   LIG    1       -2.193  -2.822   5.366  0.00  0.00    -0.980 NA
ATOM      7  S   LIG    1       -3.718  -2.619   6.037  0.00  0.00    +2.610 S 
ATOM      8  C   LIG    1       -3.409  -2.889   7.785  0.00  0.00    -0.390 C 
ATOM      9  C   LIG    1       -3.517  -4.323   8.220  0.00  0.00    +0.300 C 
ATOM     10  O   LIG    1       -4.490  -3.662   5.477  0.00  0.00    -0.950 OA
ATOM     11  O   LIG    1       -4.030  -1.256   5.789  0.00  0.00    -0.940 OA
ATOM     12  N   LIG    1       -2.355  -5.049   8.583  0.00  0.00    -0.730 N 
ATOM     13  H   LIG    1       -2.013  -5.062   9.500  0.00  0.00    +0.410 HD
ENDROOT
BRANCH   6  14
ATOM     14  C   LIG    1       -1.147  -1.825   5.604  0.00  0.00    +0.340 C 
BRANCH  14  15
ATOM     15  C   LIG    1       -1.109  -0.854   4.452  0.00  0.00    -0.150 A 
ATOM     16  C   LIG    1       -1.790   0.346   4.539  0.00  0.00    +0.090 A 
ATOM     17  C   LIG    1       -1.757   1.239   3.485  0.00  0.00    -0.020 A 
ATOM     18  C   LIG    1       -1.038   0.930   2.339  0.00  0.00    +0.130 A 
ATOM     19  C   LIG    1       -0.360  -0.277   2.253  0.00  0.00    -0.080 A 
ATOM     20  C   LIG    1       -0.392  -1.163   3.312  0.00  0.00    +0.070 A 
BRANCH  18  21
ATOM     21  O   LIG    1       -1.004   1.806   1.301  0.00  0.00    -0.300 OA
BRANCH  21  22
ATOM     22  C   LIG    1       -0.337   1.378   0.112  0.00  0.00    +0.140 C 
ATOM     23  C   LIG    1       -0.763   2.240  -1.107  0.00  0.00    +0.040 C 
ATOM     24  C   LIG    1        0.499   2.131  -2.000  0.00  0.00    +0.220 C 
ATOM     25  O   LIG    1        1.606   2.127  -1.085  0.00  0.00    -0.380 OA
ATOM     26  C   LIG    1        1.178   1.659   0.200  0.00  0.00    +0.190 C 
ENDBRANCH  21  22
ENDBRANCH  18  21
ENDBRANCH  14  15
ENDBRANCH   6  14
TORSDOF 4
