REMARK  Name = ZINCkj000005lwfI.0
REMARK                            x       y       z     vdW  Elec       q    Type
REMARK                         _______ _______ _______ _____ _____    ______ ____
ROOT
ATOM      1  C   LIG    1        0.812   7.917   0.036  0.00  0.00    +0.070 C 
ATOM      2  C   LIG    1       -0.097   7.896   1.282  0.00  0.00    +0.070 C 
ATOM      3  C   LIG    1       -1.443   8.479   0.780  0.00  0.00    +0.030 C 
ATOM      4  C   LIG    1       -1.563   7.883  -0.645  0.00  0.00    +0.060 C 
ATOM      5  C   LIG    1       -0.120   7.909  -1.189  0.00  0.00    +0.060 C 
ENDROOT
BRANCH   1   6
ATOM      6  N   LIG    1        1.635   9.133   0.034  0.00  0.00    -0.380 N 
ATOM      7  C   LIG    1        2.459   9.165  -1.182  0.00  0.00    +0.240 C 
ATOM      8  C   LIG    1        3.317  10.433  -1.182  0.00  0.00    +0.260 C 
ATOM      9  O   LIG    1        4.122  10.457  -0.001  0.00  0.00    -0.360 OA
ATOM     10  C   LIG    1        3.365  10.404   1.212  0.00  0.00    +0.260 C 
ATOM     11  C   LIG    1        2.508   9.136   1.216  0.00  0.00    +0.230 C 
ATOM     12  H   LIG    1        1.036   9.945   0.056  0.00  0.00    +0.430 HD
ENDBRANCH   1   6
BRANCH   1  13
ATOM     13  C   LIG    1        1.708   6.677   0.020  0.00  0.00    +0.080 C 
BRANCH  13  15
ATOM     14  O   LIG    1       -0.358   5.536   0.035  0.00  0.00    -0.510 OA
ATOM     15  C   LIG    1        0.851   5.437   0.022  0.00  0.00    +0.520 C 
ATOM     16  N   LIG    1        1.428   4.219   0.010  0.00  0.00    -0.630 N 
ATOM     17  H   LIG    1        2.395   4.141   0.000  0.00  0.00    +0.410 HD
BRANCH  16  18
ATOM     18  C   LIG    1        0.628   3.062   0.013  0.00  0.00    -0.020 A 
ATOM     19  C   LIG    1        1.076   1.780   0.001  0.00  0.00    +0.220 A 
ATOM     20  N   LIG    1       -0.011   0.966   0.007  0.00  0.00    -0.470 N 
ATOM     21  H   LIG    1        0.002  -0.004   0.002  0.00  0.00    +0.450 HD
ATOM     22  N   LIG    1       -1.155   1.775   0.017  0.00  0.00    -0.270 NA
ATOM     23  C   LIG    1       -0.774   3.026   0.026  0.00  0.00    +0.270 A 
ENDBRANCH  16  18
ENDBRANCH  13  15
ENDBRANCH   1  13
TORSDOF 4
