REMARK  Name = ZINCpk00000y6yX0.0
REMARK                            x       y       z     vdW  Elec       q    Type
REMARK                         _______ _______ _______ _____ _____    ______ ____
ROOT
ATOM      1  C   LIG    1       -3.885   2.412   3.332  0.00  0.00    +0.510 C 
ATOM      2  N   LIG    1       -3.816   2.218   2.000  0.00  0.00    -0.730 N 
ATOM      3  H   LIG    1       -4.276   2.822   1.397  0.00  0.00    +0.400 HD
ATOM      4  O   LIG    1       -3.310   1.656   4.086  0.00  0.00    -0.520 OA
ENDROOT
BRANCH   2   5
ATOM      5  C   LIG    1       -3.046   1.093   1.463  0.00  0.00    +0.230 C 
ATOM      6  C   LIG    1       -3.939  -0.159   1.317  0.00  0.00    -0.010 C 
ATOM      7  C   LIG    1       -3.911  -0.466  -0.196  0.00  0.00    +0.200 C 
ATOM      8  O   LIG    1       -2.684   0.130  -0.671  0.00  0.00    -0.360 OA
ATOM      9  C   LIG    1       -2.583   1.394   0.020  0.00  0.00    +0.240 C 
BRANCH   9  10
ATOM     10  C   LIG    1       -1.157   1.881   0.017  0.00  0.00    -0.240 A 
ATOM     11  C   LIG    1       -0.756   3.173   0.025  0.00  0.00    +0.240 A 
ATOM     12  N   LIG    1        0.593   3.186   0.013  0.00  0.00    -0.370 N 
ATOM     13  N   LIG    1        1.037   1.857   0.002  0.00  0.00    -0.300 NA
ATOM     14  C   LIG    1        1.444   4.379   0.011  0.00  0.00    +0.360 C 
ATOM     15  C   LIG    1       -0.013   1.076   0.008  0.00  0.00    +0.260 A 
ENDBRANCH   9  10
ENDBRANCH   2   5
BRANCH   1  16
ATOM     16  C   LIG    1       -4.677   3.569   3.884  0.00  0.00    +0.140 C 
BRANCH  16  22
ATOM     17  C   LIG    1       -3.628   4.212   6.163  0.00  0.00    +0.100 A 
ATOM     18  N   LIG    1       -3.886   3.974   7.423  0.00  0.00    -0.300 NA
ATOM     19  N   LIG    1       -5.027   3.164   7.491  0.00  0.00    -0.370 N 
ATOM     20  C   LIG    1       -5.445   2.930   6.230  0.00  0.00    +0.110 A 
ATOM     21  C   LIG    1       -5.658   2.665   8.716  0.00  0.00    +0.350 C 
ATOM     22  C   LIG    1       -4.594   3.562   5.389  0.00  0.00    -0.220 A 
BRANCH  17  24
ATOM     23  C   LIG    1       -2.933   6.501   5.510  0.00  0.00    +0.040 C 
ATOM     24  C   LIG    1       -2.486   5.043   5.636  0.00  0.00    +0.120 C 
ENDBRANCH  17  24
BRANCH  20  25
ATOM     25  C   LIG    1       -6.644   2.108   5.830  0.00  0.00    +0.110 C 
ATOM     26  C   LIG    1       -7.876   3.011   5.745  0.00  0.00    +0.030 C 
ENDBRANCH  20  25
ENDBRANCH  16  22
ENDBRANCH   1  16
TORSDOF 6
