REMARK  Name = ZINCrg000000sCdX.0
REMARK                            x       y       z     vdW  Elec       q    Type
REMARK                         _______ _______ _______ _____ _____    ______ ____
ROOT
ATOM      1  C   LIG    1        3.616  -0.713  -0.238  0.00  0.00    +0.080 C 
ATOM      2  C   LIG    1        4.353  -0.125   0.968  0.00  0.00    +0.040 C 
ATOM      3  C   LIG    1        5.661  -0.891   1.185  0.00  0.00    +0.290 C 
ATOM      4  N   LIG    1        6.435  -0.870  -0.064  0.00  0.00    -0.560 N 
ATOM      5  C   LIG    1        5.790  -1.329  -1.302  0.00  0.00    +0.310 C 
ATOM      6  C   LIG    1        4.480  -0.558  -1.491  0.00  0.00    +0.040 C 
ENDROOT
BRANCH   4   7
ATOM      7  C   LIG    1        7.746  -0.424  -0.074  0.00  0.00    +0.490 A 
ATOM      8  N   LIG    1        8.397  -0.298  -1.214  0.00  0.00    -0.540 NA
ATOM      9  C   LIG    1        9.661   0.134  -1.241  0.00  0.00    +0.350 A 
ATOM     10  C   LIG    1       10.322   0.448  -0.108  0.00  0.00    +0.120 A 
ATOM     11  N   LIG    1        9.697   0.331   1.102  0.00  0.00    -0.180 N 
ATOM     12  N   LIG    1       10.052   0.547   2.319  0.00  0.00    -0.110 NA
ATOM     13  N   LIG    1        9.067   0.275   3.104  0.00  0.00    -0.040 NA
ATOM     14  N   LIG    1        8.052  -0.125   2.415  0.00  0.00    -0.260 NA
ATOM     15  C   LIG    1        8.402  -0.106   1.139  0.00  0.00    +0.100 A 
ENDBRANCH   4   7
BRANCH   1  20
ATOM     16  C   LIG    1        0.013  -0.050  -0.542  0.00  0.00    +0.270 A 
ATOM     17  C   LIG    1       -0.000   1.327  -0.785  0.00  0.00    -0.100 A 
ATOM     18  C   LIG    1        1.209   1.994  -0.840  0.00  0.00    +0.330 A 
ATOM     19  N   LIG    1        2.332   1.314  -0.661  0.00  0.00    -0.520 NA
ATOM     20  C   LIG    1        2.312   0.016  -0.434  0.00  0.00    +0.340 A 
ATOM     21  N   LIG    1        1.185  -0.662  -0.374  0.00  0.00    -0.520 NA
BRANCH  16  25
ATOM     22  C   LIG    1       -4.840  -1.232  -0.589  0.00  0.00    +0.360 C 
ATOM     23  N   LIG    1       -3.381  -1.329  -0.495  0.00  0.00    -0.370 N 
ATOM     24  C   LIG    1       -2.513  -0.308  -0.624  0.00  0.00    +0.280 A 
ATOM     25  C   LIG    1       -1.254  -0.816  -0.474  0.00  0.00    -0.220 A 
ATOM     26  C   LIG    1       -1.380  -2.200  -0.236  0.00  0.00    +0.290 A 
ATOM     27  N   LIG    1       -2.651  -2.498  -0.251  0.00  0.00    -0.300 NA
ENDBRANCH  16  25
ENDBRANCH   1  20
TORSDOF 3
