REMARK  Name = ZINCpk00000xI6qG.0
REMARK                            x       y       z     vdW  Elec       q    Type
REMARK                         _______ _______ _______ _____ _____    ______ ____
ROOT
ATOM      1  C   LIG    1       -6.479   2.142   3.846  0.00  0.00    +0.600 C 
ATOM      2  N   LIG    1       -6.043   2.394   2.595  0.00  0.00    -0.700 N 
ATOM      3  H   LIG    1       -6.293   3.221   2.153  0.00  0.00    +0.420 HD
ATOM      4  O   LIG    1       -6.167   1.106   4.400  0.00  0.00    -0.520 OA
ENDROOT
BRANCH   1   7
ATOM      5  N   LIG    1       -8.414   5.128   4.503  0.00  0.00    -0.330 N 
ATOM      6  N   LIG    1       -7.668   4.246   3.943  0.00  0.00    -0.170 NA
ATOM      7  C   LIG    1       -7.336   3.125   4.543  0.00  0.00    +0.010 A 
ATOM      8  C   LIG    1       -7.792   2.857   5.856  0.00  0.00    +0.140 A 
ATOM      9  C   LIG    1       -8.581   3.787   6.467  0.00  0.00    -0.020 A 
ATOM     10  C   LIG    1       -8.895   4.962   5.750  0.00  0.00    +0.480 A 
ATOM     11  O   LIG    1       -9.598   5.821   6.256  0.00  0.00    -0.520 OA
BRANCH   5  12
ATOM     12  C   LIG    1       -8.746   6.351   3.768  0.00  0.00    +0.320 C 
BRANCH  12  14
ATOM     13  C   LIG    1       -8.034   8.696   3.283  0.00  0.00    +0.030 C 
ATOM     14  C   LIG    1       -7.688   7.419   4.051  0.00  0.00    +0.000 C 
ENDBRANCH  12  14
ENDBRANCH   5  12
ENDBRANCH   1   7
BRANCH   2  15
ATOM     15  C   LIG    1       -5.194   1.421   1.905  0.00  0.00    +0.350 C 
ATOM     16  C   LIG    1       -6.073   0.366   1.229  0.00  0.00    +0.060 C 
BRANCH  15  17
ATOM     17  C   LIG    1       -4.365   2.127   0.863  0.00  0.00    +0.160 A 
ATOM     18  N   LIG    1       -4.787   3.027   0.015  0.00  0.00    -0.280 NA
ATOM     19  N   LIG    1       -3.807   3.422  -0.722  0.00  0.00    -0.290 NA
ATOM     20  C   LIG    1       -2.720   2.796  -0.372  0.00  0.00    +0.190 A 
ATOM     21  C   LIG    1       -1.342   2.967  -0.958  0.00  0.00    +0.150 C 
ATOM     22  C   LIG    1       -0.741   1.586  -1.236  0.00  0.00    +0.030 C 
ATOM     23  C   LIG    1       -0.013   1.086   0.008  0.00  0.00    +0.020 C 
ATOM     24  C   LIG    1       -0.718   1.574   1.273  0.00  0.00    +0.030 C 
ATOM     25  C   LIG    1       -2.144   1.020   1.315  0.00  0.00    +0.300 C 
ATOM     26  N   LIG    1       -3.046   1.949   0.632  0.00  0.00    -0.460 N 
ENDBRANCH  15  17
ENDBRANCH   2  15
TORSDOF 5
