REMARK  Name = ZINCah0000002jPB.0
REMARK                            x       y       z     vdW  Elec       q    Type
REMARK                         _______ _______ _______ _____ _____    ______ ____
ROOT
ATOM      1  C   LIG    1        2.510   1.446  -0.013  0.00  0.00    +0.100 C 
ATOM      2  C   LIG    1        1.069   1.888   0.002  0.00  0.00    -0.240 A 
ATOM      3  C   LIG    1       -0.013   1.076   0.008  0.00  0.00    +0.230 A 
ATOM      4  N   LIG    1       -1.113   1.857   0.017  0.00  0.00    -0.380 N 
ATOM      5  N   LIG    1       -0.694   3.193   0.025  0.00  0.00    -0.290 NA
ATOM      6  C   LIG    1        0.614   3.211   0.013  0.00  0.00    +0.230 A 
ENDROOT
BRANCH   4   7
ATOM      7  C   LIG    1       -2.502   1.389   0.021  0.00  0.00    +0.350 C 
BRANCH   7   8
ATOM      8  C   LIG    1       -3.244   2.004   1.209  0.00  0.00    +0.200 C 
BRANCH   8   9
ATOM      9  C   LIG    1       -4.639   1.534   1.213  0.00  0.00    +0.200 C 
ATOM     10  N   LIG    1       -5.715   1.172   1.216  0.00  0.00    -0.420 NA
ENDBRANCH   8   9
ENDBRANCH   7   8
ENDBRANCH   4   7
TORSDOF 3
