REMARK  Name = ZINCpk00000kQGiL.0
REMARK                            x       y       z     vdW  Elec       q    Type
REMARK                         _______ _______ _______ _____ _____    ______ ____
ROOT
ATOM      1  N   LIG    1       -3.592   0.312   0.345  0.00  0.00    -0.550 NA
ATOM      2  C   LIG    1       -2.565  -0.681   0.006  0.00  0.00    +0.170 C 
ATOM      3  C   LIG    1       -3.125  -2.090   0.232  0.00  0.00    +0.320 C 
ATOM      4  N   LIG    1       -4.385  -2.217  -0.518  0.00  0.00    -1.000 NA
ATOM      5  C   LIG    1       -5.412  -1.180  -0.333  0.00  0.00    +0.320 C 
ATOM      6  C   LIG    1       -4.761   0.192  -0.536  0.00  0.00    +0.200 C 
ENDROOT
BRANCH   4   7
ATOM      7  S   LIG    1       -4.639  -3.493  -1.542  0.00  0.00    +2.710 S 
ATOM      8  O   LIG    1       -6.048  -3.638  -1.659  0.00  0.00    -0.940 OA
ATOM      9  O   LIG    1       -3.784  -4.538  -1.101  0.00  0.00    -0.940 OA
BRANCH   7  10
ATOM     10  C   LIG    1       -4.055  -3.010  -3.132  0.00  0.00    -0.800 A 
ATOM     11  C   LIG    1       -2.811  -3.187  -3.581  0.00  0.00    +0.160 A 
ATOM     12  C   LIG    1       -2.585  -2.728  -4.867  0.00  0.00    -0.010 A 
ATOM     13  C   LIG    1       -3.642  -2.171  -5.460  0.00  0.00    +0.010 A 
ATOM     14  S   LIG    1       -5.020  -2.214  -4.369  0.00  0.00    +0.220 S 
ENDBRANCH   7  10
ENDBRANCH   4   7
BRANCH   1  15
ATOM     15  C   LIG    1       -3.042   1.673   0.308  0.00  0.00    +0.500 C 
BRANCH  15  19
ATOM     16  C   LIG    1       -0.944   2.666   4.759  0.00  0.00    +0.170 C 
ATOM     17  C   LIG    1       -1.142   2.264   3.320  0.00  0.00    +0.130 A 
ATOM     18  N   LIG    1       -2.281   2.251   2.677  0.00  0.00    -0.250 NA
ATOM     19  N   LIG    1       -2.039   1.824   1.365  0.00  0.00    -0.340 N 
ATOM     20  C   LIG    1       -0.718   1.572   1.248  0.00  0.00    +0.160 A 
ATOM     21  C   LIG    1       -0.013   1.086   0.008  0.00  0.00    +0.160 C 
ATOM     22  C   LIG    1       -0.140   1.839   2.442  0.00  0.00    -0.180 A 
BRANCH  22  23
ATOM     23  N   LIG    1        1.299   1.706   2.761  0.00  0.00    +0.050 N 
ATOM     24  O   LIG    1        1.732   0.653   3.194  0.00  0.00    -0.130 OA
ATOM     25  O   LIG    1        2.051   2.650   2.592  0.00  0.00    -0.140 OA
ENDBRANCH  22  23
ENDBRANCH  15  19
ENDBRANCH   1  15
TORSDOF 5
