REMARK  Name = ZINCtV000002yZFP.0
REMARK                            x       y       z     vdW  Elec       q    Type
REMARK                         _______ _______ _______ _____ _____    ______ ____
ROOT
ATOM      1  C   LIG    1        1.194  -3.209  -0.167  0.00  0.00    +0.290 C 
ENDROOT
BRANCH   1   2
ATOM      2  C   LIG    1        1.813  -4.423   0.476  0.00  0.00    -0.100 A 
ATOM      3  C   LIG    1        3.032  -4.896   0.027  0.00  0.00    +0.050 A 
ATOM      4  C   LIG    1        3.604  -6.005   0.618  0.00  0.00    +0.010 A 
ATOM      5  C   LIG    1        2.950  -6.651   1.657  0.00  0.00    +0.080 A 
ATOM      6  C   LIG    1        1.724  -6.177   2.103  0.00  0.00    -0.010 A 
ATOM      7  C   LIG    1        1.159  -5.064   1.512  0.00  0.00    +0.030 A 
BRANCH   5   8
ATOM      8  O   LIG    1        3.509  -7.745   2.238  0.00  0.00    -0.260 OA
BRANCH   8   9
ATOM      9  C   LIG    1        2.907  -8.948   2.043  0.00  0.00    +0.120 A 
ATOM     10  C   LIG    1        1.807  -9.047   1.204  0.00  0.00    -0.070 A 
ATOM     11  C   LIG    1        1.200 -10.271   1.004  0.00  0.00    +0.050 A 
ATOM     12  C   LIG    1        1.682 -11.397   1.647  0.00  0.00    -0.020 A 
ATOM     13  C   LIG    1        2.776 -11.300   2.488  0.00  0.00    +0.050 A 
ATOM     14  C   LIG    1        3.389 -10.079   2.687  0.00  0.00    -0.020 A 
ENDBRANCH   8   9
ENDBRANCH   5   8
ENDBRANCH   1   2
BRANCH   1  15
ATOM     15  N   LIG    1        2.236  -2.217  -0.444  0.00  0.00    -0.730 N 
ATOM     16  H   LIG    1        2.614  -2.145  -1.335  0.00  0.00    +0.400 HD
BRANCH  15  22
ATOM     17  C   LIG    1        3.745  -0.449   0.489  0.00  0.00    +0.040 A 
ATOM     18  N   LIG    1        3.870   0.155   1.643  0.00  0.00    -0.270 NA
ATOM     19  N   LIG    1        2.901  -0.356   2.516  0.00  0.00    -0.380 N 
ATOM     20  C   LIG    1        2.185  -1.294   1.841  0.00  0.00    +0.140 A 
ATOM     21  C   LIG    1        2.692   0.053   3.907  0.00  0.00    +0.350 C 
ATOM     22  C   LIG    1        2.691  -1.368   0.584  0.00  0.00    +0.070 A 
BRANCH  17  24
ATOM     23  C   LIG    1        3.952   0.902  -1.580  0.00  0.00    +0.040 C 
ATOM     24  C   LIG    1        4.591  -0.200  -0.733  0.00  0.00    +0.120 C 
ENDBRANCH  17  24
ENDBRANCH  15  22
ENDBRANCH   1  15
BRANCH   1  25
ATOM     25  C   LIG    1        0.517  -3.616  -1.478  0.00  0.00    +0.040 C 
BRANCH  25  26
ATOM     26  C   LIG    1       -0.195  -2.404  -2.082  0.00  0.00    -0.010 C 
ATOM     27  C   LIG    1       -1.410  -2.017  -1.213  0.00  0.00    +0.000 C 
ATOM     28  C   LIG    1       -2.483  -1.574  -2.238  0.00  0.00    +0.000 C 
ATOM     29  C   LIG    1       -2.275  -2.571  -3.405  0.00  0.00    -0.010 C 
ATOM     30  C   LIG    1       -0.745  -2.756  -3.475  0.00  0.00    +0.000 C 
ENDBRANCH  25  26
ENDBRANCH   1  25
TORSDOF 8
