REMARK  Name = ZINCpk000000mRDW.0
REMARK                            x       y       z     vdW  Elec       q    Type
REMARK                         _______ _______ _______ _____ _____    ______ ____
ROOT
ATOM      1  S   UNK    1        3.606  -2.479   1.057  0.00  0.00    +2.700 S 
ATOM      2  O   UNK    1        2.407  -2.703   1.785  0.00  0.00    -0.950 OA
ATOM      3  O   UNK    1        4.899  -2.728   1.592  0.00  0.00    -0.950 OA
ENDROOT
BRANCH   1  13
ATOM      4  C   UNK    1       -1.329   1.944   0.044  0.00  0.00    +0.110 C 
ATOM      5  C   UNK    1       -0.014   1.209   0.009  0.00  0.00    +0.510 C 
ATOM      6  N   UNK    1        1.143   1.898   0.001  0.00  0.00    -0.560 N 
ATOM      7  C   UNK    1        1.139   3.364  -0.101  0.00  0.00    +0.280 C 
ATOM      8  C   UNK    1        2.213   3.765  -1.121  0.00  0.00    +0.030 C 
ATOM      9  C   UNK    1        3.582   3.337  -0.593  0.00  0.00    +0.090 C 
ATOM     10  C   UNK    1        3.560   1.886  -0.189  0.00  0.00    -0.060 A 
ATOM     11  C   UNK    1        4.759   1.199  -0.097  0.00  0.00    +0.020 A 
ATOM     12  C   UNK    1        4.772  -0.131   0.292  0.00  0.00    +0.100 A 
ATOM     13  C   UNK    1        3.587  -0.784   0.575  0.00  0.00    -0.660 A 
ATOM     14  C   UNK    1        2.387  -0.107   0.478  0.00  0.00    +0.130 A 
ATOM     15  C   UNK    1        2.372   1.230   0.097  0.00  0.00    +0.130 A 
ATOM     16  O   UNK    1        0.002  -0.004  -0.018  0.00  0.00    -0.510 OA
ENDBRANCH   1  13
BRANCH   1  17
ATOM     17  N   UNK    1        3.490  -3.383  -0.326  0.00  0.00    -1.110 NA
ATOM     18  H   UNK    1        2.709  -3.938  -0.478  0.00  0.00    +0.420 HD
BRANCH  17  19
ATOM     19  C   UNK    1        4.567  -3.346  -1.318  0.00  0.00    +0.410 C 
BRANCH  19  20
ATOM     20  C   UNK    1        4.408  -4.499  -2.275  0.00  0.00    +0.030 A 
ATOM     21  N   UNK    1        3.726  -4.463  -3.369  0.00  0.00    -0.450 NA
ATOM     22  C   UNK    1        3.694  -5.563  -4.094  0.00  0.00    +0.050 A 
ATOM     23  C   UNK    1        4.380  -6.587  -3.578  0.00  0.00    -0.030 A 
ATOM     24  S   UNK    1        5.100  -6.049  -2.063  0.00  0.00    +0.160 S 
BRANCH  22  25
ATOM     25  C   UNK    1        2.942  -5.659  -5.396  0.00  0.00    +0.300 C 
BRANCH  25  26
ATOM     26  O   UNK    1        3.092  -6.973  -5.937  0.00  0.00    -0.570 OA
ATOM     27  H   UNK    1        2.633  -7.108  -6.778  0.00  0.00    +0.390 HD
ENDBRANCH  25  26
ENDBRANCH  22  25
ENDBRANCH  19  20
ENDBRANCH  17  19
ENDBRANCH   1  17
TORSDOF 6
