REMARK  Name = ZINCqH0000003xHz.0
REMARK                            x       y       z     vdW  Elec       q    Type
REMARK                         _______ _______ _______ _____ _____    ______ ____
ROOT
ATOM      1  N   LIG    1       -0.897  -0.855   0.088  0.00  0.00    -0.680 N 
ATOM      2  H   LIG    1       -1.731  -0.480  -0.234  0.00  0.00    +0.410 HD
ATOM      3  C   LIG    1        0.082  -0.042   0.531  0.00  0.00    +0.710 C 
ATOM      4  N   LIG    1       -0.132   1.286   0.614  0.00  0.00    -0.680 N 
ATOM      5  H   LIG    1       -0.961   1.666   0.282  0.00  0.00    +0.420 HD
ATOM      6  O   LIG    1        1.158  -0.506   0.856  0.00  0.00    -0.550 OA
ENDROOT
BRANCH   1  11
ATOM      7  C   LIG    1       -1.590  -4.456   0.371  0.00  0.00    -0.070 A 
ATOM      8  C   LIG    1       -0.340  -4.984   0.104  0.00  0.00    +0.030 A 
ATOM      9  C   LIG    1        0.725  -4.145  -0.167  0.00  0.00    +0.030 A 
ATOM     10  C   LIG    1        0.542  -2.776  -0.180  0.00  0.00    +0.030 A 
ATOM     11  C   LIG    1       -0.710  -2.242   0.093  0.00  0.00    +0.150 A 
ATOM     12  C   LIG    1       -1.778  -3.087   0.366  0.00  0.00    +0.010 A 
BRANCH   7  13
ATOM     13  C   LIG    1       -2.748  -5.373   0.667  0.00  0.00    +0.220 C 
BRANCH  13  14
ATOM     14  O   LIG    1       -3.413  -5.709  -0.552  0.00  0.00    -0.370 OA
BRANCH  14  15
ATOM     15  C   LIG    1       -4.533  -6.580  -0.383  0.00  0.00    +0.190 C 
BRANCH  15  16
ATOM     16  C   LIG    1       -5.165  -6.871  -1.745  0.00  0.00    +0.180 C 
BRANCH  16  17
ATOM     17  O   LIG    1       -4.239  -7.598  -2.554  0.00  0.00    -0.380 OA
BRANCH  17  19
ATOM     18  C   LIG    1       -3.664  -8.696  -4.629  0.00  0.00    +0.040 C 
ATOM     19  C   LIG    1       -4.733  -7.922  -3.856  0.00  0.00    +0.160 C 
ENDBRANCH  17  19
ENDBRANCH  16  17
ENDBRANCH  15  16
ENDBRANCH  14  15
ENDBRANCH  13  14
ENDBRANCH   7  13
ENDBRANCH   1  11
BRANCH   4  20
ATOM     20  C   LIG    1        0.844   2.119   1.174  0.00  0.00    +0.220 A 
ATOM     21  C   LIG    1        1.642   1.655   2.212  0.00  0.00    +0.040 A 
ATOM     22  C   LIG    1        2.607   2.477   2.759  0.00  0.00    +0.130 A 
ATOM     23  C   LIG    1        2.773   3.764   2.281  0.00  0.00    -0.060 A 
ATOM     24  C   LIG    1        1.977   4.231   1.251  0.00  0.00    +0.130 A 
ATOM     25  C   LIG    1        1.013   3.412   0.696  0.00  0.00    +0.000 A 
BRANCH  23  26
ATOM     26  N   LIG    1        3.804   4.645   2.874  0.00  0.00    +0.030 N 
ATOM     27  O   LIG    1        4.506   4.236   3.782  0.00  0.00    -0.160 OA
ATOM     28  O   LIG    1        3.951   5.779   2.455  0.00  0.00    -0.160 OA
ENDBRANCH  23  26
ENDBRANCH   4  20
TORSDOF 9
