REMARK  Name = ZINCpe000000Yuq2.0
REMARK                            x       y       z     vdW  Elec       q    Type
REMARK                         _______ _______ _______ _____ _____    ______ ____
ROOT
ATOM      1  C   LIG    1       -5.488  -3.095   4.279  0.00  0.00    +0.260 C 
ATOM      2  C   LIG    1       -5.224  -2.272   3.014  0.00  0.00    +0.310 C 
ATOM      3  N   LIG    1       -5.442  -3.133   1.841  0.00  0.00    -0.620 N 
ATOM      4  C   LIG    1       -6.707  -3.879   1.752  0.00  0.00    +0.290 C 
ATOM      5  C   LIG    1       -6.909  -4.644   3.070  0.00  0.00    +0.190 C 
ATOM      6  C   LIG    1       -4.511  -3.232   0.873  0.00  0.00    +0.530 C 
ATOM      7  O   LIG    1       -4.743  -3.875  -0.129  0.00  0.00    -0.520 OA
ATOM      8  N   LIG    1       -6.823  -3.703   4.194  0.00  0.00    -0.490 NA
ENDROOT
BRANCH   6   9
ATOM      9  C   LIG    1       -3.180  -2.542   1.034  0.00  0.00    -0.020 C 
ATOM     10  C   LIG    1       -2.125  -3.262   0.189  0.00  0.00    +0.070 C 
ATOM     11  C   LIG    1       -0.791  -2.522   0.309  0.00  0.00    +0.210 C 
ATOM     12  N   LIG    1       -0.954  -1.138  -0.155  0.00  0.00    -0.470 N 
ATOM     13  C   LIG    1       -1.928  -0.413   0.671  0.00  0.00    +0.200 C 
ATOM     14  C   LIG    1       -3.296  -1.090   0.562  0.00  0.00    +0.060 C 
BRANCH  12  15
ATOM     15  C   LIG    1        0.267  -0.475  -0.183  0.00  0.00    +0.260 A 
ATOM     16  C   LIG    1        0.331   0.854  -0.596  0.00  0.00    +0.210 A 
ATOM     17  N   LIG    1        1.492   1.480  -0.621  0.00  0.00    -0.420 NA
ATOM     18  C   LIG    1        2.594   0.847  -0.255  0.00  0.00    +0.180 A 
ATOM     19  C   LIG    1        2.535  -0.472   0.155  0.00  0.00    +0.250 A 
ATOM     20  N   LIG    1        1.375  -1.106   0.183  0.00  0.00    -0.480 NA
ENDBRANCH  12  15
ENDBRANCH   6   9
BRANCH   8  21
ATOM     21  C   LIG    1       -7.184  -4.359   5.458  0.00  0.00    +0.130 C 
ATOM     22  C   LIG    1       -7.275  -5.886   5.461  0.00  0.00    -0.010 C 
ATOM     23  C   LIG    1       -8.550  -5.043   5.534  0.00  0.00    +0.040 C 
ENDBRANCH   8  21
BRANCH   1  25
ATOM     24  N   LIG    1       -5.371  -1.540   6.369  0.00  0.00    -0.400 NA
ATOM     25  C   LIG    1       -5.422  -2.217   5.459  0.00  0.00    +0.210 C 
ENDBRANCH   1  25
TORSDOF 4
