REMARK  Name = ZINCrH000004vC8y.0
REMARK                            x       y       z     vdW  Elec       q    Type
REMARK                         _______ _______ _______ _____ _____    ______ ____
ROOT
ATOM      1  N   LIG    1        0.068   1.492   0.829  0.00  0.00    -0.740 N 
ATOM      2  H   LIG    1       -0.730   1.977   1.093  0.00  0.00    +0.400 HD
ENDROOT
BRANCH   1   3
ATOM      3  C   LIG    1        1.211   2.192   0.432  0.00  0.00    +0.220 A 
ATOM      4  C   LIG    1        1.206   3.578   0.421  0.00  0.00    -0.050 A 
ATOM      5  C   LIG    1        2.350   4.271   0.025  0.00  0.00    -0.080 A 
ATOM      6  C   LIG    1        3.491   3.564  -0.359  0.00  0.00    +0.000 A 
ATOM      7  C   LIG    1        3.485   2.184  -0.345  0.00  0.00    +0.060 A 
ATOM      8  C   LIG    1        2.354   1.497   0.053  0.00  0.00    -0.040 A 
BRANCH   5   9
ATOM      9  C   LIG    1        2.354   5.750   0.011  0.00  0.00    +0.560 C 
ATOM     10  N   LIG    1        1.387   6.419  -0.647  0.00  0.00    -0.610 N 
ATOM     11  C   LIG    1        0.293   5.678  -1.278  0.00  0.00    +0.290 C 
ATOM     12  C   LIG    1       -1.028   6.031  -0.577  0.00  0.00    +0.110 C 
ATOM     13  S   LIG    1       -1.284   7.827  -0.682  0.00  0.00    -0.250 S 
ATOM     14  C   LIG    1        0.255   8.480   0.031  0.00  0.00    +0.110 C 
ATOM     15  C   LIG    1        1.444   7.880  -0.727  0.00  0.00    +0.310 C 
ATOM     16  O   LIG    1        3.229   6.361   0.592  0.00  0.00    -0.520 OA
ENDBRANCH   5   9
ENDBRANCH   1   3
BRANCH   1  17
ATOM     17  C   LIG    1        0.072   0.027   0.840  0.00  0.00    +0.350 C 
BRANCH  17  29
ATOM     18  O   LIG    1       -0.670  -0.296   3.485  0.00  0.00    -0.530 OA
ATOM     19  C   LIG    1       -1.536  -0.600   2.684  0.00  0.00    +0.540 A 
ATOM     20  N   LIG    1       -2.721  -1.045   3.137  0.00  0.00    -0.630 N 
ATOM     21  H   LIG    1       -2.871  -1.118   4.093  0.00  0.00    +0.420 HD
ATOM     22  C   LIG    1       -3.727  -1.399   2.263  0.00  0.00    +0.190 A 
ATOM     23  C   LIG    1       -4.953  -1.859   2.731  0.00  0.00    -0.030 A 
ATOM     24  C   LIG    1       -5.941  -2.207   1.835  0.00  0.00    +0.070 A 
ATOM     25  C   LIG    1       -5.726  -2.101   0.467  0.00  0.00    -0.020 A 
ATOM     26  C   LIG    1       -4.529  -1.651  -0.015  0.00  0.00    +0.090 A 
ATOM     27  C   LIG    1       -3.513  -1.293   0.875  0.00  0.00    -0.140 A 
ATOM     28  C   LIG    1       -2.220  -0.802   0.393  0.00  0.00    +0.160 A 
ATOM     29  C   LIG    1       -1.270  -0.476   1.303  0.00  0.00    -0.210 A 
ENDBRANCH  17  29
ENDBRANCH   1  17
TORSDOF 4
