REMARK  Name = ZINCqH0000035DKl.0
REMARK                            x       y       z     vdW  Elec       q    Type
REMARK                         _______ _______ _______ _____ _____    ______ ____
ROOT
ATOM      1  C   LIG    1        1.640   4.907  -2.896  0.00  0.00    +0.570 C 
ATOM      2  N   LIG    1        1.624   3.929  -1.969  0.00  0.00    -0.660 N 
ATOM      3  H   LIG    1        1.388   3.023  -2.224  0.00  0.00    +0.410 HD
ATOM      4  O   LIG    1        2.032   6.019  -2.600  0.00  0.00    -0.500 OA
ENDROOT
BRANCH   1   7
ATOM      5  C   LIG    1        0.767   5.376  -6.519  0.00  0.00    +0.120 A 
ATOM      6  C   LIG    1        1.192   5.643  -5.232  0.00  0.00    +0.030 A 
ATOM      7  C   LIG    1        1.181   4.628  -4.271  0.00  0.00    -0.090 A 
ATOM      8  C   LIG    1        0.730   3.351  -4.613  0.00  0.00    +0.040 A 
ATOM      9  C   LIG    1        0.302   3.092  -5.898  0.00  0.00    -0.030 A 
ATOM     10 CL   LIG    1       -0.258   1.504  -6.322  0.00  0.00    -0.030 Cl
ATOM     11  C   LIG    1        0.318   4.099  -6.854  0.00  0.00    +0.100 A 
BRANCH   5  13
ATOM     12  C   LIG    1        1.254   7.644  -7.044  0.00  0.00    +0.250 C 
ATOM     13  O   LIG    1        0.782   6.360  -7.457  0.00  0.00    -0.300 OA
ENDBRANCH   5  13
BRANCH  11  14
ATOM     14  O   LIG    1       -0.104   3.840  -8.119  0.00  0.00    -0.310 OA
ATOM     15  C   LIG    1       -1.491   4.047  -8.395  0.00  0.00    +0.230 C 
ENDBRANCH  11  14
ENDBRANCH   1   7
BRANCH   2  16
ATOM     16  C   LIG    1        1.948   4.220  -0.638  0.00  0.00    +0.160 A 
ATOM     17  C   LIG    1        1.785   5.507  -0.149  0.00  0.00    +0.030 A 
ATOM     18  C   LIG    1        2.106   5.792   1.165  0.00  0.00    +0.040 A 
ATOM     19  C   LIG    1        2.590   4.797   1.995  0.00  0.00    +0.000 A 
ATOM     20  C   LIG    1        2.750   3.510   1.517  0.00  0.00    +0.040 A 
ATOM     21  C   LIG    1        2.436   3.216   0.199  0.00  0.00    +0.110 A 
BRANCH  21  22
ATOM     22  N   LIG    1        2.603   1.914  -0.290  0.00  0.00    -0.580 N 
ATOM     23  C   LIG    1        1.569   0.873  -0.243  0.00  0.00    +0.260 C 
ATOM     24  C   LIG    1        2.316  -0.460  -0.472  0.00  0.00    +0.060 C 
ATOM     25  C   LIG    1        3.561   0.007  -1.260  0.00  0.00    +0.060 C 
ATOM     26  C   LIG    1        3.730   1.457  -0.861  0.00  0.00    +0.520 C 
ATOM     27  O   LIG    1        4.737   2.111  -1.032  0.00  0.00    -0.510 OA
ENDBRANCH  21  22
ENDBRANCH   2  16
TORSDOF 5
