REMARK  Name = ZINCpk00001AZj9W.0
REMARK                            x       y       z     vdW  Elec       q    Type
REMARK                         _______ _______ _______ _____ _____    ______ ____
ROOT
ATOM      1  O   LIG    1       -0.715   1.567  -1.168  0.00  0.00    -0.370 OA
ENDROOT
BRANCH   1   4
ATOM      2  N   LIG    1       -0.814   1.632  -3.498  0.00  0.00    -0.700 N 
ATOM      3  H   LIG    1       -1.612   2.180  -3.450  0.00  0.00    +0.410 HD
ATOM      4  C   LIG    1       -0.210   1.218  -2.367  0.00  0.00    +0.650 C 
ATOM      5  O   LIG    1        0.790   0.531  -2.428  0.00  0.00    -0.570 OA
BRANCH   2   6
ATOM      6  C   LIG    1       -0.264   1.253  -4.803  0.00  0.00    +0.340 C 
BRANCH   6   7
ATOM      7  C   LIG    1       -1.132   1.847  -5.914  0.00  0.00    +0.200 C 
BRANCH   7   8
ATOM      8  C   LIG    1       -0.566   1.458  -7.255  0.00  0.00    +0.440 C 
ATOM      9  O   LIG    1       -1.201   0.742  -7.994  0.00  0.00    -0.480 OA
BRANCH   8  11
ATOM     10  C   LIG    1        1.124   1.489  -8.935  0.00  0.00    +0.270 C 
ATOM     11  O   LIG    1        0.642   1.905  -7.630  0.00  0.00    -0.360 OA
ENDBRANCH   8  11
ENDBRANCH   7   8
BRANCH   7  12
ATOM     12  O   LIG    1       -2.465   1.348  -5.796  0.00  0.00    -0.350 OA
ATOM     13  C   LIG    1       -3.468   2.252  -6.263  0.00  0.00    +0.220 C 
ENDBRANCH   7  12
ENDBRANCH   6   7
ENDBRANCH   2   6
ENDBRANCH   1   4
BRANCH   1  14
ATOM     14  C   LIG    1       -0.013   1.086   0.008  0.00  0.00    +0.250 C 
BRANCH  14  15
ATOM     15  C   LIG    1       -0.729   1.579   1.267  0.00  0.00    +0.110 C 
BRANCH  15  16
ATOM     16  C   LIG    1        0.000   1.080   2.488  0.00  0.00    -0.070 A 
ATOM     17  C   LIG    1        1.012   1.839   3.045  0.00  0.00    +0.060 A 
ATOM     18  C   LIG    1        1.683   1.385   4.166  0.00  0.00    +0.070 A 
ATOM     19  C   LIG    1        1.343   0.168   4.732  0.00  0.00    +0.030 A 
ATOM     20  O   LIG    1        1.838  -0.495   5.818  0.00  0.00    -0.290 OA
ATOM     21  C   LIG    1        1.392  -1.857   5.673  0.00  0.00    +0.570 C 
ATOM     22  O   LIG    1        0.180  -1.739   4.903  0.00  0.00    -0.290 OA
ATOM     23  F   LIG    1        1.130  -2.424   6.924  0.00  0.00    -0.110 F 
ATOM     24  F   LIG    1        2.342  -2.614   4.980  0.00  0.00    -0.150 F 
ATOM     25  C   LIG    1        0.323  -0.597   4.170  0.00  0.00    +0.030 A 
ATOM     26  C   LIG    1       -0.349  -0.134   3.051  0.00  0.00    +0.080 A 
ENDBRANCH  15  16
ENDBRANCH  14  15
ENDBRANCH   1  14
TORSDOF 9
