REMARK  Name = ZINCrH000004qUsW.0
REMARK                            x       y       z     vdW  Elec       q    Type
REMARK                         _______ _______ _______ _____ _____    ______ ____
ROOT
ATOM      1  C   LIG    1        1.782   1.306  -3.672  0.00  0.00    +0.590 C 
ATOM      2  N   LIG    1        1.262   1.517  -2.447  0.00  0.00    -0.710 N 
ATOM      3  H   LIG    1        0.465   2.060  -2.346  0.00  0.00    +0.410 HD
ATOM      4  O   LIG    1        2.836   0.707  -3.791  0.00  0.00    -0.540 OA
ENDROOT
BRANCH   1  11
ATOM      5  C   LIG    1       -1.238   3.417 -10.072  0.00  0.00    +0.140 C 
ATOM      6  C   LIG    1       -0.782   3.096  -8.672  0.00  0.00    -0.140 A 
ATOM      7  C   LIG    1        0.282   2.361  -8.371  0.00  0.00    +0.010 A 
ATOM      8  C   LIG    1        0.530   2.184  -7.006  0.00  0.00    +0.080 A 
ATOM      9  C   LIG    1       -0.398   2.820  -6.202  0.00  0.00    -0.220 A 
ATOM     10  C   LIG    1       -0.055   2.571  -4.861  0.00  0.00    +0.070 A 
ATOM     11  C   LIG    1        1.080   1.795  -4.860  0.00  0.00    +0.010 A 
ATOM     12  N   LIG    1        1.442   1.552  -6.169  0.00  0.00    -0.420 N 
ATOM     13  S   LIG    1       -1.585   3.643  -7.208  0.00  0.00    +0.150 S 
BRANCH  12  14
ATOM     14  C   LIG    1        2.594   0.759  -6.604  0.00  0.00    +0.350 C 
BRANCH  14  15
ATOM     15  C   LIG    1        2.163  -0.694  -6.816  0.00  0.00    +0.440 C 
ATOM     16  F   LIG    1        1.665  -1.213  -5.616  0.00  0.00    -0.170 F 
ATOM     17  F   LIG    1        3.263  -1.451  -7.232  0.00  0.00    -0.170 F 
ATOM     18  F   LIG    1        1.165  -0.745  -7.796  0.00  0.00    -0.180 F 
ENDBRANCH  14  15
ENDBRANCH  12  14
ENDBRANCH   1  11
BRANCH   2  19
ATOM     19  C   LIG    1        1.902   0.928  -1.268  0.00  0.00    +0.260 C 
BRANCH  19  20
ATOM     20  C   LIG    1        1.119   1.320  -0.013  0.00  0.00    +0.260 C 
BRANCH  20  21
ATOM     21  C   LIG    1        1.843   0.818   1.209  0.00  0.00    -0.130 A 
ATOM     22  C   LIG    1        1.718  -0.505   1.591  0.00  0.00    +0.040 A 
ATOM     23  C   LIG    1        2.386  -0.969   2.708  0.00  0.00    -0.010 A 
ATOM     24  C   LIG    1        3.174  -0.104   3.452  0.00  0.00    +0.110 A 
ATOM     25  C   LIG    1        3.294   1.224   3.070  0.00  0.00    -0.010 A 
ATOM     26  C   LIG    1        2.629   1.682   1.949  0.00  0.00    +0.040 A 
BRANCH  24  27
ATOM     27  O   LIG    1        3.828  -0.557   4.554  0.00  0.00    -0.500 OA
ATOM     28  H   LIG    1        3.319  -0.481   5.373  0.00  0.00    +0.390 HD
ENDBRANCH  24  27
ENDBRANCH  20  21
BRANCH  20  29
ATOM     29  O   LIG    1       -0.186   0.739  -0.066  0.00  0.00    -0.550 OA
ATOM     30  H   LIG    1       -0.185  -0.227  -0.111  0.00  0.00    +0.380 HD
ENDBRANCH  20  29
ENDBRANCH  19  20
ENDBRANCH   2  19
TORSDOF 8
