REMARK  Name = ZINCrH000004r933.0
REMARK                            x       y       z     vdW  Elec       q    Type
REMARK                         _______ _______ _______ _____ _____    ______ ____
ROOT
ATOM      1  C   LIG    1       -0.024   1.359  -0.000  0.00  0.00    +0.530 C 
ATOM      2  N   LIG    1       -0.988   1.738  -0.862  0.00  0.00    -0.640 N 
ATOM      3  H   LIG    1       -0.865   2.527  -1.412  0.00  0.00    +0.420 HD
ATOM      4  O   LIG    1       -0.209   0.418   0.742  0.00  0.00    -0.450 OA
ENDROOT
BRANCH   2   5
ATOM      5  C   LIG    1       -2.155   1.000  -0.964  0.00  0.00    +0.510 A 
ATOM      6  N   LIG    1       -2.425  -0.078  -0.272  0.00  0.00    -0.470 NA
ATOM      7  C   LIG    1       -3.652  -0.548  -0.618  0.00  0.00    +0.090 A 
ATOM      8  C   LIG    1       -4.414  -1.642  -0.201  0.00  0.00    +0.030 A 
ATOM      9  C   LIG    1       -5.657  -1.861  -0.754  0.00  0.00    +0.100 A 
ATOM     10  C   LIG    1       -6.157  -1.001  -1.724  0.00  0.00    +0.000 A 
ATOM     11  C   LIG    1       -5.416   0.083  -2.146  0.00  0.00    +0.060 A 
ATOM     12  F   LIG    1       -6.395  -2.918  -0.350  0.00  0.00    -0.130 F 
ATOM     13  C   LIG    1       -4.163   0.318  -1.600  0.00  0.00    +0.040 A 
ATOM     14  N   LIG    1       -3.197   1.291  -1.795  0.00  0.00    -0.510 N 
ATOM     15  C   LIG    1       -3.278   2.422  -2.724  0.00  0.00    +0.320 C 
ENDBRANCH   2   5
BRANCH   1  16
ATOM     16  C   LIG    1        1.283   2.109   0.046  0.00  0.00    -0.020 C 
ATOM     17  C   LIG    1        2.117   1.613   1.231  0.00  0.00    +0.050 C 
ATOM     18  C   LIG    1        1.372   1.920   2.533  0.00  0.00    +0.220 C 
ATOM     19  O   LIG    1        1.121   3.324   2.617  0.00  0.00    -0.380 OA
ATOM     20  C   LIG    1        0.307   3.836   1.561  0.00  0.00    +0.210 C 
ATOM     21  C   LIG    1        1.008   3.606   0.220  0.00  0.00    +0.030 C 
BRANCH  16  26
ATOM     22  C   LIG    1        4.188   1.234  -4.872  0.00  0.00    +0.090 C 
ATOM     23  C   LIG    1        3.430   1.462  -3.590  0.00  0.00    -0.080 A 
ATOM     24  C   LIG    1        3.024   0.384  -2.826  0.00  0.00    +0.010 A 
ATOM     25  C   LIG    1        2.329   0.594  -1.649  0.00  0.00    +0.020 A 
ATOM     26  C   LIG    1        2.040   1.881  -1.237  0.00  0.00    -0.090 A 
ATOM     27  C   LIG    1        2.442   2.959  -2.003  0.00  0.00    +0.020 A 
ATOM     28  C   LIG    1        3.140   2.750  -3.178  0.00  0.00    +0.010 A 
ENDBRANCH  16  26
ENDBRANCH   1  16
TORSDOF 3
