REMARK  Name = ZINCpk00000eb0sL.0
REMARK                            x       y       z     vdW  Elec       q    Type
REMARK                         _______ _______ _______ _____ _____    ______ ____
ROOT
ATOM      1  C   LIG    1       -0.691   5.264   0.463  0.00  0.00    +0.090 C 
ATOM      2  C   LIG    1       -0.562   3.773   0.283  0.00  0.00    -0.040 A 
ATOM      3  C   LIG    1       -1.689   2.977   0.301  0.00  0.00    +0.040 A 
ATOM      4  C   LIG    1       -1.577   1.609   0.131  0.00  0.00    +0.050 A 
ATOM      5  C   LIG    1       -0.329   1.026  -0.049  0.00  0.00    +0.130 A 
ATOM      6  C   LIG    1        0.810   1.818  -0.070  0.00  0.00    +0.020 A 
ATOM      7  C   LIG    1        0.696   3.198   0.097  0.00  0.00    -0.110 A 
ENDROOT
BRANCH   7   8
ATOM      8  C   LIG    1        1.905   4.049   0.076  0.00  0.00    +0.570 C 
ATOM      9  N   LIG    1        2.752   3.992  -0.971  0.00  0.00    -0.610 N 
ATOM     10  C   LIG    1        2.544   3.026  -2.061  0.00  0.00    +0.240 C 
ATOM     11  C   LIG    1        2.605   3.787  -3.394  0.00  0.00    +0.220 C 
ATOM     12  O   LIG    1        3.813   4.550  -3.444  0.00  0.00    -0.380 OA
ATOM     13  C   LIG    1        3.912   5.557  -2.435  0.00  0.00    +0.220 C 
ATOM     14  C   LIG    1        3.914   4.890  -1.054  0.00  0.00    +0.260 C 
ATOM     15  O   LIG    1        2.135   4.801   1.004  0.00  0.00    -0.520 OA
ENDBRANCH   7   8
BRANCH   5  16
ATOM     16  N   LIG    1       -0.220  -0.358  -0.216  0.00  0.00    -0.660 N 
ATOM     17  H   LIG    1        0.447  -0.723  -0.817  0.00  0.00    +0.410 HD
ATOM     18  C   LIG    1       -1.044  -1.184   0.459  0.00  0.00    +0.560 C 
ATOM     19  O   LIG    1       -1.927  -0.726   1.156  0.00  0.00    -0.500 OA
BRANCH  18  20
ATOM     20  C   LIG    1       -0.871  -2.654   0.352  0.00  0.00    -0.040 A 
ATOM     21  C   LIG    1       -1.706  -3.513   1.044  0.00  0.00    +0.010 A 
ATOM     22  C   LIG    1       -1.516  -4.903   0.916  0.00  0.00    +0.510 A 
ATOM     23  N   LIG    1       -0.527  -5.379   0.136  0.00  0.00    -0.600 N 
ATOM     24  H   LIG    1       -0.403  -6.338   0.057  0.00  0.00    +0.420 HD
ATOM     25  C   LIG    1        0.297  -4.541  -0.541  0.00  0.00    +0.310 A 
ATOM     26  O   LIG    1       -2.245  -5.676   1.516  0.00  0.00    -0.530 OA
ATOM     27  C   LIG    1        0.152  -3.200  -0.454  0.00  0.00    -0.070 A 
ENDBRANCH  18  20
ENDBRANCH   5  16
TORSDOF 3
