REMARK  Name = ZINCrH000004mP91.0
REMARK                            x       y       z     vdW  Elec       q    Type
REMARK                         _______ _______ _______ _____ _____    ______ ____
ROOT
ATOM      1  C   LIG    1       -2.574   4.145   0.252  0.00  0.00    +0.290 C 
ENDROOT
BRANCH   1   4
ATOM      2  N   LIG    1       -1.241   2.075   0.019  0.00  0.00    -0.660 N 
ATOM      3  H   LIG    1       -2.074   1.581  -0.045  0.00  0.00    +0.420 HD
ATOM      4  C   LIG    1       -1.260   3.418   0.128  0.00  0.00    +0.510 C 
ATOM      5  O   LIG    1       -0.220   4.041   0.127  0.00  0.00    -0.520 OA
BRANCH   2   9
ATOM      6  C   LIG    1        2.400   0.033  -0.053  0.00  0.00    +0.160 A 
ATOM      7  C   LIG    1        2.295   1.288  -0.634  0.00  0.00    -0.100 A 
ATOM      8  C   LIG    1        1.090   1.965  -0.608  0.00  0.00    +0.110 A 
ATOM      9  C   LIG    1       -0.016   1.390  -0.002  0.00  0.00    +0.080 A 
ATOM     10  C   LIG    1        0.087   0.129   0.582  0.00  0.00    +0.150 A 
ATOM     11  C   LIG    1        1.296  -0.546   0.555  0.00  0.00    -0.090 A 
BRANCH   6  13
ATOM     12  C   LIG    1        4.682   0.025  -0.723  0.00  0.00    +0.250 C 
ATOM     13  O   LIG    1        3.586  -0.631  -0.080  0.00  0.00    -0.320 OA
ENDBRANCH   6  13
BRANCH  10  14
ATOM     14  O   LIG    1       -0.996  -0.437   1.177  0.00  0.00    -0.310 OA
ATOM     15  C   LIG    1       -0.816  -1.732   1.755  0.00  0.00    +0.250 C 
ENDBRANCH  10  14
ENDBRANCH   2   9
ENDBRANCH   1   4
BRANCH   1  16
ATOM     16  N   LIG    1       -2.327   5.585   0.356  0.00  0.00    -0.730 N 
ATOM     17  H   LIG    1       -1.419   5.924   0.338  0.00  0.00    +0.420 HD
BRANCH  16  18
ATOM     18  C   LIG    1       -3.403   6.473   0.481  0.00  0.00    +0.240 A 
ATOM     19  C   LIG    1       -4.702   5.991   0.506  0.00  0.00    -0.080 A 
ATOM     20  C   LIG    1       -5.764   6.869   0.630  0.00  0.00    +0.050 A 
ATOM     21  C   LIG    1       -5.533   8.229   0.728  0.00  0.00    -0.050 A 
ATOM     22  C   LIG    1       -4.240   8.718   0.703  0.00  0.00    +0.020 A 
ATOM     23  C   LIG    1       -3.170   7.845   0.585  0.00  0.00    +0.010 A 
BRANCH  23  24
ATOM     24  N   LIG    1       -1.860   8.338   0.566  0.00  0.00    -0.500 N 
ATOM     25  C   LIG    1       -1.518   8.975   1.844  0.00  0.00    +0.170 C 
ATOM     26  C   LIG    1       -0.040   9.371   1.839  0.00  0.00    +0.020 C 
ATOM     27  C   LIG    1        0.222  10.336   0.680  0.00  0.00    +0.000 C 
ATOM     28  C   LIG    1       -0.187   9.665  -0.634  0.00  0.00    +0.020 C 
ATOM     29  C   LIG    1       -1.661   9.261  -0.558  0.00  0.00    +0.170 C 
ENDBRANCH  23  24
ENDBRANCH  16  18
ENDBRANCH   1  16
TORSDOF 7
