REMARK  Name = ZINCrH00000No50J.0
REMARK                            x       y       z     vdW  Elec       q    Type
REMARK                         _______ _______ _______ _____ _____    ______ ____
ROOT
ATOM      1  C   LIG    1        0.730  -0.005  -1.727  0.00  0.00    +0.530 C 
ATOM      2  O   LIG    1        1.001   0.605  -2.743  0.00  0.00    -0.500 OA
ENDROOT
BRANCH   1   3
ATOM      3  C   LIG    1        1.104  -1.420  -1.599  0.00  0.00    -0.140 C 
ATOM      4  C   LIG    1        1.763  -2.056  -2.631  0.00  0.00    +0.270 C 
BRANCH   4   5
ATOM      5  C   LIG    1        1.976  -3.503  -2.581  0.00  0.00    -0.190 A 
ATOM      6  C   LIG    1        3.120  -4.066  -3.167  0.00  0.00    +0.110 A 
ATOM      7  C   LIG    1        3.317  -5.416  -3.114  0.00  0.00    -0.080 A 
ATOM      8  C   LIG    1        2.380  -6.235  -2.487  0.00  0.00    +0.250 A 
ATOM      9  C   LIG    1        1.240  -5.681  -1.907  0.00  0.00    -0.080 A 
ATOM     10  C   LIG    1        1.036  -4.332  -1.951  0.00  0.00    +0.100 A 
BRANCH   8  11
ATOM     11  N   LIG    1        2.583  -7.608  -2.440  0.00  0.00    -0.620 N 
ATOM     12  C   LIG    1        3.780  -8.193  -3.049  0.00  0.00    +0.290 C 
ATOM     13  C   LIG    1        1.599  -8.472  -1.782  0.00  0.00    +0.280 C 
ENDBRANCH   8  11
ENDBRANCH   4   5
BRANCH   3  14
ATOM     14  C   LIG    1        0.785  -2.139  -0.402  0.00  0.00    +0.260 C 
ATOM     15  N   LIG    1        0.532  -2.709   0.548  0.00  0.00    -0.410 NA
ENDBRANCH   3  14
ENDBRANCH   1   3
BRANCH   1  16
ATOM     16  O   LIG    1        0.087   0.616  -0.719  0.00  0.00    -0.330 OA
BRANCH  16  17
ATOM     17  C   LIG    1       -0.252   2.015  -0.915  0.00  0.00    +0.240 C 
BRANCH  17  18
ATOM     18  C   LIG    1       -0.961   2.536   0.308  0.00  0.00    +0.390 C 
ATOM     19  O   LIG    1       -1.162   1.802   1.252  0.00  0.00    -0.420 OA
BRANCH  18  25
ATOM     20  C   LIG    1       -1.360   7.015  -1.847  0.00  0.00    +0.090 C 
ATOM     21  C   LIG    1       -1.606   6.098  -0.677  0.00  0.00    -0.100 A 
ATOM     22  C   LIG    1       -2.256   6.573   0.448  0.00  0.00    +0.050 A 
ATOM     23  C   LIG    1       -2.487   5.739   1.527  0.00  0.00    +0.000 A 
ATOM     24  C   LIG    1       -2.074   4.424   1.487  0.00  0.00    -0.020 A 
ATOM     25  C   LIG    1       -1.411   3.937   0.356  0.00  0.00    -0.170 A 
ATOM     26  C   LIG    1       -2.331   3.515   2.662  0.00  0.00    +0.100 C 
ATOM     27  C   LIG    1       -1.182   4.787  -0.731  0.00  0.00    +0.060 A 
ENDBRANCH  18  25
ENDBRANCH  17  18
ENDBRANCH  16  17
ENDBRANCH   1  16
TORSDOF 8
