REMARK  Name = ZINCrH000004mRln.0
REMARK                            x       y       z     vdW  Elec       q    Type
REMARK                         _______ _______ _______ _____ _____    ______ ____
ROOT
ATOM      1  C   LIG    1       -3.650  -1.999   0.303  0.00  0.00    +0.090 A 
ATOM      2  C   LIG    1       -3.620  -0.617   0.210  0.00  0.00    -0.010 A 
ATOM      3  C   LIG    1       -2.409   0.044   0.116  0.00  0.00    +0.030 A 
ATOM      4  C   LIG    1       -1.222  -0.675   0.103  0.00  0.00    +0.150 A 
ATOM      5  C   LIG    1       -1.249  -2.061   0.195  0.00  0.00    -0.050 A 
ATOM      6  C   LIG    1       -2.461  -2.723   0.295  0.00  0.00    +0.130 A 
ENDROOT
BRANCH   4   7
ATOM      7  N   LIG    1        0.002  -0.004   0.002  0.00  0.00    -0.660 N 
ATOM      8  H   LIG    1        0.787  -0.357   0.450  0.00  0.00    +0.420 HD
ATOM      9  C   LIG    1        0.091   1.132  -0.718  0.00  0.00    +0.610 C 
ATOM     10  O   LIG    1       -0.867   1.521  -1.360  0.00  0.00    -0.500 OA
BRANCH   9  11
ATOM     11  C   LIG    1        1.342   1.895  -0.732  0.00  0.00    -0.090 A 
ATOM     12  C   LIG    1        1.569   3.053  -1.419  0.00  0.00    +0.050 A 
ATOM     13  C   LIG    1        2.892   3.434  -1.145  0.00  0.00    -0.070 A 
ATOM     14  C   LIG    1        3.411   2.499  -0.319  0.00  0.00    +0.210 A 
ATOM     15  O   LIG    1        2.475   1.573  -0.073  0.00  0.00    -0.170 OA
ENDBRANCH   9  11
ENDBRANCH   4   7
BRANCH   1  17
ATOM     16  C   LIG    1       -6.021  -1.842   0.404  0.00  0.00    +0.250 C 
ATOM     17  O   LIG    1       -4.841  -2.648   0.402  0.00  0.00    -0.310 OA
ENDBRANCH   1  17
BRANCH   6  18
ATOM     18  O   LIG    1       -2.490  -4.080   0.386  0.00  0.00    -0.300 OA
BRANCH  18  19
ATOM     19  C   LIG    1       -1.232  -4.758   0.371  0.00  0.00    +0.310 C 
BRANCH  19  20
ATOM     20  C   LIG    1       -1.461  -6.243   0.479  0.00  0.00    +0.050 A 
ATOM     21  C   LIG    1       -2.664  -6.850   0.581  0.00  0.00    +0.130 A 
ATOM     22  N   LIG    1       -2.432  -8.197   0.654  0.00  0.00    -0.360 N 
ATOM     23  C   LIG    1       -3.265  -9.272   0.764  0.00  0.00    +0.230 A 
ATOM     24  C   LIG    1       -2.766 -10.525   0.824  0.00  0.00    +0.010 A 
ATOM     25  C   LIG    1       -1.379 -10.738   0.773  0.00  0.00    +0.040 A 
ATOM     26  C   LIG    1       -0.537  -9.675   0.663  0.00  0.00    +0.070 A 
ATOM     27  C   LIG    1       -1.074  -8.373   0.602  0.00  0.00    +0.230 A 
ATOM     28  N   LIG    1       -0.509  -7.179   0.497  0.00  0.00    -0.480 NA
ENDBRANCH  19  20
ENDBRANCH  18  19
ENDBRANCH   6  18
TORSDOF 6
