REMARK  Name = ZINCrH000004v9JE.0
REMARK                            x       y       z     vdW  Elec       q    Type
REMARK                         _______ _______ _______ _____ _____    ______ ____
ROOT
ATOM      1  O   LIG    1        2.038   0.068   0.174  0.00  0.00    -0.510 OA
ATOM      2  C   LIG    1        3.213   0.368   0.092  0.00  0.00    +0.570 C 
ATOM      3  N   LIG    1        3.571   1.659  -0.058  0.00  0.00    -0.670 N 
ATOM      4  H   LIG    1        4.503   1.891  -0.191  0.00  0.00    +0.420 HD
ENDROOT
BRANCH   3   5
ATOM      5  C   LIG    1        2.596   2.664  -0.020  0.00  0.00    +0.170 A 
ATOM      6  C   LIG    1        2.892   3.896   0.546  0.00  0.00    +0.030 A 
ATOM      7  C   LIG    1        1.929   4.887   0.588  0.00  0.00    +0.090 A 
ATOM      8  C   LIG    1        0.671   4.657   0.057  0.00  0.00    +0.010 A 
ATOM      9  O   LIG    1       -0.434   5.456  -0.029  0.00  0.00    -0.290 OA
ATOM     10  C   LIG    1       -1.534   4.563  -0.284  0.00  0.00    +0.570 C 
ATOM     11  O   LIG    1       -0.920   3.446  -0.953  0.00  0.00    -0.280 OA
ATOM     12  F   LIG    1       -2.482   5.175  -1.111  0.00  0.00    -0.110 F 
ATOM     13  F   LIG    1       -2.124   4.154   0.917  0.00  0.00    -0.150 F 
ATOM     14  C   LIG    1        0.371   3.421  -0.511  0.00  0.00    +0.050 A 
ATOM     15  C   LIG    1        1.334   2.427  -0.549  0.00  0.00    +0.070 A 
ENDBRANCH   3   5
BRANCH   2  16
ATOM     16  C   LIG    1        4.248  -0.681   0.156  0.00  0.00    -0.200 A 
ATOM     17  C   LIG    1        5.600  -0.338   0.061  0.00  0.00    +0.160 A 
ATOM     18  C   LIG    1        6.563  -1.319   0.122  0.00  0.00    -0.050 A 
ATOM     19  C   LIG    1        6.193  -2.652   0.277  0.00  0.00    +0.310 A 
ATOM     20  C   LIG    1        4.847  -2.997   0.372  0.00  0.00    -0.140 A 
ATOM     21  C   LIG    1        3.879  -2.020   0.317  0.00  0.00    +0.230 A 
BRANCH  20  22
ATOM     22  N   LIG    1        4.457  -4.415   0.537  0.00  0.00    +0.050 N 
ATOM     23  O   LIG    1        5.312  -5.266   0.710  0.00  0.00    -0.200 OA
ATOM     24  O   LIG    1        3.282  -4.732   0.500  0.00  0.00    -0.140 OA
ENDBRANCH  20  22
BRANCH  19  25
ATOM     25  N   LIG    1        7.168  -3.641   0.338  0.00  0.00    -0.670 N 
ATOM     26  H   LIG    1        6.911  -4.577   0.339  0.00  0.00    +0.420 HD
BRANCH  25  27
ATOM     27  C   LIG    1        8.584  -3.270   0.400  0.00  0.00    +0.200 C 
ATOM     28  C   LIG    1        9.570  -4.106  -0.419  0.00  0.00    +0.020 C 
ATOM     29  C   LIG    1        9.537  -4.237   1.105  0.00  0.00    +0.030 C 
ENDBRANCH  25  27
ENDBRANCH  19  25
ENDBRANCH   2  16
TORSDOF 5
