REMARK  Name = ZINCqH0000032TMl.0
REMARK                            x       y       z     vdW  Elec       q    Type
REMARK                         _______ _______ _______ _____ _____    ______ ____
ROOT
ATOM      1  C   LIG    1       -3.306  -4.032   0.130  0.00  0.00    +0.530 C 
ENDROOT
BRANCH   1   2
ATOM      2  N   LIG    1       -2.790  -2.699   0.447  0.00  0.00    -0.380 N 
ATOM      3  N   LIG    1       -1.452  -2.282   0.380  0.00  0.00    -0.270 NA
ATOM      4  C   LIG    1       -1.406  -1.033   0.743  0.00  0.00    +0.300 A 
ATOM      5  O   LIG    1       -2.656  -0.612   1.036  0.00  0.00    -0.210 OA
ATOM      6  C   LIG    1       -3.512  -1.633   0.856  0.00  0.00    +0.420 A 
ATOM      7  S   LIG    1       -5.206  -1.591   1.100  0.00  0.00    -0.450 S 
BRANCH   4   8
ATOM      8  C   LIG    1       -0.183  -0.205   0.816  0.00  0.00    -0.030 A 
ATOM      9  C   LIG    1       -0.263   1.129   1.215  0.00  0.00    +0.090 A 
ATOM     10  C   LIG    1        0.882   1.897   1.281  0.00  0.00    +0.050 A 
ATOM     11  C   LIG    1        2.107   1.347   0.953  0.00  0.00    +0.080 A 
ATOM     12  C   LIG    1        2.194   0.023   0.555  0.00  0.00    -0.040 A 
ATOM     13 CL   LIG    1        3.737  -0.659   0.144  0.00  0.00    -0.050 Cl
ATOM     14  C   LIG    1        1.056  -0.755   0.485  0.00  0.00    +0.090 A 
ENDBRANCH   4   8
ENDBRANCH   1   2
BRANCH   1  15
ATOM     15  N   LIG    1       -3.300  -4.226  -1.327  0.00  0.00    -0.530 NA
BRANCH  15  16
ATOM     16  C   LIG    1       -1.983  -4.682  -1.791  0.00  0.00    +0.200 C 
ATOM     17  C   LIG    1       -1.745  -4.194  -3.231  0.00  0.00    +0.080 C 
ATOM     18  C   LIG    1       -0.516  -4.974  -3.766  0.00  0.00    -0.310 C 
ATOM     19  S   LIG    1       -0.831  -6.676  -3.164  0.00  0.00    +2.390 S 
ATOM     20  O   LIG    1        0.374  -7.224  -2.650  0.00  0.00    -0.930 OA
ATOM     21  O   LIG    1       -1.576  -7.391  -4.141  0.00  0.00    -0.930 OA
ATOM     22  C   LIG    1       -1.933  -6.222  -1.779  0.00  0.00    -0.360 C 
ENDBRANCH  15  16
BRANCH  15  23
ATOM     23  C   LIG    1       -4.356  -5.161  -1.738  0.00  0.00    +0.210 C 
BRANCH  23  24
ATOM     24  C   LIG    1       -4.354  -5.293  -3.262  0.00  0.00    +0.020 C 
BRANCH  24  26
ATOM     25  C   LIG    1       -5.545  -6.277  -5.226  0.00  0.00    +0.010 C 
ATOM     26  C   LIG    1       -5.547  -6.145  -3.701  0.00  0.00    +0.010 C 
ENDBRANCH  24  26
ENDBRANCH  23  24
ENDBRANCH  15  23
ENDBRANCH   1  15
TORSDOF 7
