REMARK  Name = ZINCnE000001Uaci.1
REMARK                            x       y       z     vdW  Elec       q    Type
REMARK                         _______ _______ _______ _____ _____    ______ ____
ROOT
ATOM      1  O   LIG    1       -1.607  -1.972   1.774  0.00  0.00    -1.050 OA
ATOM      2  S   LIG    1       -2.289  -0.915   1.112  0.00  0.00    +2.570 S 
ATOM      3  O   LIG    1       -2.642   0.303   1.753  0.00  0.00    -1.030 OA
ENDROOT
BRANCH   2   4
ATOM      4  C   LIG    1       -3.788  -1.603   0.492  0.00  0.00    -0.630 A 
ATOM      5  C   LIG    1       -4.087  -2.932   0.726  0.00  0.00    +0.170 A 
ATOM      6  C   LIG    1       -5.265  -3.473   0.245  0.00  0.00    -0.010 A 
ATOM      7  C   LIG    1       -6.142  -2.687  -0.482  0.00  0.00    +0.130 A 
ATOM      8  C   LIG    1       -5.841  -1.355  -0.723  0.00  0.00    +0.000 A 
ATOM      9  F   LIG    1       -6.696  -0.587  -1.433  0.00  0.00    -0.120 F 
ATOM     10  F   LIG    1       -7.290  -3.218  -0.958  0.00  0.00    -0.120 F 
ATOM     11  C   LIG    1       -4.663  -0.814  -0.235  0.00  0.00    +0.200 A 
ATOM     12  F   LIG    1       -4.368   0.484  -0.468  0.00  0.00    -0.090 F 
ENDBRANCH   2   4
BRANCH   2  13
ATOM     13  N   LIG    1       -1.361  -0.505  -0.196  0.00  0.00    -1.140 NA
BRANCH  13  14
ATOM     14  C   LIG    1        0.002  -0.004   0.002  0.00  0.00    +0.230 C 
ATOM     15  C   LIG    1       -0.019   1.523   0.007  0.00  0.00    +0.000 C 
ATOM     16  C   LIG    1        1.430   2.027  -0.004  0.00  0.00    +0.000 C 
ATOM     17  C   LIG    1        2.037   1.718  -1.371  0.00  0.00    +0.060 C 
ATOM     18  C   LIG    1        1.824   0.271  -1.730  0.00  0.00    -0.090 A 
ATOM     19  C   LIG    1        2.612  -0.267  -2.739  0.00  0.00    -0.020 A 
ATOM     20  C   LIG    1        2.458  -1.583  -3.123  0.00  0.00    -0.030 A 
ATOM     21  C   LIG    1        1.512  -2.374  -2.498  0.00  0.00    -0.030 A 
ATOM     22  C   LIG    1        0.730  -1.842  -1.494  0.00  0.00    +0.050 A 
ATOM     23  C   LIG    1        0.885  -0.518  -1.105  0.00  0.00    -0.020 A 
ENDBRANCH  13  14
ENDBRANCH   2  13
TORSDOF 3
