REMARK  Name = ZINCpe00000FUplc.0
REMARK                            x       y       z     vdW  Elec       q    Type
REMARK                         _______ _______ _______ _____ _____    ______ ____
ROOT
ATOM      1  N   LIG    1       -0.680   2.691   3.851  0.00  0.00    -0.520 NA
ATOM      2  C   LIG    1       -0.841   1.235   3.966  0.00  0.00    +0.190 C 
ATOM      3  C   LIG    1       -0.293   0.563   2.705  0.00  0.00    +0.190 C 
ATOM      4  N   LIG    1       -1.008   1.078   1.529  0.00  0.00    -0.530 NA
ATOM      5  C   LIG    1       -0.847   2.534   1.414  0.00  0.00    +0.180 C 
ATOM      6  C   LIG    1       -1.395   3.206   2.675  0.00  0.00    +0.190 C 
ENDROOT
BRANCH   1   7
ATOM      7  C   LIG    1       -1.126   3.368   5.076  0.00  0.00    +0.210 C 
BRANCH   7   9
ATOM      8  O   LIG    1        0.776   2.328   6.007  0.00  0.00    -0.520 OA
ATOM      9  C   LIG    1       -0.212   2.999   6.216  0.00  0.00    +0.520 C 
ATOM     10  N   LIG    1       -0.493   3.414   7.467  0.00  0.00    -0.620 N 
ATOM     11  C   LIG    1       -1.683   4.234   7.744  0.00  0.00    +0.240 C 
ATOM     12  C   LIG    1       -2.450   3.588   8.909  0.00  0.00    +0.220 C 
ATOM     13  O   LIG    1       -1.553   3.381  10.003  0.00  0.00    -0.380 OA
ATOM     14  C   LIG    1       -0.480   2.481   9.718  0.00  0.00    +0.220 C 
ATOM     15  C   LIG    1        0.385   3.066   8.595  0.00  0.00    +0.260 C 
ENDBRANCH   7   9
ENDBRANCH   1   7
BRANCH   4  16
ATOM     16  C   LIG    1       -0.561   0.401   0.303  0.00  0.00    +0.160 C 
BRANCH  16  17
ATOM     17  C   LIG    1       -1.183  -0.995   0.237  0.00  0.00    +0.260 C 
BRANCH  17  18
ATOM     18  C   LIG    1       -0.629  -1.736  -0.952  0.00  0.00    -0.110 A 
ATOM     19  C   LIG    1       -1.316  -1.733  -2.151  0.00  0.00    +0.030 A 
ATOM     20  C   LIG    1       -0.807  -2.413  -3.242  0.00  0.00    +0.020 A 
ATOM     21  C   LIG    1        0.389  -3.096  -3.135  0.00  0.00    +0.020 A 
ATOM     22  C   LIG    1        1.078  -3.101  -1.936  0.00  0.00    +0.030 A 
ATOM     23  C   LIG    1        0.572  -2.416  -0.846  0.00  0.00    -0.030 A 
ATOM     24 CL   LIG    1        1.440  -2.414   0.658  0.00  0.00    -0.060 Cl
ENDBRANCH  17  18
BRANCH  17  25
ATOM     25  O   LIG    1       -2.602  -0.879   0.106  0.00  0.00    -0.540 OA
ATOM     26  H   LIG    1       -2.886  -0.402  -0.685  0.00  0.00    +0.370 HD
ENDBRANCH  17  25
ENDBRANCH  16  17
ENDBRANCH   4  16
TORSDOF 6
