REMARK  Name = ZINCpk00000e9aSV.0
REMARK                            x       y       z     vdW  Elec       q    Type
REMARK                         _______ _______ _______ _____ _____    ______ ____
ROOT
ATOM      1  O   LIG    1       -4.711  -1.481  -2.967  0.00  0.00    -0.330 OA
ENDROOT
BRANCH   1   2
ATOM      2  C   LIG    1       -3.559  -1.039  -2.438  0.00  0.00    +0.450 C 
ATOM      3  O   LIG    1       -3.200   0.097  -2.637  0.00  0.00    -0.490 OA
BRANCH   2   4
ATOM      4  C   LIG    1       -2.714  -1.960  -1.596  0.00  0.00    +0.430 C 
BRANCH   4  10
ATOM      5  C   LIG    1       -0.065   1.542   0.072  0.00  0.00    +0.090 C 
ATOM      6  C   LIG    1       -0.039   0.013   0.062  0.00  0.00    +0.120 C 
ATOM      7  N   LIG    1        0.582  -0.487  -1.177  0.00  0.00    -0.720 N 
ATOM      8  H   LIG    1        1.490  -0.326  -1.476  0.00  0.00    +0.440 HD
ATOM      9  C   LIG    1       -0.363  -1.211  -1.812  0.00  0.00    +0.710 C 
ATOM     10  N   LIG    1       -1.519  -1.246  -1.140  0.00  0.00    -0.570 N 
ATOM     11  O   LIG    1       -0.182  -1.770  -2.876  0.00  0.00    -0.530 OA
ATOM     12  C   LIG    1        0.703  -0.520   1.289  0.00  0.00    +0.090 C 
ATOM     13  C   LIG    1       -1.448  -0.544   0.008  0.00  0.00    +0.540 C 
ATOM     14  O   LIG    1       -2.328  -0.390   0.828  0.00  0.00    -0.450 OA
ENDBRANCH   4  10
ENDBRANCH   2   4
ENDBRANCH   1   2
BRANCH   1  15
ATOM     15  C   LIG    1       -5.473  -0.539  -3.767  0.00  0.00    +0.270 C 
BRANCH  15  16
ATOM     16  C   LIG    1       -6.725  -1.208  -4.273  0.00  0.00    +0.520 C 
ATOM     17  N   LIG    1       -7.592  -0.521  -5.043  0.00  0.00    -0.670 N 
ATOM     18  H   LIG    1       -7.444   0.421  -5.218  0.00  0.00    +0.420 HD
ATOM     19  O   LIG    1       -6.953  -2.365  -3.987  0.00  0.00    -0.490 OA
BRANCH  17  20
ATOM     20  C   LIG    1       -8.708  -1.168  -5.590  0.00  0.00    +0.130 A 
ATOM     21  C   LIG    1       -9.347  -2.174  -4.879  0.00  0.00    +0.070 A 
ATOM     22  C   LIG    1      -10.450  -2.807  -5.419  0.00  0.00    +0.070 A 
ATOM     23  C   LIG    1      -10.912  -2.447  -6.672  0.00  0.00    -0.080 A 
ATOM     24  C   LIG    1      -10.275  -1.449  -7.387  0.00  0.00    +0.040 A 
ATOM     25 BR   LIG    1      -12.418  -3.321  -7.409  0.00  0.00    -0.030 Br
ATOM     26  C   LIG    1       -9.174  -0.808  -6.850  0.00  0.00    +0.080 A 
ATOM     27  F   LIG    1       -8.551   0.167  -7.548  0.00  0.00    -0.130 F 
ENDBRANCH  17  20
ENDBRANCH  15  16
ENDBRANCH   1  15
TORSDOF 6
