REMARK  Name = ZINCnE000001Iz4g.1
REMARK                            x       y       z     vdW  Elec       q    Type
REMARK                         _______ _______ _______ _____ _____    ______ ____
ROOT
ATOM      1  N   LIG    1       -2.465   4.306   0.690  0.00  0.00    -1.090 NA
ENDROOT
BRANCH   1   6
ATOM      2  C   LIG    1        1.085   3.385   0.342  0.00  0.00    -0.100 A 
ATOM      3  C   LIG    1        1.000   1.994   0.432  0.00  0.00    -0.060 A 
ATOM      4  C   LIG    1       -0.227   1.388   0.607  0.00  0.00    +0.040 A 
ATOM      5  C   LIG    1       -1.375   2.152   0.687  0.00  0.00    -0.140 A 
ATOM      6  C   LIG    1       -1.301   3.538   0.603  0.00  0.00    +0.270 A 
ATOM      7  C   LIG    1       -0.073   4.157   0.428  0.00  0.00    -0.020 A 
BRANCH   2  10
ATOM      8  C   LIG    1        3.831   5.682  -0.931  0.00  0.00    +0.280 C 
ATOM      9  N   LIG    1        2.513   5.102  -0.663  0.00  0.00    -0.620 N 
ATOM     10  C   LIG    1        2.399   4.037   0.156  0.00  0.00    +0.570 C 
ATOM     11  O   LIG    1        3.377   3.613   0.741  0.00  0.00    -0.550 OA
ATOM     12  C   LIG    1        1.319   5.678  -1.285  0.00  0.00    +0.280 C 
ENDBRANCH   2  10
ENDBRANCH   1   6
BRANCH   1  13
ATOM     13  S   LIG    1       -3.932   3.567   0.899  0.00  0.00    +2.600 S 
ATOM     14  O   LIG    1       -3.902   2.974   2.190  0.00  0.00    -1.020 OA
ATOM     15  O   LIG    1       -4.182   2.829  -0.289  0.00  0.00    -1.020 OA
BRANCH  13  16
ATOM     16  C   LIG    1       -5.152   4.837   0.963  0.00  0.00    -0.590 A 
ATOM     17  C   LIG    1       -5.500   5.400   2.176  0.00  0.00    +0.150 A 
ATOM     18  C   LIG    1       -6.454   6.401   2.227  0.00  0.00    -0.050 A 
ATOM     19  C   LIG    1       -7.067   6.830   1.063  0.00  0.00    +0.080 A 
ATOM     20  C   LIG    1       -6.722   6.263  -0.150  0.00  0.00    -0.050 A 
ATOM     21 CL   LIG    1       -7.491   6.801  -1.610  0.00  0.00    -0.060 Cl
ATOM     22 CL   LIG    1       -6.886   7.113   3.750  0.00  0.00    -0.060 Cl
ATOM     23  C   LIG    1       -5.764   5.266  -0.200  0.00  0.00    +0.150 A 
ENDBRANCH  13  16
ENDBRANCH   1  13
TORSDOF 4
