REMARK  Name = ZINCrD00000F5Lzp.0
REMARK                            x       y       z     vdW  Elec       q    Type
REMARK                         _______ _______ _______ _____ _____    ______ ____
ROOT
ATOM      1  C   LIG    1        5.403   4.691  -2.438  0.00  0.00    +0.280 C 
ATOM      2  N   LIG    1        5.527   3.800  -1.281  0.00  0.00    -0.620 N 
ATOM      3  C   LIG    1        6.257   2.671  -1.376  0.00  0.00    +0.550 C 
ATOM      4  O   LIG    1        6.360   1.931  -0.415  0.00  0.00    -0.520 OA
ENDROOT
BRANCH   3   5
ATOM      5  C   LIG    1        6.923   2.334  -2.633  0.00  0.00    -0.080 C 
ATOM      6  C   LIG    1        7.654   1.203  -2.728  0.00  0.00    +0.140 C 
BRANCH   6   7
ATOM      7  C   LIG    1        8.324   0.865  -3.991  0.00  0.00    -0.070 A 
ATOM      8  C   LIG    1        8.202   1.709  -5.100  0.00  0.00    +0.050 A 
ATOM      9  C   LIG    1        8.838   1.387  -6.281  0.00  0.00    +0.070 A 
ATOM     10  C   LIG    1        9.586   0.223  -6.377  0.00  0.00    +0.050 A 
ATOM     11  C   LIG    1        9.708  -0.624  -5.290  0.00  0.00    -0.180 A 
ATOM     12  C   LIG    1       10.520  -1.888  -5.419  0.00  0.00    +0.300 C 
ATOM     13  O   LIG    1       10.818  -2.394  -4.114  0.00  0.00    -0.380 OA
ATOM     14  C   LIG    1        9.668  -2.460  -3.263  0.00  0.00    +0.440 C 
ATOM     15  O   LIG    1        9.205  -1.129  -3.017  0.00  0.00    -0.320 OA
ATOM     16  F   LIG    1        8.727   2.205  -7.350  0.00  0.00    -0.130 F 
ATOM     17  C   LIG    1        9.085  -0.311  -4.094  0.00  0.00    +0.150 A 
ENDBRANCH   6   7
ENDBRANCH   3   5
BRANCH   2  18
ATOM     18  C   LIG    1        4.860   4.138  -0.021  0.00  0.00    +0.320 C 
BRANCH  18  19
ATOM     19  C   LIG    1        3.454   3.534  -0.012  0.00  0.00    +0.170 C 
BRANCH  19  20
ATOM     20  O   LIG    1        3.548   2.108  -0.020  0.00  0.00    -0.290 OA
BRANCH  20  21
ATOM     21  C   LIG    1        2.380   1.412  -0.013  0.00  0.00    +0.100 A 
ATOM     22  C   LIG    1        1.170   2.087   0.002  0.00  0.00    -0.050 A 
ATOM     23  C   LIG    1       -0.017   1.378   0.010  0.00  0.00    +0.040 A 
ATOM     24  C   LIG    1        0.002  -0.004   0.002  0.00  0.00    +0.000 A 
ATOM     25  C   LIG    1        1.208  -0.682  -0.013  0.00  0.00    +0.020 A 
ATOM     26  C   LIG    1        2.397   0.023  -0.020  0.00  0.00    +0.070 A 
ATOM     27  F   LIG    1        3.575  -0.639  -0.035  0.00  0.00    -0.130 F 
ENDBRANCH  20  21
ENDBRANCH  19  20
ENDBRANCH  18  19
ENDBRANCH   2  18
TORSDOF 6
