REMARK  Name = ZINCkj00000y7ynR.0
REMARK                            x       y       z     vdW  Elec       q    Type
REMARK                         _______ _______ _______ _____ _____    ______ ____
ROOT
ATOM      1  C   LIG    1        2.865   5.998  -1.185  0.00  0.00    +0.150 C 
ATOM      2  C   LIG    1        3.555   5.831  -2.562  0.00  0.00    +0.080 C 
ATOM      3  C   LIG    1        3.863   4.317  -2.615  0.00  0.00    +0.080 C 
ATOM      4  C   LIG    1        2.882   3.673  -1.617  0.00  0.00    +0.260 C 
ATOM      5  N   LIG    1        2.051   4.762  -1.061  0.00  0.00    -0.390 N 
ATOM      6  H   LIG    1        1.197   4.854  -1.591  0.00  0.00    +0.420 HD
ENDROOT
BRANCH   1   7
ATOM      7  C   LIG    1        1.969   7.239  -1.175  0.00  0.00    +0.310 C 
BRANCH   7  10
ATOM      8  C   LIG    1        2.887   8.321   1.282  0.00  0.00    +0.100 C 
ATOM      9  C   LIG    1        3.192   9.005  -0.025  0.00  0.00    +0.510 C 
ATOM     10  N   LIG    1        2.803   8.443  -1.187  0.00  0.00    -0.580 N 
ATOM     11  O   LIG    1        3.788  10.062  -0.033  0.00  0.00    -0.500 OA
BRANCH  10  12
ATOM     12  C   LIG    1        3.213   9.037  -2.462  0.00  0.00    +0.180 C 
ATOM     13  C   LIG    1        4.371  10.037  -2.435  0.00  0.00    +0.060 C 
ATOM     14  C   LIG    1        2.941  10.529  -2.666  0.00  0.00    +0.020 C 
ENDBRANCH  10  12
ENDBRANCH   7  10
ENDBRANCH   1   7
BRANCH   5  15
ATOM     15  C   LIG    1        1.746   4.496   0.351  0.00  0.00    +0.370 C 
BRANCH  15  16
ATOM     16  C   LIG    1        0.857   3.283   0.453  0.00  0.00    -0.000 A 
ATOM     17  C   LIG    1        1.266   2.010   0.660  0.00  0.00    -0.050 A 
ATOM     18  C   LIG    1        0.131   1.193   0.688  0.00  0.00    +0.250 A 
ATOM     19  N   LIG    1       -0.921   1.948   0.499  0.00  0.00    -0.250 NA
ATOM     20  N   LIG    1       -0.489   3.272   0.354  0.00  0.00    -0.360 N 
ATOM     21  C   LIG    1       -1.346   4.439   0.129  0.00  0.00    +0.370 C 
ENDBRANCH  15  16
ENDBRANCH   5  15
TORSDOF 5
