REMARK  Name = ZINCkj00000y7ynR.1
REMARK                            x       y       z     vdW  Elec       q    Type
REMARK                         _______ _______ _______ _____ _____    ______ ____
ROOT
ATOM      1  C   LIG    1       -1.395   1.354   0.959  0.00  0.00    +0.150 C 
ATOM      2  C   LIG    1       -0.766   0.488  -0.154  0.00  0.00    +0.090 C 
ATOM      3  C   LIG    1       -1.512   0.957  -1.431  0.00  0.00    +0.080 C 
ATOM      4  C   LIG    1       -1.703   2.467  -1.146  0.00  0.00    +0.250 C 
ATOM      5  N   LIG    1       -1.973   2.546   0.306  0.00  0.00    -0.380 N 
ATOM      6  H   LIG    1       -2.969   2.571   0.465  0.00  0.00    +0.430 HD
ENDROOT
BRANCH   1   7
ATOM      7  C   LIG    1       -0.320   1.774   1.962  0.00  0.00    +0.320 C 
BRANCH   7  10
ATOM      8  C   LIG    1       -1.835   0.695   4.107  0.00  0.00    +0.100 C 
ATOM      9  C   LIG    1       -0.491   0.118   3.741  0.00  0.00    +0.510 C 
ATOM     10  N   LIG    1        0.176   0.592   2.671  0.00  0.00    -0.590 N 
ATOM     11  O   LIG    1       -0.011  -0.772   4.410  0.00  0.00    -0.500 OA
BRANCH  10  12
ATOM     12  C   LIG    1        1.398  -0.076   2.215  0.00  0.00    +0.180 C 
ATOM     13  C   LIG    1        1.661  -1.494   2.726  0.00  0.00    +0.050 C 
ATOM     14  C   LIG    1        2.496  -0.324   3.251  0.00  0.00    +0.020 C 
ENDBRANCH  10  12
ENDBRANCH   7  10
ENDBRANCH   1   7
BRANCH   5  15
ATOM     15  C   LIG    1       -1.353   3.758   0.859  0.00  0.00    +0.360 C 
BRANCH  15  16
ATOM     16  C   LIG    1       -2.079   4.974   0.343  0.00  0.00    -0.000 A 
ATOM     17  C   LIG    1       -3.080   5.631   0.972  0.00  0.00    -0.050 A 
ATOM     18  C   LIG    1       -3.473   6.699   0.158  0.00  0.00    +0.250 A 
ATOM     19  N   LIG    1       -2.733   6.682  -0.922  0.00  0.00    -0.250 NA
ATOM     20  N   LIG    1       -1.842   5.606  -0.825  0.00  0.00    -0.360 N 
ATOM     21  C   LIG    1       -0.834   5.230  -1.819  0.00  0.00    +0.370 C 
ENDBRANCH  15  16
ENDBRANCH   5  15
TORSDOF 5
