REMARK  Name = ZINCvU0000000FCv.0
REMARK                            x       y       z     vdW  Elec       q    Type
REMARK                         _______ _______ _______ _____ _____    ______ ____
ROOT
ATOM      1  N   LIG    1       -0.699   1.544   1.212  0.00  0.00    -0.530 N 
ATOM      2  C   LIG    1       -1.186   0.675   2.082  0.00  0.00    +0.540 C 
ATOM      3  C   LIG    1       -1.862   1.307   3.277  0.00  0.00    +0.060 C 
ATOM      4  S   LIG    1       -1.694   3.096   2.965  0.00  0.00    -0.070 S 
ATOM      5  O   LIG    1       -1.097  -0.525   1.934  0.00  0.00    -0.470 OA
ATOM      6  C   LIG    1       -0.823   2.889   1.435  0.00  0.00    +0.390 C 
ATOM      7  N   LIG    1       -0.382   3.849   0.658  0.00  0.00    -0.460 NA
ENDROOT
BRANCH   7   8
ATOM      8  C   LIG    1       -0.578   5.160   1.007  0.00  0.00    +0.070 A 
ATOM      9  C   LIG    1       -1.826   5.581   1.470  0.00  0.00    +0.030 A 
ATOM     10  C   LIG    1       -2.018   6.900   1.826  0.00  0.00    -0.030 A 
ATOM     11  C   LIG    1       -0.976   7.809   1.715  0.00  0.00    +0.100 A 
ATOM     12  C   LIG    1        0.265   7.396   1.250  0.00  0.00    +0.020 A 
ATOM     13  C   LIG    1        0.467   6.078   0.897  0.00  0.00    +0.080 A 
BRANCH  11  14
ATOM     14  O   LIG    1       -1.171   9.110   2.062  0.00  0.00    -0.320 OA
BRANCH  14  15
ATOM     15  C   LIG    1       -2.471   9.467   2.533  0.00  0.00    +0.590 C 
ATOM     16  F   LIG    1       -2.774   8.723   3.678  0.00  0.00    -0.200 F 
ATOM     17  F   LIG    1       -3.418   9.198   1.538  0.00  0.00    -0.200 F 
ENDBRANCH  14  15
ENDBRANCH  11  14
ENDBRANCH   7   8
BRANCH   1  18
ATOM     18  C   LIG    1       -0.017   1.065   0.007  0.00  0.00    +0.240 C 
ATOM     19  C   LIG    1       -0.754   1.575  -1.232  0.00  0.00    +0.050 C 
BRANCH  18  21
ATOM     20  C   LIG    1        2.194   0.974   1.167  0.00  0.00    +0.010 C 
ATOM     21  C   LIG    1        1.422   1.584  -0.005  0.00  0.00    +0.030 C 
ENDBRANCH  18  21
ENDBRANCH   1  18
BRANCH   3  22
ATOM     22  C   LIG    1       -1.148   0.913   4.571  0.00  0.00    +0.120 C 
BRANCH  22  23
ATOM     23  C   LIG    1       -1.913   1.454   5.752  0.00  0.00    +0.520 C 
ATOM     24  N   LIG    1       -1.468   1.228   7.003  0.00  0.00    -0.670 N 
ATOM     25  H   LIG    1       -0.693   0.662   7.148  0.00  0.00    +0.410 HD
ATOM     26  O   LIG    1       -2.929   2.092   5.575  0.00  0.00    -0.510 OA
BRANCH  24  27
ATOM     27  C   LIG    1       -2.122   1.811   8.094  0.00  0.00    +0.140 A 
ATOM     28  C   LIG    1       -1.395   2.221   9.204  0.00  0.00    -0.010 A 
ATOM     29  C   LIG    1       -2.044   2.801  10.277  0.00  0.00    +0.030 A 
ATOM     30  C   LIG    1       -3.417   2.963  10.251  0.00  0.00    -0.010 A 
ATOM     31  C   LIG    1       -4.144   2.550   9.150  0.00  0.00    +0.030 A 
ATOM     32  C   LIG    1       -3.501   1.975   8.072  0.00  0.00    +0.020 A 
ENDBRANCH  24  27
ENDBRANCH  22  23
ENDBRANCH   3  22
TORSDOF 8
