REMARK  Name = ZINCkj000005l1Ce.0
REMARK                            x       y       z     vdW  Elec       q    Type
REMARK                         _______ _______ _______ _____ _____    ______ ____
ROOT
ATOM      1  C   LIG    1        1.487   1.879   0.006  0.00  0.00    +0.170 C 
ATOM      2  C   LIG    1       -0.021   1.536   0.001  0.00  0.00    +0.120 C 
ATOM      3  C   LIG    1        0.007  -0.008  -0.012  0.00  0.00    +0.290 C 
ATOM      4  N   LIG    1        1.290  -0.381   0.595  0.00  0.00    -0.530 N 
ATOM      5  C   LIG    1        2.143   0.658   0.613  0.00  0.00    +0.490 C 
ATOM      6  O   LIG    1        3.273   0.622   1.052  0.00  0.00    -0.470 OA
ENDROOT
BRANCH   4   7
ATOM      7  C   LIG    1        1.589  -1.655   1.091  0.00  0.00    +0.130 A 
ATOM      8  C   LIG    1        2.872  -1.947   1.534  0.00  0.00    +0.000 A 
ATOM      9  C   LIG    1        3.162  -3.204   2.028  0.00  0.00    +0.040 A 
ATOM     10  C   LIG    1        2.178  -4.175   2.072  0.00  0.00    +0.010 A 
ATOM     11  C   LIG    1        0.900  -3.889   1.627  0.00  0.00    +0.050 A 
ATOM     12  C   LIG    1        0.603  -2.632   1.137  0.00  0.00    -0.010 A 
ENDBRANCH   4   7
BRANCH   1  13
ATOM     13  N   LIG    1        1.971   2.095  -1.364  0.00  0.00    -0.500 N 
ATOM     14  H   LIG    1        1.408   2.803  -1.812  0.00  0.00    +0.440 HD
ATOM     15  H   LIG    1        1.903   1.233  -1.884  0.00  0.00    +0.420 HD
BRANCH  13  16
ATOM     16  C   LIG    1        3.372   2.535  -1.325  0.00  0.00    +0.380 C 
BRANCH  16  22
ATOM     17  C   LIG    1        4.560   0.385  -3.276  0.00  0.00    +0.330 C 
ATOM     18  N   LIG    1        4.384   1.808  -3.573  0.00  0.00    -0.460 N 
ATOM     19  C   LIG    1        4.700   2.430  -4.729  0.00  0.00    +0.460 A 
ATOM     20  N   LIG    1        4.406   3.697  -4.616  0.00  0.00    -0.490 NA
ATOM     21  C   LIG    1        3.893   3.925  -3.399  0.00  0.00    +0.230 A 
ATOM     22  C   LIG    1        3.868   2.756  -2.731  0.00  0.00    -0.130 A 
ENDBRANCH  16  22
ENDBRANCH  13  16
ENDBRANCH   1  13
TORSDOF 4
