REMARK  Name = ZINCvU000000091L.0
REMARK                            x       y       z     vdW  Elec       q    Type
REMARK                         _______ _______ _______ _____ _____    ______ ____
ROOT
ATOM      1  N   LIG    1       -1.273  -4.761   0.320  0.00  0.00    -0.520 N 
ATOM      2  C   LIG    1       -1.839  -4.912   1.544  0.00  0.00    +0.600 A 
ATOM      3  N   LIG    1       -3.054  -5.351   1.688  0.00  0.00    -0.500 NA
ATOM      4  C   LIG    1       -3.817  -5.691   0.627  0.00  0.00    +0.070 A 
ATOM      5  C   LIG    1       -3.298  -5.567  -0.657  0.00  0.00    -0.220 A 
ATOM      6  C   LIG    1       -4.252  -5.976  -1.678  0.00  0.00    +0.010 A 
ATOM      7  C   LIG    1       -5.427  -6.388  -1.201  0.00  0.00    -0.040 A 
ATOM      8  S   LIG    1       -5.462  -6.308   0.550  0.00  0.00    +0.220 S 
ATOM      9  C   LIG    1       -1.964  -5.077  -0.793  0.00  0.00    +0.560 A 
ATOM     10  O   LIG    1       -1.459  -4.947  -1.895  0.00  0.00    -0.500 OA
ENDROOT
BRANCH   6  11
ATOM     11  C   LIG    1       -3.943  -5.938  -3.127  0.00  0.00    -0.050 A 
ATOM     12  C   LIG    1       -3.416  -4.781  -3.700  0.00  0.00    +0.060 A 
ATOM     13  C   LIG    1       -3.126  -4.753  -5.049  0.00  0.00    +0.000 A 
ATOM     14  C   LIG    1       -3.366  -5.866  -5.834  0.00  0.00    -0.080 A 
ATOM     15  C   LIG    1       -3.894  -7.014  -5.273  0.00  0.00    -0.010 A 
ATOM     16  C   LIG    1       -3.052  -5.827  -7.308  0.00  0.00    +0.090 C 
ATOM     17  C   LIG    1       -4.184  -7.056  -3.924  0.00  0.00    +0.020 A 
ENDBRANCH   6  11
BRANCH   1  18
ATOM     18  C   LIG    1        0.098  -4.257   0.208  0.00  0.00    +0.350 C 
BRANCH  18  21
ATOM     19  N   LIG    1        1.228  -2.068  -0.015  0.00  0.00    -0.660 N 
ATOM     20  H   LIG    1        2.069  -2.544  -0.106  0.00  0.00    +0.410 HD
ATOM     21  C   LIG    1        0.074  -2.754   0.099  0.00  0.00    +0.500 C 
ATOM     22  O   LIG    1       -0.985  -2.162   0.113  0.00  0.00    -0.500 OA
BRANCH  19  28
ATOM     23  C   LIG    1        2.241   0.043  -0.608  0.00  0.00    -0.100 A 
ATOM     24  C   LIG    1        2.225   1.424  -0.592  0.00  0.00    +0.040 A 
ATOM     25  C   LIG    1        1.189   2.098   0.029  0.00  0.00    -0.010 A 
ATOM     26  C   LIG    1        0.166   1.391   0.636  0.00  0.00    +0.030 A 
ATOM     27  C   LIG    1        0.176   0.010   0.623  0.00  0.00    +0.010 A 
ATOM     28  C   LIG    1        1.215  -0.669  -0.000  0.00  0.00    +0.150 A 
BRANCH  23  29
ATOM     29  C   LIG    1        3.370  -0.690  -1.285  0.00  0.00    +0.020 C 
ATOM     30  C   LIG    1        4.678  -0.411  -0.541  0.00  0.00    +0.030 C 
BRANCH  29  32
ATOM     31  C   LIG    1        4.557  -1.041  -3.455  0.00  0.00    +0.010 C 
ATOM     32  C   LIG    1        3.495  -0.210  -2.732  0.00  0.00    +0.010 C 
ENDBRANCH  29  32
ENDBRANCH  23  29
ENDBRANCH  19  28
ENDBRANCH  18  21
ENDBRANCH   1  18
TORSDOF 6
