REMARK  Name = ZINCrH000004jbmc.0
REMARK                            x       y       z     vdW  Elec       q    Type
REMARK                         _______ _______ _______ _____ _____    ______ ____
ROOT
ATOM      1  N   LIG    1       -4.744  -2.926  -3.396  0.00  0.00    -0.680 N 
ATOM      2  H   LIG    1       -5.371  -2.625  -4.072  0.00  0.00    +0.410 HD
ATOM      3  C   LIG    1       -4.447  -2.130  -2.350  0.00  0.00    +0.510 C 
ATOM      4  O   LIG    1       -3.760  -2.551  -1.443  0.00  0.00    -0.510 OA
ENDROOT
BRANCH   1  10
ATOM      5  C   LIG    1       -2.775  -4.295  -3.679  0.00  0.00    -0.070 A 
ATOM      6  C   LIG    1       -2.189  -5.542  -3.784  0.00  0.00    +0.010 A 
ATOM      7  C   LIG    1       -2.970  -6.681  -3.727  0.00  0.00    +0.020 A 
ATOM      8  C   LIG    1       -4.339  -6.577  -3.559  0.00  0.00    +0.010 A 
ATOM      9  C   LIG    1       -4.930  -5.334  -3.449  0.00  0.00    -0.080 A 
ATOM     10  C   LIG    1       -4.148  -4.188  -3.506  0.00  0.00    +0.130 A 
BRANCH   5  12
ATOM     11  C   LIG    1       -0.445  -3.449  -3.754  0.00  0.00    +0.030 C 
ATOM     12  C   LIG    1       -1.923  -3.054  -3.748  0.00  0.00    +0.060 C 
ENDBRANCH   5  12
BRANCH   9  13
ATOM     13  C   LIG    1       -6.422  -5.221  -3.267  0.00  0.00    +0.060 C 
ATOM     14  C   LIG    1       -7.088  -5.013  -4.628  0.00  0.00    +0.020 C 
ENDBRANCH   9  13
ENDBRANCH   1  10
BRANCH   3  15
ATOM     15  C   LIG    1       -4.969  -0.717  -2.306  0.00  0.00    +0.150 C 
BRANCH  15  16
ATOM     16  C   LIG    1       -4.497  -0.046  -1.042  0.00  0.00    -0.180 A 
ATOM     17  C   LIG    1       -3.373   0.717  -1.047  0.00  0.00    +0.220 A 
ATOM     18  N   LIG    1       -2.973   1.310   0.108  0.00  0.00    -0.320 N 
ATOM     19  N   LIG    1       -1.891   2.138   0.436  0.00  0.00    -0.310 NA
ATOM     20  C   LIG    1       -1.999   2.421   1.719  0.00  0.00    +0.250 A 
ATOM     21  N   LIG    1       -3.080   1.823   2.215  0.00  0.00    -0.530 NA
ATOM     22  C   LIG    1       -3.694   1.138   1.256  0.00  0.00    +0.460 A 
ATOM     23  N   LIG    1       -4.800   0.385   1.252  0.00  0.00    -0.460 NA
ATOM     24  C   LIG    1       -2.582   0.903  -2.316  0.00  0.00    +0.170 C 
ATOM     25  C   LIG    1       -5.212  -0.201   0.151  0.00  0.00    +0.260 A 
ATOM     26  C   LIG    1       -6.461  -1.045   0.173  0.00  0.00    +0.160 C 
BRANCH  20  27
ATOM     27  S   LIG    1       -0.884   3.432   2.635  0.00  0.00    +0.030 S 
ATOM     28  C   LIG    1       -1.594   3.413   4.304  0.00  0.00    +0.150 C 
ENDBRANCH  20  27
ENDBRANCH  15  16
ENDBRANCH   3  15
TORSDOF 6
