REMARK  Name = ZINCqH0000000af6.0
REMARK                            x       y       z     vdW  Elec       q    Type
REMARK                         _______ _______ _______ _____ _____    ______ ____
ROOT
ATOM      1  C   LIG    1        2.913  -1.716  -5.331  0.00  0.00    +0.520 C 
ATOM      2  N   LIG    1        2.457  -2.458  -4.302  0.00  0.00    -0.670 N 
ATOM      3  H   LIG    1        2.563  -3.422  -4.316  0.00  0.00    +0.410 HD
ATOM      4  O   LIG    1        2.868  -0.505  -5.272  0.00  0.00    -0.520 OA
ENDROOT
BRANCH   2   5
ATOM      5  C   LIG    1        1.831  -1.837  -3.214  0.00  0.00    +0.120 A 
ATOM      6  C   LIG    1        1.069  -0.692  -3.411  0.00  0.00    +0.060 A 
ATOM      7  C   LIG    1        0.452  -0.080  -2.338  0.00  0.00    +0.030 A 
ATOM      8  C   LIG    1        0.593  -0.608  -1.063  0.00  0.00    +0.090 A 
ATOM      9  C   LIG    1        1.358  -1.748  -0.865  0.00  0.00    -0.030 A 
ATOM     10  C   LIG    1        1.971  -2.365  -1.938  0.00  0.00    +0.020 A 
BRANCH   8  11
ATOM     11  O   LIG    1       -0.014  -0.005  -0.007  0.00  0.00    -0.320 OA
BRANCH  11  12
ATOM     12  C   LIG    1        0.173  -0.602   1.277  0.00  0.00    +0.590 C 
ATOM     13  F   LIG    1        1.537  -0.621   1.588  0.00  0.00    -0.200 F 
ATOM     14  F   LIG    1       -0.319  -1.912   1.259  0.00  0.00    -0.200 F 
ENDBRANCH  11  12
ENDBRANCH   8  11
ENDBRANCH   2   5
BRANCH   1  15
ATOM     15  C   LIG    1        3.480  -2.390  -6.554  0.00  0.00    +0.050 C 
BRANCH  15  16
ATOM     16  C   LIG    1        3.922  -1.329  -7.563  0.00  0.00    +0.340 C 
BRANCH  16  27
ATOM     17  C   LIG    1        6.803  -2.104  -8.056  0.00  0.00    +0.060 C 
ATOM     18  C   LIG    1        5.815  -2.321  -8.929  0.00  0.00    +0.130 C 
ATOM     19  C   LIG    1        5.947  -2.963 -10.252  0.00  0.00    -0.050 A 
ATOM     20  C   LIG    1        7.015  -3.497 -10.961  0.00  0.00    +0.040 A 
ATOM     21  C   LIG    1        6.804  -4.034 -12.216  0.00  0.00    +0.050 A 
ATOM     22  C   LIG    1        5.536  -4.043 -12.773  0.00  0.00    +0.020 A 
ATOM     23  C   LIG    1        4.463  -3.517 -12.082  0.00  0.00    +0.100 A 
ATOM     24  C   LIG    1        4.656  -2.971 -10.816  0.00  0.00    -0.160 A 
ATOM     25  C   LIG    1        3.759  -2.344  -9.833  0.00  0.00    +0.560 C 
ATOM     26  O   LIG    1        2.562  -2.176  -9.976  0.00  0.00    -0.500 OA
ATOM     27  N   LIG    1        4.473  -1.984  -8.752  0.00  0.00    -0.560 N 
ENDBRANCH  16  27
ENDBRANCH  15  16
ENDBRANCH   1  15
TORSDOF 6
