REMARK  Name = ZINCkj000005f2Uf.1
REMARK                            x       y       z     vdW  Elec       q    Type
REMARK                         _______ _______ _______ _____ _____    ______ ____
ROOT
ATOM      1  C   LIG    1        0.981   4.655   1.744  0.00  0.00    +0.520 C 
ATOM      2  C   LIG    1        0.334   5.115   2.893  0.00  0.00    -0.090 C 
ATOM      3  C   LIG    1       -0.663   4.334   3.444  0.00  0.00    +0.420 C 
ATOM      4  N   LIG    1       -0.975   3.181   2.872  0.00  0.00    -0.580 NA
ATOM      5  C   LIG    1       -0.344   2.769   1.782  0.00  0.00    +0.660 C 
ATOM      6  H   LIG    1       -1.674   2.630   3.256  0.00  0.00    +0.440 HD
ATOM      7  N   LIG    1        0.622   3.486   1.225  0.00  0.00    -0.560 NA
ENDROOT
BRANCH   1   8
ATOM      8  N   LIG    1        1.988   5.405   1.157  0.00  0.00    -0.650 NA
ATOM      9  H   LIG    1        2.432   5.079   0.359  0.00  0.00    +0.430 HD
BRANCH   8  10
ATOM     10  C   LIG    1        2.380   6.690   1.740  0.00  0.00    +0.280 C 
BRANCH  10  12
ATOM     11  C   LIG    1        2.976   7.642  -0.491  0.00  0.00    +0.030 C 
ATOM     12  C   LIG    1        3.503   7.308   0.906  0.00  0.00    -0.030 C 
ATOM     13  C   LIG    1        3.998   8.587   1.584  0.00  0.00    +0.040 C 
ENDBRANCH  10  12
ENDBRANCH   8  10
ENDBRANCH   1   8
BRANCH   5  14
ATOM     14  N   LIG    1       -0.698   1.558   1.213  0.00  0.00    -0.570 NA
ATOM     15  C   LIG    1       -1.760   0.749   1.817  0.00  0.00    +0.330 C 
BRANCH  14  16
ATOM     16  C   LIG    1       -0.013   1.086   0.008  0.00  0.00    +0.470 C 
BRANCH  16  17
ATOM     17  C   LIG    1       -0.742   1.585  -1.213  0.00  0.00    +0.230 A 
ATOM     18  N   LIG    1       -0.513   2.712  -1.837  0.00  0.00    -0.510 NA
ATOM     19  C   LIG    1       -1.342   2.831  -2.873  0.00  0.00    +0.420 A 
ATOM     20  N   LIG    1       -2.113   1.776  -2.924  0.00  0.00    -0.300 NA
ATOM     21  N   LIG    1       -1.736   0.947  -1.855  0.00  0.00    -0.370 N 
ATOM     22  C   LIG    1       -2.314  -0.353  -1.506  0.00  0.00    +0.350 C 
ENDBRANCH  16  17
ENDBRANCH  14  16
ENDBRANCH   5  14
TORSDOF 6
