REMARK  Name = ZINCkj00000GeNyD.0
REMARK                            x       y       z     vdW  Elec       q    Type
REMARK                         _______ _______ _______ _____ _____    ______ ____
ROOT
ATOM      1  C   LIG    1       -1.652   5.003   2.702  0.00  0.00    +0.230 C 
ATOM      2  C   LIG    1       -2.916   5.717   2.178  0.00  0.00    +0.040 C 
ATOM      3  C   LIG    1       -2.743   5.643   0.638  0.00  0.00    +0.060 C 
ATOM      4  C   LIG    1       -2.066   4.263   0.465  0.00  0.00    +0.260 C 
ATOM      5  N   LIG    1       -1.161   4.136   1.621  0.00  0.00    -0.610 N 
ATOM      6  C   LIG    1       -0.061   3.359   1.677  0.00  0.00    +0.520 C 
ATOM      7  O   LIG    1        0.680   3.424   2.635  0.00  0.00    -0.490 OA
ENDROOT
BRANCH   1  12
ATOM      8  N   LIG    1       -2.548   5.019   4.993  0.00  0.00    -0.380 N 
ATOM      9  C   LIG    1       -1.652   4.930   6.170  0.00  0.00    +0.250 C 
ATOM     10  C   LIG    1       -0.937   3.564   6.020  0.00  0.00    +0.060 C 
ATOM     11  C   LIG    1       -0.730   3.486   4.485  0.00  0.00    +0.100 C 
ATOM     12  C   LIG    1       -2.003   4.157   3.928  0.00  0.00    +0.150 C 
ATOM     13  H   LIG    1       -3.474   4.707   5.244  0.00  0.00    +0.420 HD
BRANCH   8  15
ATOM     14  C   LIG    1       -2.801   7.346   5.716  0.00  0.00    +0.070 C 
ATOM     15  C   LIG    1       -2.608   6.409   4.521  0.00  0.00    +0.230 C 
ENDBRANCH   8  15
ENDBRANCH   1  12
BRANCH   6  16
ATOM     16  C   LIG    1        0.248   2.410   0.547  0.00  0.00    +0.380 C 
BRANCH  16  17
ATOM     17  N   LIG    1        1.486   1.685   0.844  0.00  0.00    -0.380 N 
ATOM     18  C   LIG    1        1.634   0.344   0.871  0.00  0.00    +0.230 A 
ATOM     19  C   LIG    1        2.925   0.077   1.178  0.00  0.00    -0.110 A 
ATOM     20  C   LIG    1        3.588   1.297   1.344  0.00  0.00    +0.240 A 
ATOM     21  N   LIG    1        2.727   2.261   1.145  0.00  0.00    -0.270 NA
ENDBRANCH  16  17
ENDBRANCH   6  16
TORSDOF 4
