REMARK  Name = ZINCkj00000GeNyD.1
REMARK                            x       y       z     vdW  Elec       q    Type
REMARK                         _______ _______ _______ _____ _____    ______ ____
ROOT
ATOM      1  C   LIG    1        4.215   5.267   2.671  0.00  0.00    +0.240 C 
ATOM      2  C   LIG    1        5.018   6.537   2.318  0.00  0.00    +0.040 C 
ATOM      3  C   LIG    1        4.940   6.578   0.769  0.00  0.00    +0.060 C 
ATOM      4  C   LIG    1        3.518   6.028   0.512  0.00  0.00    +0.250 C 
ATOM      5  N   LIG    1        3.322   4.986   1.537  0.00  0.00    -0.640 N 
ATOM      6  C   LIG    1        2.470   3.946   1.447  0.00  0.00    +0.510 C 
ATOM      7  O   LIG    1        2.459   3.094   2.311  0.00  0.00    -0.480 OA
ENDROOT
BRANCH   1  12
ATOM      8  N   LIG    1        2.508   6.676   3.751  0.00  0.00    -0.390 N 
ATOM      9  C   LIG    1        2.443   7.347   5.074  0.00  0.00    +0.260 C 
ATOM     10  C   LIG    1        3.893   7.227   5.605  0.00  0.00    +0.080 C 
ATOM     11  C   LIG    1        4.324   5.824   5.119  0.00  0.00    +0.080 C 
ATOM     12  C   LIG    1        3.390   5.503   3.937  0.00  0.00    +0.160 C 
ATOM     13  H   LIG    1        2.899   7.301   3.063  0.00  0.00    +0.420 HD
BRANCH   8  15
ATOM     14  C   LIG    1        0.300   7.466   3.043  0.00  0.00    +0.090 C 
ATOM     15  C   LIG    1        1.167   6.240   3.338  0.00  0.00    +0.230 C 
ENDBRANCH   8  15
ENDBRANCH   1  12
BRANCH   6  16
ATOM     16  C   LIG    1        1.531   3.840   0.273  0.00  0.00    +0.360 C 
BRANCH  16  17
ATOM     17  N   LIG    1        0.716   2.630   0.407  0.00  0.00    -0.380 N 
ATOM     18  C   LIG    1       -0.633   2.576   0.394  0.00  0.00    +0.220 A 
ATOM     19  C   LIG    1       -0.995   1.281   0.540  0.00  0.00    -0.110 A 
ATOM     20  C   LIG    1        0.172   0.518   0.655  0.00  0.00    +0.240 A 
ATOM     21  N   LIG    1        1.198   1.325   0.573  0.00  0.00    -0.270 NA
ENDBRANCH  16  17
ENDBRANCH   6  16
TORSDOF 4
