REMARK  Name = ZINCvU0000000A00.0
REMARK                            x       y       z     vdW  Elec       q    Type
REMARK                         _______ _______ _______ _____ _____    ______ ____
ROOT
ATOM      1  C   LIG    1       -0.012   1.441   0.322  0.00  0.00    -0.270 A 
ATOM      2  C   LIG    1       -1.125   2.241   0.482  0.00  0.00    +0.350 A 
ATOM      3  N   LIG    1       -0.703   3.499   0.680  0.00  0.00    -0.360 N 
ATOM      4  N   LIG    1        0.694   3.539   0.642  0.00  0.00    -0.260 NA
ATOM      5  C   LIG    1        1.153   2.326   0.430  0.00  0.00    +0.170 A 
ENDROOT
BRANCH   5   6
ATOM      6  C   LIG    1        2.577   1.928   0.320  0.00  0.00    +0.020 A 
ATOM      7  C   LIG    1        2.998   0.694   0.811  0.00  0.00    +0.100 A 
ATOM      8  C   LIG    1        4.324   0.326   0.702  0.00  0.00    +0.100 A 
ATOM      9  C   LIG    1        5.236   1.186   0.116  0.00  0.00    -0.030 A 
ATOM     10  C   LIG    1        4.825   2.414  -0.369  0.00  0.00    +0.100 A 
ATOM     11  C   LIG    1        3.500   2.790  -0.270  0.00  0.00    +0.070 A 
BRANCH   9  12
ATOM     12  N   LIG    1        6.658   0.788   0.007  0.00  0.00    +0.030 N 
ATOM     13  O   LIG    1        7.023  -0.293   0.433  0.00  0.00    -0.160 OA
ATOM     14  O   LIG    1        7.463   1.543  -0.509  0.00  0.00    -0.160 OA
ENDBRANCH   9  12
ENDBRANCH   5   6
BRANCH   1  15
ATOM     15  C   LIG    1        0.004  -0.011   0.084  0.00  0.00    +0.540 C 
ATOM     16  O   LIG    1        1.062  -0.594  -0.045  0.00  0.00    -0.490 OA
BRANCH  15  17
ATOM     17  O   LIG    1       -1.156  -0.694   0.009  0.00  0.00    -0.290 OA
BRANCH  17  24
ATOM     18  C   LIG    1       -0.950  -2.191   2.397  0.00  0.00    +0.100 C 
ATOM     19  C   LIG    1       -0.967  -2.833   1.033  0.00  0.00    -0.090 A 
ATOM     20  C   LIG    1       -0.880  -4.207   0.915  0.00  0.00    +0.030 A 
ATOM     21  C   LIG    1       -0.896  -4.797  -0.336  0.00  0.00    +0.030 A 
ATOM     22  C   LIG    1       -0.999  -4.014  -1.470  0.00  0.00    -0.070 A 
ATOM     23  C   LIG    1       -1.091  -2.640  -1.357  0.00  0.00    +0.020 A 
ATOM     24  C   LIG    1       -1.070  -2.046  -0.104  0.00  0.00    +0.080 A 
BRANCH  22  25
ATOM     25  C   LIG    1       -1.018  -4.660  -2.832  0.00  0.00    +0.020 C 
ATOM     26  C   LIG    1       -2.212  -5.612  -2.928  0.00  0.00    +0.030 C 
ATOM     27  C   LIG    1        0.279  -5.446  -3.041  0.00  0.00    +0.030 C 
ENDBRANCH  22  25
ENDBRANCH  17  24
ENDBRANCH  15  17
ENDBRANCH   1  15
BRANCH   3  28
ATOM     28  C   LIG    1       -1.574   4.657   0.897  0.00  0.00    +0.360 C 
BRANCH  28  29
ATOM     29  C   LIG    1       -1.176   5.359   2.196  0.00  0.00    +0.210 C 
BRANCH  29  30
ATOM     30  C   LIG    1       -2.051   6.522   2.414  0.00  0.00    +0.200 C 
ATOM     31  N   LIG    1       -2.726   7.420   2.582  0.00  0.00    -0.410 NA
ENDBRANCH  29  30
ENDBRANCH  28  29
ENDBRANCH   3  28
TORSDOF 9
