REMARK  Name = ZINCpe000000WVt7.0
REMARK                            x       y       z     vdW  Elec       q    Type
REMARK                         _______ _______ _______ _____ _____    ______ ____
ROOT
ATOM      1  C   LIG    1        3.103  -0.607   1.612  0.00  0.00    +0.520 C 
ATOM      2  N   LIG    1        1.995   0.130   1.400  0.00  0.00    -0.620 N 
ATOM      3  C   LIG    1        0.675  -0.509   1.282  0.00  0.00    +0.300 C 
ATOM      4  C   LIG    1        0.002  -0.004   0.002  0.00  0.00    +0.220 C 
ATOM      5  N   LIG    1       -0.018   1.465   0.010  0.00  0.00    -0.470 N 
ATOM      6  C   LIG    1        1.344   2.016   0.000  0.00  0.00    +0.200 C 
ATOM      7  C   LIG    1        2.072   1.594   1.280  0.00  0.00    +0.300 C 
ATOM      8  O   LIG    1        3.022  -1.813   1.708  0.00  0.00    -0.510 OA
ENDROOT
BRANCH   5   9
ATOM      9  C   LIG    1       -0.758   1.956  -1.047  0.00  0.00    +0.450 A 
ATOM     10  C   LIG    1       -0.914   3.342  -1.237  0.00  0.00    -0.290 A 
ATOM     11  C   LIG    1       -0.463   4.494  -0.557  0.00  0.00    +0.300 A 
ATOM     12  N   LIG    1       -0.914   5.545  -1.181  0.00  0.00    -0.240 NA
ATOM     13  N   LIG    1       -1.673   5.146  -2.288  0.00  0.00    -0.380 N 
ATOM     14  C   LIG    1       -2.345   6.040  -3.235  0.00  0.00    +0.370 C 
ATOM     15  C   LIG    1       -1.680   3.784  -2.333  0.00  0.00    +0.360 A 
ATOM     16  N   LIG    1       -2.225   2.877  -3.143  0.00  0.00    -0.550 NA
ATOM     17  C   LIG    1       -2.052   1.592  -2.925  0.00  0.00    +0.580 A 
ATOM     18  N   LIG    1       -1.337   1.131  -1.914  0.00  0.00    -0.590 NA
ENDBRANCH   5   9
BRANCH   1  20
ATOM     19  C   LIG    1        4.463   0.954   2.977  0.00  0.00    +0.040 C 
ATOM     20  C   LIG    1        4.445   0.069   1.730  0.00  0.00    +0.150 C 
BRANCH  20  21
ATOM     21  O   LIG    1        5.470  -0.921   1.834  0.00  0.00    -0.350 OA
BRANCH  21  22
ATOM     22  C   LIG    1        6.728  -0.516   1.291  0.00  0.00    +0.190 C 
BRANCH  22  23
ATOM     23  C   LIG    1        7.744  -1.648   1.456  0.00  0.00    -0.040 C 
ATOM     24  C   LIG    1        8.957  -1.383   2.349  0.00  0.00    +0.020 C 
ATOM     25  C   LIG    1        9.126  -1.454   0.830  0.00  0.00    +0.030 C 
ENDBRANCH  22  23
ENDBRANCH  21  22
ENDBRANCH  20  21
ENDBRANCH   1  20
TORSDOF 5
