REMARK  Name = ZINCtV00000L6kVI.0
REMARK                            x       y       z     vdW  Elec       q    Type
REMARK                         _______ _______ _______ _____ _____    ______ ____
ROOT
ATOM      1  C   LIG    1       -0.114   6.911  -1.735  0.00  0.00    +0.080 C 
ATOM      2  N   LIG    1       -1.311   6.769  -1.264  0.00  0.00    -0.190 NA
ATOM      3  N   LIG    1       -1.410   5.787  -0.295  0.00  0.00    -0.550 N 
ATOM      4  C   LIG    1       -0.046   5.347   0.081  0.00  0.00    +0.240 C 
ATOM      5  C   LIG    1       -0.053   3.842   0.035  0.00  0.00    -0.170 A 
ATOM      6  C   LIG    1        1.152   3.163   0.017  0.00  0.00    +0.050 A 
ATOM      7  C   LIG    1        1.176   1.782   0.000  0.00  0.00    -0.020 A 
ATOM      8  C   LIG    1       -0.013   1.076   0.008  0.00  0.00    +0.050 A 
ATOM      9  C   LIG    1       -1.216   1.748   0.017  0.00  0.00    -0.020 A 
ATOM     10  C   LIG    1       -1.250   3.141   0.028  0.00  0.00    +0.150 A 
ATOM     11  O   LIG    1       -2.472   3.735   0.011  0.00  0.00    -0.320 OA
ATOM     12  C   LIG    1       -2.587   5.131   0.274  0.00  0.00    +0.390 C 
ATOM     13  C   LIG    1       -3.870   5.694  -0.358  0.00  0.00    +0.070 C 
ATOM     14  C   LIG    1       -4.890   5.709   0.809  0.00  0.00    +0.040 C 
ATOM     15  C   LIG    1       -4.017   6.115   2.023  0.00  0.00    +0.030 C 
ATOM     16  C   LIG    1       -2.673   5.393   1.782  0.00  0.00    +0.010 C 
ATOM     17  C   LIG    1        0.824   5.954  -1.028  0.00  0.00    +0.090 C 
ENDROOT
BRANCH   1  21
ATOM     18  C   LIG    1        1.011   9.637  -4.790  0.00  0.00    -0.040 A 
ATOM     19  C   LIG    1       -0.317   9.575  -4.366  0.00  0.00    +0.020 A 
ATOM     20  C   LIG    1       -0.683   8.692  -3.376  0.00  0.00    +0.050 A 
ATOM     21  C   LIG    1        0.276   7.857  -2.796  0.00  0.00    -0.020 A 
ATOM     22  C   LIG    1        1.607   7.923  -3.219  0.00  0.00    +0.040 A 
ATOM     23  C   LIG    1        1.969   8.804  -4.213  0.00  0.00    +0.020 A 
BRANCH  18  27
ATOM     24  C   LIG    1        2.137  12.367  -7.849  0.00  0.00    +0.000 A 
ATOM     25  C   LIG    1        3.089  11.543  -7.277  0.00  0.00    +0.000 A 
ATOM     26  C   LIG    1        2.729  10.655  -6.284  0.00  0.00    +0.020 A 
ATOM     27  C   LIG    1        1.404  10.590  -5.857  0.00  0.00    -0.050 A 
ATOM     28  C   LIG    1        0.448  11.420  -6.440  0.00  0.00    +0.020 A 
ATOM     29  C   LIG    1        0.820  12.307  -7.430  0.00  0.00    +0.000 A 
ENDBRANCH  18  27
ENDBRANCH   1  21
TORSDOF 2
