REMARK  Name = ZINCnE000001MMXp.0
REMARK                            x       y       z     vdW  Elec       q    Type
REMARK                         _______ _______ _______ _____ _____    ______ ____
ROOT
ATOM      1  N   LIG    1       -2.389   4.446  -4.004  0.00  0.00    -0.680 NA
ATOM      2  C   LIG    1       -1.450   3.819  -3.298  0.00  0.00    +0.360 A 
ATOM      3  N   LIG    1       -0.863   2.640  -3.586  0.00  0.00    -0.420 NA
ATOM      4  N   LIG    1        0.092   2.195  -2.699  0.00  0.00    -0.270 NA
ATOM      5  C   LIG    1        0.335   2.934  -1.668  0.00  0.00    -0.020 A 
ATOM      6  S   LIG    1       -0.730   4.341  -1.823  0.00  0.00    -0.090 S 
ENDROOT
BRANCH   5   7
ATOM      7  C   LIG    1        1.324   2.659  -0.564  0.00  0.00    +0.100 C 
ATOM      8  C   LIG    1        2.651   3.354  -0.881  0.00  0.00    +0.010 C 
ATOM      9  C   LIG    1        3.673   3.005   0.204  0.00  0.00    +0.200 C 
ATOM     10  O   LIG    1        3.826   1.586   0.274  0.00  0.00    -0.390 OA
ATOM     11  C   LIG    1        2.627   0.886   0.614  0.00  0.00    +0.200 C 
ATOM     12  C   LIG    1        1.563   1.150  -0.455  0.00  0.00    +0.010 C 
ENDBRANCH   5   7
BRANCH   1  14
ATOM     13  N   LIG    1       -3.796   4.540  -5.851  0.00  0.00    -0.620 N 
ATOM     14  C   LIG    1       -2.846   3.905  -5.136  0.00  0.00    +0.670 C 
ATOM     15  O   LIG    1       -2.405   2.837  -5.523  0.00  0.00    -0.610 OA
ATOM     16  C   LIG    1       -4.412   5.762  -5.328  0.00  0.00    +0.260 C 
BRANCH  13  22
ATOM     17  C   LIG    1       -5.608   7.283  -8.618  0.00  0.00    +0.010 C 
ATOM     18  C   LIG    1       -4.591   6.334  -7.981  0.00  0.00    -0.020 C 
ATOM     19  C   LIG    1       -3.371   6.205  -8.895  0.00  0.00    -0.010 C 
ATOM     20  C   LIG    1       -2.354   5.256  -8.258  0.00  0.00    +0.000 C 
ATOM     21  C   LIG    1       -2.994   3.880  -8.065  0.00  0.00    +0.010 C 
ATOM     22  C   LIG    1       -4.214   4.008  -7.150  0.00  0.00    +0.230 C 
ATOM     23  C   LIG    1       -5.230   4.957  -7.787  0.00  0.00    +0.020 C 
ENDBRANCH  13  22
ENDBRANCH   1  14
TORSDOF 3
