REMARK  Name = ZINCrH000004r3hF.0
REMARK                            x       y       z     vdW  Elec       q    Type
REMARK                         _______ _______ _______ _____ _____    ______ ____
ROOT
ATOM      1  C   LIG    1        4.627   1.615   1.116  0.00  0.00    +0.520 C 
ATOM      2  N   LIG    1        3.531   2.173   0.563  0.00  0.00    -0.710 N 
ATOM      3  H   LIG    1        3.433   3.138   0.548  0.00  0.00    +0.410 HD
ATOM      4  O   LIG    1        4.750   0.409   1.135  0.00  0.00    -0.540 OA
ENDROOT
BRANCH   1   5
ATOM      5  C   LIG    1        5.699   2.491   1.711  0.00  0.00    +0.080 C 
BRANCH   5   6
ATOM      6  C   LIG    1        6.823   1.615   2.267  0.00  0.00    +0.070 C 
BRANCH   6   7
ATOM      7  C   LIG    1        7.896   2.491   2.862  0.00  0.00    +0.430 C 
ATOM      8  O   LIG    1        7.773   3.699   2.843  0.00  0.00    -0.450 OA
BRANCH   7  13
ATOM      9  C   LIG    1       11.800  -0.622   4.786  0.00  0.00    +0.140 C 
ATOM     10  C   LIG    1       10.856   0.462   4.334  0.00  0.00    -0.180 A 
ATOM     11  C   LIG    1       11.072   1.775   4.498  0.00  0.00    -0.020 A 
ATOM     12  C   LIG    1       10.087   2.594   4.007  0.00  0.00    +0.120 A 
ATOM     13  C   LIG    1        9.044   1.907   3.441  0.00  0.00    -0.320 A 
ATOM     14  S   LIG    1        9.369   0.182   3.545  0.00  0.00    +0.230 S 
ENDBRANCH   7  13
ENDBRANCH   6   7
ENDBRANCH   5   6
ENDBRANCH   1   5
BRANCH   2  15
ATOM     15  C   LIG    1        2.489   1.321  -0.015  0.00  0.00    +0.390 C 
BRANCH  15  16
ATOM     16  C   LIG    1        1.173   2.056   0.002  0.00  0.00    -0.130 A 
ATOM     17  C   LIG    1        1.153   3.438   0.010  0.00  0.00    +0.060 A 
ATOM     18  C   LIG    1       -0.054   4.112   0.025  0.00  0.00    +0.020 A 
ATOM     19  C   LIG    1       -1.242   3.405   0.032  0.00  0.00    +0.060 A 
ATOM     20  C   LIG    1       -1.224   2.023   0.019  0.00  0.00    -0.010 A 
ATOM     21  C   LIG    1       -0.016   1.347   0.009  0.00  0.00    +0.110 A 
ATOM     22  F   LIG    1        0.002  -0.004   0.002  0.00  0.00    -0.140 F 
ENDBRANCH  15  16
BRANCH  15  23
ATOM     23  C   LIG    1        2.853   0.976  -1.436  0.00  0.00    +0.190 A 
ATOM     24  N   LIG    1        3.298   1.814  -2.332  0.00  0.00    -0.470 NA
ATOM     25  C   LIG    1        3.518   1.158  -3.481  0.00  0.00    +0.140 A 
ATOM     26  C   LIG    1        3.190  -0.134  -3.292  0.00  0.00    +0.130 A 
ATOM     27  N   LIG    1        2.768  -0.250  -1.995  0.00  0.00    -0.450 N 
ATOM     28  C   LIG    1        2.311  -1.476  -1.336  0.00  0.00    +0.330 C 
ENDBRANCH  15  23
ENDBRANCH   2  15
TORSDOF 7
