REMARK  Name = ZINCrH000004mRB2.0
REMARK                            x       y       z     vdW  Elec       q    Type
REMARK                         _______ _______ _______ _____ _____    ______ ____
ROOT
ATOM      1  S   LIG    1       -1.033   7.653  -1.744  0.00  0.00    +2.700 S 
ATOM      2  O   LIG    1       -0.640   8.735  -0.911  0.00  0.00    -0.940 OA
ATOM      3  O   LIG    1       -2.260   7.630  -2.461  0.00  0.00    -0.960 OA
ENDROOT
BRANCH   1   9
ATOM      4  C   LIG    1        1.576   7.532  -2.552  0.00  0.00    +0.210 A 
ATOM      5  C   LIG    1        2.583   7.377  -3.493  0.00  0.00    -0.060 A 
ATOM      6  C   LIG    1        2.263   7.147  -4.816  0.00  0.00    +0.130 A 
ATOM      7  C   LIG    1        0.932   7.070  -5.205  0.00  0.00    +0.090 A 
ATOM      8  C   LIG    1       -0.076   7.220  -4.262  0.00  0.00    +0.140 A 
ATOM      9  C   LIG    1        0.246   7.456  -2.940  0.00  0.00    -0.690 A 
BRANCH   7  10
ATOM     10  N   LIG    1        0.607   6.837  -6.548  0.00  0.00    -0.670 N 
ATOM     11  H   LIG    1       -0.192   7.233  -6.929  0.00  0.00    +0.410 HD
ATOM     12  C   LIG    1        1.404   6.060  -7.309  0.00  0.00    +0.510 C 
ATOM     13  O   LIG    1        2.353   5.493  -6.811  0.00  0.00    -0.530 OA
ATOM     14  C   LIG    1        1.114   5.897  -8.779  0.00  0.00    +0.110 C 
ENDBRANCH   7  10
BRANCH   4  16
ATOM     15  C   LIG    1        3.280   7.826  -0.920  0.00  0.00    +0.250 C 
ATOM     16  O   LIG    1        1.891   7.759  -1.249  0.00  0.00    -0.310 OA
ENDBRANCH   4  16
ENDBRANCH   1   9
BRANCH   1  17
ATOM     17  N   LIG    1       -1.024   6.300  -0.789  0.00  0.00    -1.110 NA
ATOM     18  H   LIG    1       -1.769   5.679  -0.821  0.00  0.00    +0.420 HD
BRANCH  17  19
ATOM     19  C   LIG    1        0.108   6.041   0.103  0.00  0.00    +0.340 C 
BRANCH  19  20
ATOM     20  C   LIG    1        0.831   4.799  -0.351  0.00  0.00    -0.090 A 
ATOM     21  C   LIG    1        2.212   4.753  -0.319  0.00  0.00    +0.030 A 
ATOM     22  C   LIG    1        2.876   3.614  -0.735  0.00  0.00    +0.020 A 
ATOM     23  C   LIG    1        2.157   2.520  -1.183  0.00  0.00    -0.030 A 
ATOM     24  C   LIG    1        0.775   2.569  -1.220  0.00  0.00    +0.020 A 
ATOM     25 CL   LIG    1        2.990   1.090  -1.707  0.00  0.00    -0.070 Cl
ATOM     26  C   LIG    1        0.113   3.706  -0.799  0.00  0.00    +0.040 A 
ENDBRANCH  19  20
BRANCH  19  27
ATOM     27  C   LIG    1       -0.404   5.840   1.531  0.00  0.00    -0.040 C 
ATOM     28  C   LIG    1       -1.918   5.866   1.749  0.00  0.00    +0.020 C 
ATOM     29  C   LIG    1       -1.057   7.039   2.222  0.00  0.00    +0.030 C 
ENDBRANCH  19  27
ENDBRANCH  17  19
ENDBRANCH   1  17
TORSDOF 7
