REMARK  Name = ZINCrH000004jJn5.0
REMARK                            x       y       z     vdW  Elec       q    Type
REMARK                         _______ _______ _______ _____ _____    ______ ____
ROOT
ATOM      1  C   LIG    1        3.686   3.630  -0.009  0.00  0.00    +0.570 C 
ATOM      2  N   LIG    1        4.869   4.269   0.080  0.00  0.00    -0.660 N 
ATOM      3  H   LIG    1        5.696   3.762   0.065  0.00  0.00    +0.410 HD
ATOM      4  O   LIG    1        2.655   4.268  -0.090  0.00  0.00    -0.500 OA
ENDROOT
BRANCH   1  13
ATOM      5  C   LIG    1        4.716  -0.004  -0.023  0.00  0.00    +0.420 A 
ATOM      6  N   LIG    1        3.564  -0.636  -0.007  0.00  0.00    -0.530 NA
ATOM      7  C   LIG    1        2.395   0.011   0.011  0.00  0.00    +0.180 A 
ATOM      8  C   LIG    1        1.177  -0.691   0.029  0.00  0.00    +0.020 A 
ATOM      9  C   LIG    1        0.002  -0.004   0.047  0.00  0.00    +0.050 A 
ATOM     10  C   LIG    1       -0.017   1.388   0.046  0.00  0.00    -0.010 A 
ATOM     11  C   LIG    1        1.145   2.102   0.029  0.00  0.00    +0.080 A 
ATOM     12  C   LIG    1        2.370   1.428   0.011  0.00  0.00    -0.110 A 
ATOM     13  C   LIG    1        3.642   2.151  -0.008  0.00  0.00    -0.040 A 
ATOM     14  C   LIG    1        4.804   1.395  -0.025  0.00  0.00    -0.030 A 
BRANCH   5  16
ATOM     15  C   LIG    1        7.184  -0.074   0.051  0.00  0.00    +0.300 C 
ATOM     16  N   LIG    1        5.887  -0.748  -0.041  0.00  0.00    -0.610 N 
ATOM     17  C   LIG    1        5.826  -2.208  -0.150  0.00  0.00    +0.300 C 
ENDBRANCH   5  16
ENDBRANCH   1  13
BRANCH   2  18
ATOM     18  C   LIG    1        4.904   5.663   0.192  0.00  0.00    +0.140 A 
ATOM     19  C   LIG    1        5.934   6.382  -0.401  0.00  0.00    +0.030 A 
ATOM     20  C   LIG    1        5.965   7.758  -0.295  0.00  0.00    +0.020 A 
ATOM     21  C   LIG    1        4.974   8.422   0.415  0.00  0.00    +0.150 A 
ATOM     22  C   LIG    1        3.948   7.703   1.013  0.00  0.00    +0.040 A 
ATOM     23  C   LIG    1        3.913   6.328   0.902  0.00  0.00    +0.050 A 
BRANCH  21  24
ATOM     24  N   LIG    1        5.010   9.820   0.527  0.00  0.00    -0.320 N 
ATOM     25  C   LIG    1        5.949  10.637   0.001  0.00  0.00    +0.230 A 
ATOM     26  C   LIG    1        5.622  11.908   0.332  0.00  0.00    -0.100 A 
ATOM     27  C   LIG    1        4.449  11.866   1.093  0.00  0.00    +0.250 A 
ATOM     28  N   LIG    1        4.081  10.616   1.210  0.00  0.00    -0.290 NA
ENDBRANCH  21  24
ENDBRANCH   2  18
TORSDOF 4
