REMARK  Name = ZINCrD00000eODWd.0
REMARK                            x       y       z     vdW  Elec       q    Type
REMARK                         _______ _______ _______ _____ _____    ______ ____
ROOT
ATOM      1  N   LIG    1        2.318   3.899  -0.000  0.00  0.00    -0.700 N 
ATOM      2  H   LIG    1        3.164   3.424  -0.010  0.00  0.00    +0.420 HD
ENDROOT
BRANCH   1   9
ATOM      3  C   LIG    1       -2.524   3.525   0.044  0.00  0.00    +0.240 A 
ATOM      4  N   LIG    1       -3.258   2.439   0.046  0.00  0.00    -0.260 NA
ATOM      5  N   LIG    1       -2.505   1.395   0.034  0.00  0.00    -0.250 NA
ATOM      6  C   LIG    1       -1.236   1.772   0.018  0.00  0.00    +0.110 A 
ATOM      7  C   LIG    1       -0.013   1.076   0.008  0.00  0.00    +0.190 A 
ATOM      8  C   LIG    1        1.150   1.780   0.001  0.00  0.00    -0.020 A 
ATOM      9  C   LIG    1        1.123   3.188   0.007  0.00  0.00    +0.420 A 
ATOM     10  N   LIG    1       -0.017   3.839   0.021  0.00  0.00    -0.340 NA
ATOM     11  N   LIG    1       -1.229   3.145   0.030  0.00  0.00    -0.270 N 
BRANCH   3  15
ATOM     12  C   LIG    1       -3.760   6.813   1.736  0.00  0.00    +0.070 C 
ATOM     13  C   LIG    1       -3.901   5.372   1.242  0.00  0.00    -0.020 C 
ATOM     14  C   LIG    1       -4.539   5.154  -0.131  0.00  0.00    +0.080 C 
ATOM     15  C   LIG    1       -3.035   4.943   0.056  0.00  0.00    +0.050 C 
ENDBRANCH   3  15
ENDBRANCH   1   9
BRANCH   1  16
ATOM     16  C   LIG    1        2.300   5.364   0.007  0.00  0.00    +0.270 C 
BRANCH  16  17
ATOM     17  C   LIG    1        3.737   5.891  -0.004  0.00  0.00    +0.030 C 
BRANCH  17  18
ATOM     18  C   LIG    1        3.718   7.421   0.004  0.00  0.00    +0.110 C 
BRANCH  18  19
ATOM     19  C   LIG    1        5.132   7.941  -0.007  0.00  0.00    +0.180 A 
ATOM     20  C   LIG    1        5.816   8.091  -1.202  0.00  0.00    -0.080 A 
ATOM     21  C   LIG    1        7.116   8.572  -1.163  0.00  0.00    +0.320 A 
ATOM     22  N   LIG    1        7.656   8.871   0.008  0.00  0.00    -0.520 NA
ATOM     23  C   LIG    1        6.975   8.715   1.125  0.00  0.00    +0.330 A 
ATOM     24  N   LIG    1        5.736   8.265   1.125  0.00  0.00    -0.510 NA
BRANCH  23  25
ATOM     25  C   LIG    1        7.627   9.068   2.437  0.00  0.00    -0.000 C 
ATOM     26  C   LIG    1        7.678   7.827   3.331  0.00  0.00    +0.050 C 
ATOM     27  C   LIG    1        6.817  10.164   3.132  0.00  0.00    +0.050 C 
ATOM     28  C   LIG    1        9.050   9.570   2.181  0.00  0.00    +0.050 C 
ENDBRANCH  23  25
ENDBRANCH  18  19
ENDBRANCH  17  18
ENDBRANCH  16  17
ENDBRANCH   1  16
TORSDOF 7
