REMARK  Name = ZINCqH0000005hqp.0
REMARK                            x       y       z     vdW  Elec       q    Type
REMARK                         _______ _______ _______ _____ _____    ______ ____
ROOT
ATOM      1  C   LIG    1       -0.493   4.301   0.477  0.00  0.00    +0.300 C 
ATOM      2  N   LIG    1       -0.931   3.308   1.462  0.00  0.00    -0.610 N 
ATOM      3  C   LIG    1       -0.784   1.993   1.205  0.00  0.00    +0.520 C 
ATOM      4  O   LIG    1       -1.147   1.172   2.020  0.00  0.00    -0.520 OA
ENDROOT
BRANCH   3   5
ATOM      5  C   LIG    1       -0.168   1.544  -0.095  0.00  0.00    +0.050 C 
BRANCH   5   6
ATOM      6  C   LIG    1       -0.118   0.015  -0.134  0.00  0.00    +0.350 C 
BRANCH   6   7
ATOM      7  N   LIG    1        0.481  -0.421  -1.398  0.00  0.00    -0.340 N 
ATOM      8  N   LIG    1       -0.284  -0.627  -2.405  0.00  0.00    -0.180 NA
ATOM      9  C   LIG    1        0.126  -1.015  -3.576  0.00  0.00    +0.150 A 
ATOM     10  C   LIG    1        1.509  -1.243  -3.813  0.00  0.00    +0.390 A 
ATOM     11  C   LIG    1        2.418  -1.016  -2.675  0.00  0.00    -0.210 A 
ATOM     12  C   LIG    1        3.794  -1.202  -2.772  0.00  0.00    +0.120 A 
ATOM     13  C   LIG    1        4.582  -0.974  -1.678  0.00  0.00    -0.020 A 
ATOM     14  C   LIG    1        4.022  -0.559  -0.477  0.00  0.00    +0.090 A 
ATOM     15  C   LIG    1        2.662  -0.370  -0.360  0.00  0.00    -0.030 A 
ATOM     16  O   LIG    1        1.923  -1.607  -4.901  0.00  0.00    -0.470 OA
ATOM     17  C   LIG    1        1.841  -0.590  -1.462  0.00  0.00    +0.150 A 
ENDBRANCH   6   7
ENDBRANCH   5   6
ENDBRANCH   3   5
BRANCH   2  18
ATOM     18  C   LIG    1       -1.530   3.745   2.726  0.00  0.00    +0.370 C 
BRANCH  18  19
ATOM     19  C   LIG    1       -0.460   3.835   3.784  0.00  0.00    -0.080 A 
ATOM     20  C   LIG    1        0.866   3.650   3.442  0.00  0.00    +0.030 A 
ATOM     21  C   LIG    1        1.849   3.737   4.412  0.00  0.00    +0.040 A 
ATOM     22  C   LIG    1        1.504   3.998   5.724  0.00  0.00    +0.040 A 
ATOM     23  C   LIG    1        0.176   4.177   6.069  0.00  0.00    -0.030 A 
ATOM     24 CL   LIG    1       -0.257   4.504   7.718  0.00  0.00    -0.040 Cl
ATOM     25  C   LIG    1       -0.807   4.096   5.097  0.00  0.00    -0.030 A 
ATOM     26 CL   LIG    1       -2.474   4.320   5.528  0.00  0.00    -0.040 Cl
ENDBRANCH  18  19
ENDBRANCH   2  18
TORSDOF 5
