REMARK  Name = ZINCkj00000hdeJR.0
REMARK                            x       y       z     vdW  Elec       q    Type
REMARK                         _______ _______ _______ _____ _____    ______ ____
ROOT
ATOM      1  C   LIG    1       -1.405  -4.620   0.753  0.00  0.00    -0.010 C 
ATOM      2  C   LIG    1       -1.630  -4.114   2.186  0.00  0.00    +0.100 C 
ATOM      3  C   LIG    1       -2.916  -3.447   1.671  0.00  0.00    +0.060 C 
ATOM      4  C   LIG    1       -0.002  -4.313   0.196  0.00  0.00    +0.320 C 
ATOM      5  N   LIG    1        0.100  -2.853   0.091  0.00  0.00    -0.610 N 
ATOM      6  C   LIG    1        1.249  -2.157  -0.018  0.00  0.00    +0.590 C 
ATOM      7  O   LIG    1        2.307  -2.745  -0.125  0.00  0.00    -0.510 OA
ATOM      8  C   LIG    1       -1.245  -2.269   0.117  0.00  0.00    +0.290 C 
ATOM      9  C   LIG    1       -2.257  -3.415   0.281  0.00  0.00    +0.020 C 
ENDROOT
BRANCH   6  10
ATOM     10  C   LIG    1        1.222  -0.679  -0.008  0.00  0.00    -0.130 A 
ATOM     11  C   LIG    1        0.484  -0.002   0.961  0.00  0.00    +0.040 A 
ATOM     12  C   LIG    1        0.464   1.378   0.966  0.00  0.00    +0.020 A 
ATOM     13  C   LIG    1        1.173   2.083   0.012  0.00  0.00    +0.060 A 
ATOM     14  C   LIG    1        1.908   1.416  -0.958  0.00  0.00    -0.070 A 
ATOM     15  C   LIG    1        2.660   2.228  -1.982  0.00  0.00    +0.060 C 
ATOM     16  C   LIG    1        3.708   1.351  -2.669  0.00  0.00    +0.220 C 
ATOM     17  O   LIG    1        3.078   0.136  -3.091  0.00  0.00    -0.370 OA
ATOM     18  C   LIG    1        2.730  -0.721  -2.003  0.00  0.00    +0.280 C 
ATOM     19  C   LIG    1        1.938   0.041  -0.972  0.00  0.00    -0.070 A 
ENDBRANCH   6  10
BRANCH   1  20
ATOM     20  N   LIG    1       -1.930  -5.958   0.451  0.00  0.00    -0.600 N 
ATOM     21  H   LIG    1       -2.832  -6.072   0.890  0.00  0.00    +0.440 HD
ATOM     22  H   LIG    1       -1.294  -6.657   0.805  0.00  0.00    +0.440 HD
ATOM     23  H   LIG    1       -2.026  -6.065  -0.547  0.00  0.00    +0.440 HD
ENDBRANCH   1  20
TORSDOF 2
