REMARK  Name = ZINCqH0000006Rs2.0
REMARK                            x       y       z     vdW  Elec       q    Type
REMARK                         _______ _______ _______ _____ _____    ______ ____
ROOT
ATOM      1  N   LIG    1        2.692  -0.767   3.683  0.00  0.00    -0.670 N 
ATOM      2  H   LIG    1        3.108  -0.973   4.534  0.00  0.00    +0.420 HD
ATOM      3  C   LIG    1        3.217  -1.254   2.541  0.00  0.00    +0.510 C 
ATOM      4  O   LIG    1        2.745  -0.932   1.471  0.00  0.00    -0.510 OA
ENDROOT
BRANCH   1   7
ATOM      5  C   LIG    1        0.207   1.697   2.537  0.00  0.00    +0.120 A 
ATOM      6  C   LIG    1        1.343   0.905   2.577  0.00  0.00    -0.010 A 
ATOM      7  C   LIG    1        1.544   0.035   3.640  0.00  0.00    +0.160 A 
ATOM      8  C   LIG    1        0.602  -0.038   4.663  0.00  0.00    +0.080 A 
ATOM      9  C   LIG    1       -0.532   0.756   4.618  0.00  0.00    +0.010 A 
ATOM     10  C   LIG    1       -0.727   1.626   3.561  0.00  0.00    -0.050 A 
ATOM     11 CL   LIG    1       -2.146   2.624   3.510  0.00  0.00    -0.050 Cl
BRANCH   5  13
ATOM     12  C   LIG    1        1.015   2.577   0.480  0.00  0.00    +0.250 C 
ATOM     13  O   LIG    1        0.010   2.550   1.496  0.00  0.00    -0.300 OA
ENDBRANCH   5  13
BRANCH   8  14
ATOM     14  O   LIG    1        0.796  -0.890   5.706  0.00  0.00    -0.310 OA
ATOM     15  C   LIG    1       -0.211  -0.914   6.720  0.00  0.00    +0.250 C 
ENDBRANCH   8  14
ENDBRANCH   1   7
BRANCH   3  16
ATOM     16  C   LIG    1        4.390  -2.198   2.594  0.00  0.00    +0.160 C 
BRANCH  16  17
ATOM     17  C   LIG    1        4.782  -2.591   1.193  0.00  0.00    -0.210 A 
ATOM     18  C   LIG    1        5.676  -1.948   0.406  0.00  0.00    +0.250 A 
ATOM     19  N   LIG    1        5.743  -2.614  -0.769  0.00  0.00    -0.320 N 
ATOM     20  N   LIG    1        4.861  -3.700  -0.700  0.00  0.00    -0.290 NA
ATOM     21  C   LIG    1        4.290  -3.689   0.478  0.00  0.00    +0.270 A 
BRANCH  19  22
ATOM     22  C   LIG    1        6.552  -2.277  -1.863  0.00  0.00    +0.160 A 
ATOM     23  C   LIG    1        7.380  -1.164  -1.799  0.00  0.00    -0.010 A 
ATOM     24  C   LIG    1        8.181  -0.838  -2.876  0.00  0.00    +0.040 A 
ATOM     25  C   LIG    1        8.149  -1.611  -4.022  0.00  0.00    +0.000 A 
ATOM     26  C   LIG    1        7.320  -2.716  -4.092  0.00  0.00    +0.040 A 
ATOM     27  C   LIG    1        6.522  -3.051  -3.015  0.00  0.00    +0.020 A 
ENDBRANCH  19  22
ENDBRANCH  16  17
ENDBRANCH   3  16
TORSDOF 6
