REMARK  Name = ZINCqH00000v6rj1.0
REMARK                            x       y       z     vdW  Elec       q    Type
REMARK                         _______ _______ _______ _____ _____    ______ ____
ROOT
ATOM      1  C   LIG    1        0.162   1.851   2.236  0.00  0.00    +0.390 A 
ATOM      2  C   LIG    1        1.164   2.801   2.065  0.00  0.00    -0.150 A 
ATOM      3  C   LIG    1        2.030   3.043   3.127  0.00  0.00    +0.450 A 
ATOM      4  N   LIG    1        1.869   2.362   4.261  0.00  0.00    -0.540 NA
ATOM      5  C   LIG    1        0.907   1.470   4.383  0.00  0.00    +0.300 A 
ATOM      6  N   LIG    1        0.065   1.216   3.403  0.00  0.00    -0.500 NA
ENDROOT
BRANCH   1  10
ATOM      7  C   LIG    1       -1.948   2.439  -0.646  0.00  0.00    +0.000 C 
ATOM      8  C   LIG    1       -0.779   1.607  -1.222  0.00  0.00    +0.030 C 
ATOM      9  C   LIG    1       -0.013   1.086   0.008  0.00  0.00    +0.180 C 
ATOM     10  N   LIG    1       -0.726   1.573   1.208  0.00  0.00    -0.480 N 
ATOM     11  C   LIG    1       -1.449   2.800   0.776  0.00  0.00    +0.190 C 
BRANCH   7  12
ATOM     12  C   LIG    1       -2.177   3.701  -1.480  0.00  0.00    +0.020 C 
BRANCH  12  14
ATOM     13  C   LIG    1       -2.898   4.570  -3.709  0.00  0.00    +0.000 C 
ATOM     14  C   LIG    1       -2.669   3.308  -2.875  0.00  0.00    +0.000 C 
ENDBRANCH  12  14
ENDBRANCH   7  12
ENDBRANCH   1  10
BRANCH   5  15
ATOM     15  C   LIG    1        0.763   0.724   5.684  0.00  0.00    +0.550 C 
ATOM     16  F   LIG    1        1.236  -0.583   5.527  0.00  0.00    -0.160 F 
ATOM     17  F   LIG    1       -0.586   0.690   6.055  0.00  0.00    -0.160 F 
ATOM     18  F   LIG    1        1.504   1.372   6.678  0.00  0.00    -0.160 F 
ENDBRANCH   5  15
BRANCH   3  19
ATOM     19  N   LIG    1        3.045   3.980   3.008  0.00  0.00    -0.580 N 
ATOM     20  C   LIG    1        4.017   4.149   4.090  0.00  0.00    +0.300 C 
BRANCH  19  21
ATOM     21  C   LIG    1        3.145   4.801   1.798  0.00  0.00    +0.320 C 
BRANCH  21  22
ATOM     22  C   LIG    1        2.331   6.083   1.984  0.00  0.00    +0.160 C 
BRANCH  22  23
ATOM     23  O   LIG    1        2.913   6.871   3.025  0.00  0.00    -0.350 OA
BRANCH  23  24
ATOM     24  C   LIG    1        2.225   8.097   3.280  0.00  0.00    +0.120 C 
ATOM     25  C   LIG    1        3.074   9.331   3.594  0.00  0.00    +0.010 C 
ATOM     26  C   LIG    1        2.272   8.650   4.705  0.00  0.00    +0.020 C 
ENDBRANCH  23  24
ENDBRANCH  22  23
ENDBRANCH  21  22
ENDBRANCH  19  21
ENDBRANCH   3  19
TORSDOF 9
