REMARK  Name = ZINCwl000000047A.1
REMARK                            x       y       z     vdW  Elec       q    Type
REMARK                         _______ _______ _______ _____ _____    ______ ____
ROOT
ATOM      1  N   LIG    1       -1.550  -1.403  -1.322  0.00  0.00    -0.710 N 
ATOM      2  H   LIG    1       -2.116  -1.462  -0.536  0.00  0.00    +0.410 HD
ATOM      3  C   LIG    1       -0.402  -0.698  -1.273  0.00  0.00    +0.540 C 
ATOM      4  O   LIG    1        0.305  -0.624  -2.255  0.00  0.00    -0.540 OA
ENDROOT
BRANCH   3   5
ATOM      5  C   LIG    1        0.002  -0.004   0.002  0.00  0.00    -0.020 C 
ATOM      6  C   LIG    1       -0.019   1.526   0.010  0.00  0.00    +0.110 C 
ATOM      7  C   LIG    1        1.317   0.779  -0.006  0.00  0.00    -0.040 C 
BRANCH   7   8
ATOM      8  C   LIG    1        2.144   0.783   1.280  0.00  0.00    +0.280 C 
BRANCH   8   9
ATOM      9  N   LIG    1        3.416   1.479   1.042  0.00  0.00    -0.380 N 
ATOM     10  C   LIG    1        4.215   0.722   0.069  0.00  0.00    +0.240 C 
ATOM     11  C   LIG    1        4.493  -0.678   0.621  0.00  0.00    +0.270 C 
ATOM     12  O   LIG    1        5.166  -0.565   1.878  0.00  0.00    -0.350 OA
ATOM     13  C   LIG    1        4.438   0.186   2.853  0.00  0.00    +0.220 C 
ATOM     14  C   LIG    1        4.159   1.588   2.305  0.00  0.00    +0.260 C 
ATOM     15  H   LIG    1        3.231   2.403   0.680  0.00  0.00    +0.430 HD
BRANCH  13  16
ATOM     16  C   LIG    1        5.251   0.293   4.117  0.00  0.00    -0.070 A 
ATOM     17  C   LIG    1        6.622   0.493   4.064  0.00  0.00    +0.000 A 
ATOM     18  C   LIG    1        7.334   0.591   5.245  0.00  0.00    +0.280 A 
ATOM     19  N   LIG    1        6.726   0.485   6.410  0.00  0.00    -0.470 NA
ATOM     20  C   LIG    1        5.425   0.289   6.498  0.00  0.00    +0.280 A 
ATOM     21  C   LIG    1        4.647   0.187   5.361  0.00  0.00    -0.020 A 
ENDBRANCH  13  16
ENDBRANCH   8   9
ENDBRANCH   7   8
ENDBRANCH   3   5
BRANCH   1  22
ATOM     22  C   LIG    1       -1.944  -2.078  -2.561  0.00  0.00    +0.320 C 
BRANCH  22  27
ATOM     23  C   LIG    1       -5.652  -2.786  -2.411  0.00  0.00    +0.130 A 
ATOM     24  C   LIG    1       -5.663  -4.099  -1.964  0.00  0.00    -0.070 A 
ATOM     25  C   LIG    1       -4.471  -4.752  -1.713  0.00  0.00    +0.050 A 
ATOM     26  C   LIG    1       -3.269  -4.099  -1.912  0.00  0.00    -0.010 A 
ATOM     27  C   LIG    1       -3.256  -2.788  -2.352  0.00  0.00    -0.080 A 
ATOM     28  C   LIG    1       -4.444  -2.131  -2.604  0.00  0.00    +0.000 A 
BRANCH  23  29
ATOM     29  O   LIG    1       -6.823  -2.142  -2.659  0.00  0.00    -0.290 OA
BRANCH  29  30
ATOM     30  C   LIG    1       -8.028  -2.878  -2.438  0.00  0.00    +0.240 C 
BRANCH  30  34
ATOM     31  C   LIG    1      -11.618  -1.650  -2.946  0.00  0.00    +0.290 C 
ATOM     32  N   LIG    1      -10.464  -2.495  -2.629  0.00  0.00    -0.730 N 
ATOM     33  H   LIG    1      -10.600  -3.406  -2.323  0.00  0.00    +0.400 HD
ATOM     34  C   LIG    1       -9.215  -2.009  -2.764  0.00  0.00    +0.510 C 
ATOM     35  O   LIG    1       -9.045  -0.870  -3.147  0.00  0.00    -0.510 OA
ENDBRANCH  30  34
ENDBRANCH  29  30
ENDBRANCH  23  29
ENDBRANCH  22  27
ENDBRANCH   1  22
TORSDOF 9
