REMARK  Name = ZINCwl000000047A.2
REMARK                            x       y       z     vdW  Elec       q    Type
REMARK                         _______ _______ _______ _____ _____    ______ ____
ROOT
ATOM      1  N   LIG    1        7.592  -1.097  -3.921  0.00  0.00    -0.710 N 
ATOM      2  H   LIG    1        7.314  -1.234  -4.841  0.00  0.00    +0.410 HD
ATOM      3  C   LIG    1        6.701  -0.669  -3.005  0.00  0.00    +0.540 C 
ATOM      4  O   LIG    1        7.048  -0.497  -1.856  0.00  0.00    -0.540 OA
ENDROOT
BRANCH   3   5
ATOM      5  C   LIG    1        5.273  -0.405  -3.408  0.00  0.00    -0.020 C 
ATOM      6  C   LIG    1        4.793   1.048  -3.402  0.00  0.00    +0.110 C 
ATOM      7  C   LIG    1        4.310   0.078  -2.322  0.00  0.00    -0.040 C 
BRANCH   7   8
ATOM      8  C   LIG    1        2.858  -0.400  -2.401  0.00  0.00    +0.310 C 
BRANCH   8   9
ATOM      9  N   LIG    1        2.124   0.067  -1.217  0.00  0.00    -0.380 N 
ATOM     10  C   LIG    1        2.050   1.534  -1.234  0.00  0.00    +0.240 C 
ATOM     11  C   LIG    1        1.285   2.018   0.001  0.00  0.00    +0.270 C 
ATOM     12  O   LIG    1       -0.017   1.426   0.010  0.00  0.00    -0.350 OA
ATOM     13  C   LIG    1        0.002  -0.004   0.002  0.00  0.00    +0.220 C 
ATOM     14  C   LIG    1        0.765  -0.492  -1.232  0.00  0.00    +0.250 C 
ATOM     15  H   LIG    1        2.603  -0.237  -0.383  0.00  0.00    +0.430 HD
BRANCH  13  16
ATOM     16  C   LIG    1       -1.411  -0.526  -0.040  0.00  0.00    -0.060 A 
ATOM     17  C   LIG    1       -2.373   0.092  -0.824  0.00  0.00    +0.000 A 
ATOM     18  C   LIG    1       -3.657  -0.419  -0.841  0.00  0.00    +0.280 A 
ATOM     19  N   LIG    1       -3.974  -1.473  -0.115  0.00  0.00    -0.470 NA
ATOM     20  C   LIG    1       -3.086  -2.083   0.646  0.00  0.00    +0.280 A 
ATOM     21  C   LIG    1       -1.781  -1.633   0.710  0.00  0.00    -0.010 A 
ENDBRANCH  13  16
ENDBRANCH   8   9
ENDBRANCH   7   8
ENDBRANCH   3   5
BRANCH   1  22
ATOM     22  C   LIG    1        8.980  -1.353  -3.530  0.00  0.00    +0.320 C 
BRANCH  22  27
ATOM     23  C   LIG    1       11.125  -1.324  -6.640  0.00  0.00    +0.130 A 
ATOM     24  C   LIG    1       11.200  -2.677  -6.934  0.00  0.00    -0.070 A 
ATOM     25  C   LIG    1       10.558  -3.595  -6.126  0.00  0.00    +0.050 A 
ATOM     26  C   LIG    1        9.845  -3.167  -5.022  0.00  0.00    -0.010 A 
ATOM     27  C   LIG    1        9.763  -1.817  -4.730  0.00  0.00    -0.080 A 
ATOM     28  C   LIG    1       10.404  -0.895  -5.535  0.00  0.00    +0.000 A 
BRANCH  23  29
ATOM     29  O   LIG    1       11.756  -0.419  -7.433  0.00  0.00    -0.290 OA
BRANCH  29  30
ATOM     30  C   LIG    1       12.480  -0.931  -8.554  0.00  0.00    +0.240 C 
BRANCH  30  34
ATOM     31  C   LIG    1       14.456   1.074 -11.149  0.00  0.00    +0.290 C 
ATOM     32  N   LIG    1       13.844  -0.036 -10.413  0.00  0.00    -0.730 N 
ATOM     33  H   LIG    1       13.969  -0.948 -10.719  0.00  0.00    +0.400 HD
ATOM     34  C   LIG    1       13.108   0.210  -9.311  0.00  0.00    +0.510 C 
ATOM     35  O   LIG    1       12.952   1.350  -8.928  0.00  0.00    -0.510 OA
ENDBRANCH  30  34
ENDBRANCH  29  30
ENDBRANCH  23  29
ENDBRANCH  22  27
ENDBRANCH   1  22
TORSDOF 9
