REMARK  Name = ZINCbu0000000Gxp.0
REMARK                            x       y       z     vdW  Elec       q    Type
REMARK                         _______ _______ _______ _____ _____    ______ ____
ROOT
ATOM      1  C   LIG    1       -1.433  -0.534   0.013  0.00  0.00    +0.010 C 
ATOM      2  C   LIG    1       -2.149  -0.040   1.272  0.00  0.00    +0.030 C 
ATOM      3  C   LIG    1       -1.409  -0.547   2.511  0.00  0.00    +0.030 C 
ATOM      4  C   LIG    1        0.026  -0.018   2.500  0.00  0.00    -0.040 C 
ATOM      5  C   LIG    1        0.742  -0.511   1.242  0.00  0.00    +0.060 C 
ATOM      6  C   LIG    1        0.766  -0.524   3.740  0.00  0.00    +0.050 C 
ATOM      7  C   LIG    1        0.002  -0.004   0.002  0.00  0.00    +0.180 C 
ENDROOT
BRANCH   7   8
ATOM      8  N   LIG    1       -0.018   1.465   0.010  0.00  0.00    -0.640 N 
ATOM      9  H   LIG    1       -0.490   1.790   0.840  0.00  0.00    +0.430 HD
ATOM     10  H   LIG    1       -0.506   1.799  -0.807  0.00  0.00    +0.430 HD
ATOM     11  H   LIG    1        0.929   1.814   0.003  0.00  0.00    +0.440 HD
ENDBRANCH   7   8
BRANCH   1  13
ATOM     12  C   LIG    1       -1.457  -0.520  -2.486  0.00  0.00    +0.030 C 
ATOM     13  C   LIG    1       -2.173  -0.027  -1.227  0.00  0.00    -0.040 C 
ATOM     14  C   LIG    1       -3.609  -0.556  -1.216  0.00  0.00    +0.040 C 
ENDBRANCH   1  13
TORSDOF 2
