REMARK  Name = ZINCpk00000Faucm.0
REMARK                            x       y       z     vdW  Elec       q    Type
REMARK                         _______ _______ _______ _____ _____    ______ ____
ROOT
ATOM      1  C   LIG    1        1.183   1.810   0.001  0.00  0.00    -0.220 A 
ATOM      2  C   LIG    1       -0.013   1.076   0.008  0.00  0.00    +0.160 A 
ATOM      3  C   LIG    1       -1.198   1.760   0.017  0.00  0.00    -0.040 A 
ATOM      4  C   LIG    1       -1.184   3.153   0.029  0.00  0.00    +0.340 A 
ATOM      5  N   LIG    1       -0.039   3.823   0.022  0.00  0.00    -0.520 NA
ATOM      6  C   LIG    1        1.123   3.204   0.008  0.00  0.00    +0.330 A 
ENDROOT
BRANCH   4   7
ATOM      7  N   LIG    1       -2.381   3.848   0.044  0.00  0.00    -0.480 N 
ATOM      8  C   LIG    1       -3.211   3.444   1.188  0.00  0.00    +0.190 C 
ATOM      9  C   LIG    1       -4.546   4.191   1.133  0.00  0.00    +0.250 C 
ATOM     10  O   LIG    1       -4.299   5.599   1.114  0.00  0.00    -0.360 OA
ATOM     11  C   LIG    1       -3.494   6.028   0.012  0.00  0.00    +0.270 C 
ATOM     12  C   LIG    1       -2.148   5.300   0.057  0.00  0.00    +0.220 C 
BRANCH  11  13
ATOM     13  C   LIG    1       -3.265   7.515   0.105  0.00  0.00    +0.170 A 
ATOM     14  N   LIG    1       -2.937   8.181   1.178  0.00  0.00    -0.260 NA
ATOM     15  N   LIG    1       -2.823   9.430   0.893  0.00  0.00    -0.300 NA
ATOM     16  C   LIG    1       -3.073   9.617  -0.374  0.00  0.00    +0.380 A 
ATOM     17  N   LIG    1       -3.356   8.406  -0.912  0.00  0.00    -0.470 N 
BRANCH  17  18
ATOM     18  C   LIG    1       -3.694   8.119  -2.308  0.00  0.00    +0.300 C 
ATOM     19  C   LIG    1       -5.215   8.093  -2.469  0.00  0.00    +0.040 C 
ENDBRANCH  17  18
ENDBRANCH  11  13
ENDBRANCH   4   7
BRANCH   1  22
ATOM     20  N   LIG    1        3.629   1.832  -0.023  0.00  0.00    -0.730 N 
ATOM     21  H   LIG    1        3.595   2.801  -0.017  0.00  0.00    +0.400 HD
ATOM     22  C   LIG    1        2.486   1.117  -0.016  0.00  0.00    +0.570 C 
ATOM     23  O   LIG    1        2.529  -0.098  -0.023  0.00  0.00    -0.530 OA
BRANCH  20  24
ATOM     24  C   LIG    1        4.922   1.144  -0.039  0.00  0.00    +0.260 C 
BRANCH  24  26
ATOM     25  C   LIG    1        7.401   1.460  -0.061  0.00  0.00    +0.030 C 
ATOM     26  C   LIG    1        6.050   2.178  -0.044  0.00  0.00    +0.000 C 
ENDBRANCH  24  26
ENDBRANCH  20  24
ENDBRANCH   1  22
TORSDOF 6
