REMARK  Name = ZINCqH0000035jIY.0
REMARK                            x       y       z     vdW  Elec       q    Type
REMARK                         _______ _______ _______ _____ _____    ______ ____
ROOT
ATOM      1  N   LIG    1       -1.608  -1.192  -1.371  0.00  0.00    -0.750 N 
ATOM      2  H   LIG    1       -1.111  -0.810  -2.111  0.00  0.00    +0.400 HD
ENDROOT
BRANCH   1   7
ATOM      3  C   LIG    1       -4.184  -3.098  -3.171  0.00  0.00    -0.040 A 
ATOM      4  C   LIG    1       -4.892  -3.641  -2.115  0.00  0.00    -0.040 A 
ATOM      5  C   LIG    1       -4.512  -3.373  -0.812  0.00  0.00    +0.050 A 
ATOM      6  C   LIG    1       -3.420  -2.566  -0.562  0.00  0.00    -0.070 A 
ATOM      7  C   LIG    1       -2.710  -2.014  -1.620  0.00  0.00    +0.210 A 
ATOM      8  C   LIG    1       -3.094  -2.284  -2.927  0.00  0.00    -0.060 A 
BRANCH   3   9
ATOM      9  C   LIG    1       -4.602  -3.392  -4.588  0.00  0.00    +0.220 C 
BRANCH   9  10
ATOM     10  O   LIG    1       -3.926  -4.564  -5.050  0.00  0.00    -0.370 OA
BRANCH  10  11
ATOM     11  C   LIG    1       -4.253  -4.932  -6.391  0.00  0.00    +0.180 C 
BRANCH  11  12
ATOM     12  C   LIG    1       -3.476  -6.192  -6.778  0.00  0.00    +0.180 C 
BRANCH  12  14
ATOM     13  C   LIG    1       -3.244  -8.519  -6.250  0.00  0.00    +0.200 C 
ATOM     14  O   LIG    1       -3.911  -7.287  -5.968  0.00  0.00    -0.380 OA
ENDBRANCH  12  14
ENDBRANCH  11  12
ENDBRANCH  10  11
ENDBRANCH   9  10
ENDBRANCH   3   9
ENDBRANCH   1   7
BRANCH   1  15
ATOM     15  C   LIG    1       -1.204  -0.907   0.008  0.00  0.00    +0.340 C 
BRANCH  15  16
ATOM     16  C   LIG    1        0.002  -0.004   0.002  0.00  0.00    -0.260 A 
ATOM     17  C   LIG    1        1.295  -0.403  -0.013  0.00  0.00    +0.250 A 
ATOM     18  N   LIG    1        2.067   0.704  -0.014  0.00  0.00    -0.370 N 
ATOM     19  N   LIG    1        1.220   1.820   0.000  0.00  0.00    -0.280 NA
ATOM     20  C   LIG    1       -0.017   1.395   0.010  0.00  0.00    +0.240 A 
BRANCH  18  21
ATOM     21  C   LIG    1        3.532   0.734  -0.028  0.00  0.00    +0.380 C 
BRANCH  21  22
ATOM     22  C   LIG    1        4.006   1.565  -1.192  0.00  0.00    -0.110 A 
ATOM     23  C   LIG    1        4.243   0.968  -2.416  0.00  0.00    +0.020 A 
ATOM     24  C   LIG    1        4.673   1.731  -3.485  0.00  0.00    +0.000 A 
ATOM     25  C   LIG    1        4.878   3.089  -3.327  0.00  0.00    +0.010 A 
ATOM     26  C   LIG    1        4.647   3.685  -2.101  0.00  0.00    +0.010 A 
ATOM     27  C   LIG    1        4.211   2.922  -1.034  0.00  0.00    +0.040 A 
ENDBRANCH  21  22
ENDBRANCH  18  21
ENDBRANCH  15  16
ENDBRANCH   1  15
TORSDOF 10
