REMARK  Name = ZINCtV00000yvKbH.0
REMARK                            x       y       z     vdW  Elec       q    Type
REMARK                         _______ _______ _______ _____ _____    ______ ____
ROOT
ATOM      1  C   LIG    1        0.120   3.967  -0.563  0.00  0.00    +0.550 C 
ATOM      2  N   LIG    1        1.222   3.442   0.009  0.00  0.00    -0.670 N 
ATOM      3  H   LIG    1        1.164   2.601   0.489  0.00  0.00    +0.410 HD
ATOM      4  O   LIG    1        0.173   5.062  -1.093  0.00  0.00    -0.520 OA
ENDROOT
BRANCH   2   5
ATOM      5  C   LIG    1        2.447   4.109  -0.089  0.00  0.00    +0.140 A 
ATOM      6  C   LIG    1        3.627   3.382  -0.195  0.00  0.00    +0.010 A 
ATOM      7  C   LIG    1        4.840   4.037  -0.297  0.00  0.00    +0.040 A 
ATOM      8  C   LIG    1        4.888   5.417  -0.285  0.00  0.00    +0.020 A 
ATOM      9  C   LIG    1        3.708   6.155  -0.174  0.00  0.00    -0.020 A 
ATOM     10  C   LIG    1        2.485   5.495  -0.076  0.00  0.00    +0.090 A 
BRANCH   9  11
ATOM     11  C   LIG    1        3.757   7.633  -0.162  0.00  0.00    +0.160 A 
ATOM     12  N   LIG    1        2.727   8.404  -0.070  0.00  0.00    -0.450 NA
ATOM     13  C   LIG    1        2.931   9.732  -0.066  0.00  0.00    +0.080 A 
ATOM     14  C   LIG    1        1.982  10.773   0.027  0.00  0.00    +0.080 A 
ATOM     15  C   LIG    1        2.379  12.075   0.008  0.00  0.00    +0.030 A 
ATOM     16  C   LIG    1        3.721  12.407  -0.104  0.00  0.00    +0.040 A 
ATOM     17  C   LIG    1        4.671  11.414  -0.197  0.00  0.00    +0.060 A 
ATOM     18  C   LIG    1        4.284  10.075  -0.179  0.00  0.00    -0.170 A 
ATOM     19  S   LIG    1        5.228   8.591  -0.277  0.00  0.00    +0.070 S 
ENDBRANCH   9  11
ENDBRANCH   2   5
BRANCH   1  21
ATOM     20  C   LIG    1       -2.241   3.749  -1.121  0.00  0.00    +0.160 C 
ATOM     21  C   LIG    1       -1.138   3.223  -0.548  0.00  0.00    -0.100 C 
BRANCH  20  28
ATOM     22  C   LIG    1       -4.657   3.547  -1.695  0.00  0.00    +0.170 A 
ATOM     23  C   LIG    1       -5.842   2.829  -1.680  0.00  0.00    -0.070 A 
ATOM     24  C   LIG    1       -5.893   1.588  -1.076  0.00  0.00    +0.110 A 
ATOM     25  C   LIG    1       -4.761   1.046  -0.487  0.00  0.00    -0.130 A 
ATOM     26  C   LIG    1       -3.571   1.743  -0.498  0.00  0.00    +0.120 A 
ATOM     27 BR   LIG    1       -4.849  -0.655   0.334  0.00  0.00    -0.040 Br
ATOM     28  C   LIG    1       -3.506   3.001  -1.105  0.00  0.00    -0.110 A 
BRANCH  22  30
ATOM     29  C   LIG    1       -5.819   5.260  -2.862  0.00  0.00    +0.250 C 
ATOM     30  O   LIG    1       -4.608   4.769  -2.282  0.00  0.00    -0.300 OA
ENDBRANCH  22  30
ENDBRANCH  20  28
ENDBRANCH   1  21
TORSDOF 5
