REMARK  Name = ZINCrD000000fCrx.0
REMARK                            x       y       z     vdW  Elec       q    Type
REMARK                         _______ _______ _______ _____ _____    ______ ____
ROOT
ATOM      1  N   LIG    1        2.088   7.147  -2.049  0.00  0.00    -0.670 N 
ATOM      2  H   LIG    1        3.031   7.152  -2.275  0.00  0.00    +0.410 HD
ATOM      3  C   LIG    1        1.665   6.511  -0.939  0.00  0.00    +0.590 C 
ATOM      4  O   LIG    1        0.497   6.583  -0.604  0.00  0.00    -0.510 OA
ENDROOT
BRANCH   1  12
ATOM      5  C   LIG    1       -3.385  10.535  -6.747  0.00  0.00    +0.110 C 
ATOM      6  C   LIG    1       -2.706   9.670  -5.717  0.00  0.00    +0.520 C 
ATOM      7  N   LIG    1       -1.421   9.900  -5.384  0.00  0.00    -0.560 N 
ATOM      8  C   LIG    1       -0.614  11.021  -5.875  0.00  0.00    +0.280 C 
ATOM      9  C   LIG    1        0.763  10.846  -5.215  0.00  0.00    +0.100 C 
ATOM     10  C   LIG    1        0.627   9.598  -4.373  0.00  0.00    -0.120 A 
ATOM     11  C   LIG    1        1.537   8.954  -3.557  0.00  0.00    +0.020 A 
ATOM     12  C   LIG    1        1.167   7.802  -2.875  0.00  0.00    +0.130 A 
ATOM     13  C   LIG    1       -0.120   7.300  -3.021  0.00  0.00    +0.050 A 
ATOM     14  C   LIG    1       -1.028   7.947  -3.830  0.00  0.00    +0.030 A 
ATOM     15  C   LIG    1       -0.660   9.105  -4.519  0.00  0.00    +0.130 A 
ATOM     16  O   LIG    1       -3.317   8.766  -5.187  0.00  0.00    -0.520 OA
ENDBRANCH   1  12
BRANCH   3  17
ATOM     17  C   LIG    1        2.615   5.728  -0.131  0.00  0.00    -0.290 A 
ATOM     18  C   LIG    1        3.961   5.554  -0.377  0.00  0.00    +0.310 A 
ATOM     19  N   LIG    1        4.459   4.769   0.592  0.00  0.00    -0.460 N 
ATOM     20  H   LIG    1        5.383   4.484   0.659  0.00  0.00    +0.450 HD
ATOM     21  N   LIG    1        3.442   4.425   1.487  0.00  0.00    -0.280 NA
ATOM     22  C   LIG    1        2.318   4.981   1.095  0.00  0.00    +0.180 A 
BRANCH  22  23
ATOM     23  C   LIG    1        0.999   4.869   1.763  0.00  0.00    -0.050 A 
ATOM     24  C   LIG    1        0.633   3.682   2.395  0.00  0.00    +0.080 A 
ATOM     25  C   LIG    1       -0.595   3.582   3.014  0.00  0.00    -0.030 A 
ATOM     26  C   LIG    1       -1.468   4.659   3.004  0.00  0.00    +0.120 A 
ATOM     27  C   LIG    1       -1.106   5.843   2.383  0.00  0.00    -0.020 A 
ATOM     28  F   LIG    1       -2.672   4.555   3.608  0.00  0.00    -0.140 F 
ATOM     29  C   LIG    1        0.120   5.952   1.761  0.00  0.00    +0.130 A 
ENDBRANCH  22  23
ENDBRANCH   3  17
TORSDOF 3
