REMARK  Name = ZINCrD000000fCrx.1
REMARK                            x       y       z     vdW  Elec       q    Type
REMARK                         _______ _______ _______ _____ _____    ______ ____
ROOT
ATOM      1  N   LIG    1       -2.594   6.890  -2.426  0.00  0.00    -0.670 N 
ATOM      2  H   LIG    1       -2.098   7.712  -2.562  0.00  0.00    +0.410 HD
ATOM      3  C   LIG    1       -2.444   6.193  -1.282  0.00  0.00    +0.590 C 
ATOM      4  O   LIG    1       -3.134   5.214  -1.071  0.00  0.00    -0.520 OA
ENDROOT
BRANCH   1  12
ATOM      5  C   LIG    1       -7.381   3.884  -8.043  0.00  0.00    +0.110 C 
ATOM      6  C   LIG    1       -6.482   4.030  -6.842  0.00  0.00    +0.520 C 
ATOM      7  N   LIG    1       -6.107   5.256  -6.427  0.00  0.00    -0.560 N 
ATOM      8  C   LIG    1       -6.588   6.519  -6.993  0.00  0.00    +0.280 C 
ATOM      9  C   LIG    1       -5.875   7.618  -6.190  0.00  0.00    +0.100 C 
ATOM     10  C   LIG    1       -5.015   6.869  -5.197  0.00  0.00    -0.120 A 
ATOM     11  C   LIG    1       -4.155   7.328  -4.218  0.00  0.00    +0.020 A 
ATOM     12  C   LIG    1       -3.466   6.426  -3.418  0.00  0.00    +0.130 A 
ATOM     13  C   LIG    1       -3.641   5.062  -3.611  0.00  0.00    +0.050 A 
ATOM     14  C   LIG    1       -4.504   4.606  -4.584  0.00  0.00    +0.030 A 
ATOM     15  C   LIG    1       -5.199   5.509  -5.391  0.00  0.00    +0.130 A 
ATOM     16  O   LIG    1       -6.098   3.044  -6.249  0.00  0.00    -0.520 OA
ENDBRANCH   1  12
BRANCH   3  17
ATOM     17  C   LIG    1       -1.446   6.618  -0.288  0.00  0.00    -0.290 A 
ATOM     18  C   LIG    1       -1.178   6.001   0.934  0.00  0.00    +0.210 A 
ATOM     19  N   LIG    1       -0.200   6.717   1.533  0.00  0.00    -0.450 N 
ATOM     20  H   LIG    1        0.192   6.528   2.400  0.00  0.00    +0.450 HD
ATOM     21  N   LIG    1        0.155   7.774   0.688  0.00  0.00    -0.280 NA
ATOM     22  C   LIG    1       -0.579   7.726  -0.390  0.00  0.00    +0.280 A 
BRANCH  18  23
ATOM     23  C   LIG    1       -1.843   4.798   1.475  0.00  0.00    -0.080 A 
ATOM     24  C   LIG    1       -1.084   3.779   2.054  0.00  0.00    +0.060 A 
ATOM     25  C   LIG    1       -1.710   2.658   2.558  0.00  0.00    -0.020 A 
ATOM     26  C   LIG    1       -3.090   2.543   2.490  0.00  0.00    +0.120 A 
ATOM     27  C   LIG    1       -3.847   3.549   1.912  0.00  0.00    -0.020 A 
ATOM     28  F   LIG    1       -3.698   1.443   2.986  0.00  0.00    -0.130 F 
ATOM     29  C   LIG    1       -3.233   4.676   1.410  0.00  0.00    +0.130 A 
ENDBRANCH  18  23
ENDBRANCH   3  17
TORSDOF 3
