REMARK  Name = ZINCvU00000004pW.0
REMARK                            x       y       z     vdW  Elec       q    Type
REMARK                         _______ _______ _______ _____ _____    ______ ____
ROOT
ATOM      1  C   LIG    1       -3.284  -2.754  -2.157  0.00  0.00    +0.540 C 
ATOM      2  N   LIG    1       -2.385  -2.676  -1.157  0.00  0.00    -0.600 N 
ATOM      3  C   LIG    1       -2.522  -3.515   0.042  0.00  0.00    +0.270 C 
ATOM      4  C   LIG    1       -2.493  -2.614   1.280  0.00  0.00    +0.030 C 
ATOM      5  C   LIG    1       -1.224  -1.759   1.254  0.00  0.00    +0.030 C 
ATOM      6  C   LIG    1       -1.232  -0.869   0.010  0.00  0.00    +0.080 C 
ATOM      7  C   LIG    1       -1.247  -1.750  -1.243  0.00  0.00    +0.300 C 
ATOM      8  O   LIG    1       -3.159  -2.056  -3.141  0.00  0.00    -0.520 OA
ENDROOT
BRANCH   6   9
ATOM      9  C   LIG    1        0.002  -0.004   0.002  0.00  0.00    +0.100 A 
ATOM     10  N   LIG    1       -0.015   1.275   0.009  0.00  0.00    -0.460 NA
ATOM     11  C   LIG    1        1.167   1.920   0.001  0.00  0.00    +0.080 A 
ATOM     12  C   LIG    1        1.437   3.303   0.006  0.00  0.00    +0.080 A 
ATOM     13  C   LIG    1        2.722   3.755  -0.003  0.00  0.00    +0.030 A 
ATOM     14  C   LIG    1        3.787   2.865  -0.018  0.00  0.00    +0.040 A 
ATOM     15  C   LIG    1        3.553   1.509  -0.023  0.00  0.00    +0.060 A 
ATOM     16  C   LIG    1        2.245   1.029  -0.014  0.00  0.00    -0.180 A 
ATOM     17  S   LIG    1        1.598  -0.609  -0.017  0.00  0.00    +0.110 S 
ENDBRANCH   6   9
BRANCH   1  18
ATOM     18  C   LIG    1       -4.445  -3.709  -2.053  0.00  0.00    +0.100 C 
BRANCH  18  19
ATOM     19  S   LIG    1       -5.466  -3.582  -3.542  0.00  0.00    +0.150 S 
BRANCH  19  23
ATOM     20  C   LIG    1       -8.451  -6.045  -3.262  0.00  0.00    +0.220 A 
ATOM     21  N   LIG    1       -7.823  -6.254  -2.130  0.00  0.00    -0.260 NA
ATOM     22  N   LIG    1       -6.786  -5.495  -2.070  0.00  0.00    -0.290 NA
ATOM     23  C   LIG    1       -6.711  -4.770  -3.162  0.00  0.00    +0.120 A 
ATOM     24  O   LIG    1       -7.763  -5.097  -3.936  0.00  0.00    -0.200 OA
BRANCH  20  31
ATOM     25  C   LIG    1       -9.689  -8.045  -1.576  0.00  0.00    +0.110 C 
ATOM     26  C   LIG    1      -10.293  -7.685  -2.909  0.00  0.00    -0.030 A 
ATOM     27  C   LIG    1      -11.449  -8.305  -3.334  0.00  0.00    +0.020 A 
ATOM     28  C   LIG    1      -12.001  -7.979  -4.561  0.00  0.00    +0.040 A 
ATOM     29  C   LIG    1      -11.402  -7.027  -5.366  0.00  0.00    +0.000 A 
ATOM     30  C   LIG    1      -10.248  -6.395  -4.950  0.00  0.00    +0.050 A 
ATOM     31  C   LIG    1       -9.686  -6.718  -3.714  0.00  0.00    -0.040 A 
ENDBRANCH  20  31
ENDBRANCH  19  23
ENDBRANCH  18  19
ENDBRANCH   1  18
TORSDOF 5
