REMARK  Name = ZINCpk00000y6wCQ.0
REMARK                            x       y       z     vdW  Elec       q    Type
REMARK                         _______ _______ _______ _____ _____    ______ ____
ROOT
ATOM      1  C   LIG    1       -1.874   2.786  -5.647  0.00  0.00    +0.290 C 
ENDROOT
BRANCH   1   3
ATOM      2  C   LIG    1       -1.560   2.958  -8.121  0.00  0.00    +0.200 C 
ATOM      3  C   LIG    1       -2.349   2.268  -7.006  0.00  0.00    +0.170 C 
ATOM      4  O   LIG    1       -2.136   0.856  -7.080  0.00  0.00    -0.370 OA
ATOM      5  C   LIG    1       -2.520   0.280  -8.331  0.00  0.00    +0.230 C 
ATOM      6  C   LIG    1       -1.732   0.950  -9.460  0.00  0.00    +0.160 C 
ATOM      7  N   LIG    1       -1.966   2.401  -9.419  0.00  0.00    -0.540 NA
ATOM      8  C   LIG    1       -1.271   3.076 -10.523  0.00  0.00    +0.190 C 
BRANCH   2  14
ATOM      9  C   LIG    1       -4.327   4.319  -8.436  0.00  0.00    +0.350 C 
ATOM     10  N   LIG    1       -3.054   5.018  -8.236  0.00  0.00    -0.350 N 
ATOM     11  N   LIG    1       -2.880   6.405  -8.153  0.00  0.00    -0.290 NA
ATOM     12  C   LIG    1       -1.606   6.647  -7.978  0.00  0.00    +0.230 A 
ATOM     13  C   LIG    1       -0.930   5.423  -7.940  0.00  0.00    -0.110 A 
ATOM     14  C   LIG    1       -1.844   4.438  -8.098  0.00  0.00    +0.090 A 
ENDBRANCH   2  14
ENDBRANCH   1   3
BRANCH   1  15
ATOM     15  N   LIG    1       -2.629   2.124  -4.581  0.00  0.00    -0.720 N 
ATOM     16  H   LIG    1       -3.309   1.468  -4.803  0.00  0.00    +0.400 HD
ATOM     17  C   LIG    1       -2.380   2.425  -3.291  0.00  0.00    +0.590 C 
ATOM     18  O   LIG    1       -1.527   3.247  -3.013  0.00  0.00    -0.550 OA
BRANCH  17  19
ATOM     19  C   LIG    1       -3.139   1.760  -2.219  0.00  0.00    -0.230 A 
ATOM     20  C   LIG    1       -3.003   1.956  -0.872  0.00  0.00    +0.140 A 
ATOM     21  N   LIG    1       -3.876   1.152  -0.236  0.00  0.00    -0.550 N 
ATOM     22  H   LIG    1       -3.978   1.097   0.728  0.00  0.00    +0.420 HD
ATOM     23  C   LIG    1       -4.599   0.429  -1.139  0.00  0.00    +0.160 A 
ATOM     24  C   LIG    1       -4.192   0.752  -2.380  0.00  0.00    -0.020 A 
BRANCH  20  25
ATOM     25  C   LIG    1       -2.036   2.905  -0.212  0.00  0.00    +0.050 C 
ATOM     26  C   LIG    1       -1.006   2.309   0.749  0.00  0.00    +0.040 C 
ATOM     27  C   LIG    1       -2.179   3.126   1.296  0.00  0.00    +0.020 C 
ENDBRANCH  20  25
ENDBRANCH  17  19
ENDBRANCH   1  15
TORSDOF 5
