REMARK  Name = ZINCrH000004nN2X.0
REMARK                            x       y       z     vdW  Elec       q    Type
REMARK                         _______ _______ _______ _____ _____    ______ ____
ROOT
ATOM      1  N   LIG    1       -2.308   0.605   0.539  0.00  0.00    -0.660 N 
ATOM      2  H   LIG    1       -3.198   0.937   0.339  0.00  0.00    +0.420 HD
ATOM      3  C   LIG    1       -2.136  -0.680   0.907  0.00  0.00    +0.610 C 
ATOM      4  O   LIG    1       -1.015  -1.121   1.067  0.00  0.00    -0.490 OA
ENDROOT
BRANCH   1   7
ATOM      5  C   LIG    1       -0.236   3.643   0.702  0.00  0.00    +0.140 A 
ATOM      6  C   LIG    1       -1.330   2.797   0.801  0.00  0.00    +0.010 A 
ATOM      7  C   LIG    1       -1.205   1.461   0.446  0.00  0.00    +0.160 A 
ATOM      8  C   LIG    1        0.018   0.972   0.005  0.00  0.00    +0.050 A 
ATOM      9  C   LIG    1        1.107   1.817  -0.093  0.00  0.00    +0.040 A 
ATOM     10  C   LIG    1        0.985   3.150   0.253  0.00  0.00    +0.070 A 
ATOM     11  F   LIG    1        2.052   3.973   0.156  0.00  0.00    -0.130 F 
BRANCH   5  12
ATOM     12  N   LIG    1       -0.360   4.992   1.052  0.00  0.00    -1.050 N 
ATOM     13  H   LIG    1        0.138   5.667   0.565  0.00  0.00    +0.430 HD
BRANCH  12  15
ATOM     14  C   LIG    1       -0.693   4.562   3.742  0.00  0.00    -0.260 C 
ATOM     15  S   LIG    1       -1.357   5.435   2.297  0.00  0.00    +2.610 S 
ATOM     16  O   LIG    1       -2.626   4.908   1.936  0.00  0.00    -0.950 OA
ATOM     17  O   LIG    1       -1.156   6.836   2.426  0.00  0.00    -0.940 OA
ENDBRANCH  12  15
ENDBRANCH   5  12
ENDBRANCH   1   7
BRANCH   3  18
ATOM     18  C   LIG    1       -3.314  -1.556   1.116  0.00  0.00    -0.030 A 
ATOM     19  N   LIG    1       -4.575  -1.223   0.982  0.00  0.00    -0.320 NA
ATOM     20  O   LIG    1       -5.311  -2.152   1.220  0.00  0.00    +0.140 OA
ATOM     21  C   LIG    1       -4.625  -3.259   1.554  0.00  0.00    +0.020 A 
ATOM     22  C   LIG    1       -3.301  -2.924   1.496  0.00  0.00    +0.030 A 
BRANCH  21  23
ATOM     23  C   LIG    1       -5.191  -4.578   1.908  0.00  0.00    -0.020 A 
ATOM     24  C   LIG    1       -6.573  -4.769   1.917  0.00  0.00    +0.050 A 
ATOM     25  C   LIG    1       -7.095  -6.003   2.248  0.00  0.00    +0.040 A 
ATOM     26  C   LIG    1       -6.251  -7.050   2.571  0.00  0.00    +0.050 A 
ATOM     27  C   LIG    1       -4.878  -6.868   2.565  0.00  0.00    -0.030 A 
ATOM     28 CL   LIG    1       -3.827  -8.188   2.971  0.00  0.00    -0.050 Cl
ATOM     29  C   LIG    1       -4.344  -5.640   2.229  0.00  0.00    +0.060 A 
ENDBRANCH  21  23
ENDBRANCH   3  18
TORSDOF 5
