REMARK  Name = ZINCrD00000hQ5n9.0
REMARK                            x       y       z     vdW  Elec       q    Type
REMARK                         _______ _______ _______ _____ _____    ______ ____
ROOT
ATOM      1  N   LIG    1       -1.150   3.459   0.022  0.00  0.00    -0.670 N 
ATOM      2  H   LIG    1       -1.988   3.943  -0.046  0.00  0.00    +0.410 HD
ATOM      3  C   LIG    1        0.011   4.136   0.126  0.00  0.00    +0.710 C 
ATOM      4  N   LIG    1        0.001   5.479   0.235  0.00  0.00    -0.610 N 
ATOM      5  C   LIG    1        1.290   6.199   0.230  0.00  0.00    +0.290 C 
ATOM      6  C   LIG    1        1.232   7.479  -0.630  0.00  0.00    +0.030 C 
ATOM      7  C   LIG    1        0.445   7.224  -1.893  0.00  0.00    +0.030 C 
ATOM      8  C   LIG    1       -1.020   7.579  -1.655  0.00  0.00    +0.230 C 
ATOM      9  C   LIG    1       -1.815   6.499  -1.051  0.00  0.00    -0.010 C 
ATOM     10  C   LIG    1       -1.271   6.155   0.358  0.00  0.00    +0.280 C 
ATOM     11  O   LIG    1        1.068   3.534   0.122  0.00  0.00    -0.570 OA
ENDROOT
BRANCH   1  17
ATOM     12  C   LIG    1        1.238  -0.778  -0.724  0.00  0.00    +0.100 C 
ATOM     13  C   LIG    1        0.003  -0.001  -0.348  0.00  0.00    -0.030 A 
ATOM     14  C   LIG    1       -1.171  -0.657  -0.002  0.00  0.00    -0.060 A 
ATOM     15  C   LIG    1       -2.285   0.085   0.337  0.00  0.00    +0.290 A 
ATOM     16  N   LIG    1       -2.246   1.404   0.334  0.00  0.00    -0.520 NA
ATOM     17  C   LIG    1       -1.146   2.066   0.010  0.00  0.00    +0.370 A 
ATOM     18  C   LIG    1        0.013   1.383  -0.341  0.00  0.00    -0.020 A 
ENDBRANCH   1  17
BRANCH   8  19
ATOM     19  N   LIG    1       -1.623   7.936  -2.942  0.00  0.00    -0.750 N 
ATOM     20  H   LIG    1       -1.290   7.537  -3.761  0.00  0.00    +0.400 HD
BRANCH  19  21
ATOM     21  C   LIG    1       -2.680   8.854  -2.989  0.00  0.00    +0.110 A 
ATOM     22  C   LIG    1       -3.256   9.204  -4.209  0.00  0.00    +0.020 A 
ATOM     23  C   LIG    1       -4.300  10.111  -4.208  0.00  0.00    -0.060 A 
ATOM     24  C   LIG    1       -4.731  10.648  -3.000  0.00  0.00    +0.350 A 
ATOM     25  N   LIG    1       -4.157  10.296  -1.860  0.00  0.00    -0.500 NA
ATOM     26  C   LIG    1       -3.162   9.430  -1.824  0.00  0.00    +0.220 A 
BRANCH  24  27
ATOM     27  N   LIG    1       -5.778  11.566  -2.989  0.00  0.00    -0.630 N 
ATOM     28  C   LIG    1       -6.166  12.220  -1.736  0.00  0.00    +0.290 C 
ATOM     29  C   LIG    1       -6.491  11.879  -4.229  0.00  0.00    +0.290 C 
ENDBRANCH  24  27
ENDBRANCH  19  21
ENDBRANCH   8  19
TORSDOF 4
