REMARK  Name = ZINCrH000004sOku.0
REMARK                            x       y       z     vdW  Elec       q    Type
REMARK                         _______ _______ _______ _____ _____    ______ ____
ROOT
ATOM      1  C   LIG    1       -0.853  -6.349   0.341  0.00  0.00    +0.290 C 
ATOM      2  C   LIG    1       -0.525  -6.924  -1.038  0.00  0.00    +0.040 C 
ENDROOT
BRANCH   1   3
ATOM      3  C   LIG    1       -0.934  -4.847   0.253  0.00  0.00    -0.110 A 
ATOM      4  C   LIG    1       -2.167  -4.225   0.173  0.00  0.00    +0.040 A 
ATOM      5  C   LIG    1       -2.244  -2.849   0.093  0.00  0.00    +0.020 A 
ATOM      6  C   LIG    1       -1.081  -2.089   0.091  0.00  0.00    +0.150 A 
ATOM      7  C   LIG    1        0.155  -2.716   0.166  0.00  0.00    -0.010 A 
ATOM      8  C   LIG    1        0.225  -4.093   0.252  0.00  0.00    +0.020 A 
BRANCH   6   9
ATOM      9  N   LIG    1       -1.156  -0.694   0.009  0.00  0.00    -0.670 N 
ATOM     10  H   LIG    1       -0.478  -0.200  -0.478  0.00  0.00    +0.410 HD
ATOM     11  C   LIG    1       -2.169  -0.037   0.608  0.00  0.00    +0.540 C 
ATOM     12  O   LIG    1       -3.061  -0.658   1.145  0.00  0.00    -0.520 OA
BRANCH  11  13
ATOM     13  C   LIG    1       -2.194   1.470   0.609  0.00  0.00    -0.070 C 
ATOM     14  C   LIG    1       -1.983   2.179   1.948  0.00  0.00    +0.060 C 
ATOM     15  C   LIG    1       -3.371   2.157   1.304  0.00  0.00    +0.080 C 
ENDBRANCH  11  13
ENDBRANCH   6   9
ENDBRANCH   1   3
BRANCH   1  17
ATOM     16  C   LIG    1        0.141  -7.919   1.917  0.00  0.00    +0.530 C 
ATOM     17  N   LIG    1        0.196  -6.727   1.291  0.00  0.00    -0.720 N 
ATOM     18  H   LIG    1        0.931  -6.120   1.469  0.00  0.00    +0.400 HD
ATOM     19  O   LIG    1       -0.778  -8.679   1.695  0.00  0.00    -0.510 OA
BRANCH  16  20
ATOM     20  C   LIG    1        1.220  -8.308   2.894  0.00  0.00    +0.080 C 
BRANCH  20  21
ATOM     21  S   LIG    1        0.865  -9.956   3.563  0.00  0.00    -0.160 S 
BRANCH  21  22
ATOM     22  C   LIG    1        2.251 -10.243   4.698  0.00  0.00    +0.160 C 
BRANCH  22  29
ATOM     23  C   LIG    1        3.393 -13.089   3.638  0.00  0.00    +0.160 C 
ATOM     24  C   LIG    1        2.593 -12.839   4.891  0.00  0.00    +0.040 A 
ATOM     25  N   LIG    1        2.220 -13.726   5.768  0.00  0.00    -0.360 NA
ATOM     26  O   LIG    1        1.588 -13.224   6.668  0.00  0.00    +0.100 OA
ATOM     27  C   LIG    1        1.460 -11.900   6.501  0.00  0.00    -0.000 A 
ATOM     28  C   LIG    1        0.746 -10.940   7.417  0.00  0.00    +0.200 C 
ATOM     29  C   LIG    1        2.098 -11.596   5.346  0.00  0.00    -0.200 A 
ENDBRANCH  22  29
ENDBRANCH  21  22
ENDBRANCH  20  21
ENDBRANCH  16  20
ENDBRANCH   1  17
TORSDOF 8
