REMARK  Name = ZINCqH0000007jZq.0
REMARK                            x       y       z     vdW  Elec       q    Type
REMARK                         _______ _______ _______ _____ _____    ______ ____
ROOT
ATOM      1  N   LIG    1        2.683  -0.456   3.688  0.00  0.00    -0.730 N 
ATOM      2  H   LIG    1        3.104  -0.746   2.864  0.00  0.00    +0.410 HD
ENDROOT
BRANCH   1   6
ATOM      3  C   LIG    1       -0.753   1.905   3.567  0.00  0.00    +0.060 A 
ATOM      4  C   LIG    1       -0.210   1.532   4.786  0.00  0.00    +0.010 A 
ATOM      5  C   LIG    1        0.929   0.750   4.826  0.00  0.00    -0.060 A 
ATOM      6  C   LIG    1        1.531   0.336   3.646  0.00  0.00    +0.230 A 
ATOM      7  C   LIG    1        0.985   0.702   2.422  0.00  0.00    -0.090 A 
ATOM      8  C   LIG    1       -0.153   1.491   2.382  0.00  0.00    +0.130 A 
BRANCH   3  10
ATOM      9  C   LIG    1       -2.438   3.063   4.784  0.00  0.00    +0.230 C 
ATOM     10  O   LIG    1       -1.875   2.675   3.529  0.00  0.00    -0.310 OA
ENDBRANCH   3  10
BRANCH   8  11
ATOM     11  O   LIG    1       -0.686   1.856   1.185  0.00  0.00    -0.310 OA
BRANCH  11  12
ATOM     12  C   LIG    1       -0.017   1.395   0.010  0.00  0.00    +0.590 C 
ATOM     13  F   LIG    1        1.296   1.879  -0.000  0.00  0.00    -0.200 F 
ATOM     14  F   LIG    1        0.002  -0.004   0.002  0.00  0.00    -0.200 F 
ENDBRANCH  11  12
ENDBRANCH   8  11
ENDBRANCH   1   6
BRANCH   1  15
ATOM     15  C   LIG    1        3.256  -0.848   4.979  0.00  0.00    +0.240 C 
ATOM     16  C   LIG    1        2.550  -2.106   5.489  0.00  0.00    +0.040 C 
BRANCH  15  17
ATOM     17  C   LIG    1        4.727  -1.130   4.811  0.00  0.00    +0.510 C 
ATOM     18  N   LIG    1        5.465  -1.510   5.873  0.00  0.00    -0.610 N 
ATOM     19  C   LIG    1        4.838  -1.649   7.189  0.00  0.00    +0.300 C 
ATOM     20  O   LIG    1        5.246  -1.015   3.721  0.00  0.00    -0.530 OA
BRANCH  18  21
ATOM     21  C   LIG    1        6.895  -1.784   5.710  0.00  0.00    +0.340 C 
BRANCH  21  22
ATOM     22  C   LIG    1        7.679  -0.517   5.937  0.00  0.00    -0.110 A 
ATOM     23  C   LIG    1        7.960   0.322   4.874  0.00  0.00    +0.030 A 
ATOM     24  C   LIG    1        8.675   1.486   5.083  0.00  0.00    +0.000 A 
ATOM     25  C   LIG    1        9.117   1.807   6.353  0.00  0.00    +0.010 A 
ATOM     26  C   LIG    1        8.840   0.966   7.415  0.00  0.00    +0.000 A 
ATOM     27  C   LIG    1        8.121  -0.196   7.207  0.00  0.00    +0.010 A 
ENDBRANCH  21  22
ENDBRANCH  18  21
ENDBRANCH  15  17
ENDBRANCH   1  15
TORSDOF 8
