REMARK  Name = ZINCrD00000kXYuP.0
REMARK                            x       y       z     vdW  Elec       q    Type
REMARK                         _______ _______ _______ _____ _____    ______ ____
ROOT
ATOM      1  O   LIG    1        2.675   6.046   3.655  0.00  0.00    -0.530 OA
ATOM      2  C   LIG    1        3.108   6.476   2.607  0.00  0.00    +0.520 C 
ATOM      3  N   LIG    1        2.767   5.886   1.444  0.00  0.00    -0.730 N 
ATOM      4  H   LIG    1        3.113   6.230   0.606  0.00  0.00    +0.400 HD
ENDROOT
BRANCH   2   5
ATOM      5  C   LIG    1        4.027   7.670   2.604  0.00  0.00    -0.010 C 
ATOM      6  C   LIG    1        5.373   7.279   1.987  0.00  0.00    +0.070 C 
ATOM      7  C   LIG    1        6.322   8.478   2.043  0.00  0.00    +0.210 C 
ATOM      8  N   LIG    1        6.506   8.894   3.440  0.00  0.00    -0.440 N 
ATOM      9  C   LIG    1        5.235   9.319   4.039  0.00  0.00    +0.220 C 
ATOM     10  C   LIG    1        4.253   8.145   4.043  0.00  0.00    +0.080 C 
BRANCH   8  11
ATOM     11  C   LIG    1        7.461   9.894   3.539  0.00  0.00    +0.220 A 
ATOM     12  N   LIG    1        7.292  11.068   4.077  0.00  0.00    -0.310 NA
ATOM     13  N   LIG    1        8.277  11.856   4.085  0.00  0.00    -0.240 NA
ATOM     14  C   LIG    1        9.382  11.450   3.549  0.00  0.00    +0.210 A 
ATOM     15  S   LIG    1        9.124   9.809   2.951  0.00  0.00    +0.070 S 
ENDBRANCH   8  11
ENDBRANCH   2   5
BRANCH   3  16
ATOM     16  C   LIG    1        1.873   4.725   1.446  0.00  0.00    +0.260 C 
BRANCH  16  17
ATOM     17  C   LIG    1        1.649   4.252   0.009  0.00  0.00    +0.110 C 
BRANCH  17  18
ATOM     18  C   LIG    1        0.729   3.058   0.011  0.00  0.00    -0.170 A 
ATOM     19  C   LIG    1        1.098   1.767   0.001  0.00  0.00    +0.260 A 
ATOM     20  N   LIG    1       -0.011   0.966   0.007  0.00  0.00    -0.580 N 
ATOM     21  H   LIG    1        0.002  -0.004   0.002  0.00  0.00    +0.420 HD
ATOM     22  C   LIG    1       -1.150   1.742   0.016  0.00  0.00    +0.070 A 
ATOM     23  C   LIG    1       -2.510   1.446   0.033  0.00  0.00    +0.110 A 
ATOM     24  C   LIG    1       -3.437   2.468   0.046  0.00  0.00    +0.020 A 
ATOM     25  C   LIG    1       -3.026   3.795   0.049  0.00  0.00    -0.030 A 
ATOM     26  C   LIG    1       -1.685   4.110   0.038  0.00  0.00    +0.070 A 
ATOM     27 CL   LIG    1       -4.210   5.065   0.066  0.00  0.00    -0.060 Cl
ATOM     28  F   LIG    1       -2.923   0.160   0.030  0.00  0.00    -0.130 F 
ATOM     29  C   LIG    1       -0.735   3.086   0.024  0.00  0.00    -0.060 A 
ENDBRANCH  17  18
ENDBRANCH  16  17
ENDBRANCH   3  16
TORSDOF 5
