REMARK  Name = ZINCqH0000002Pz1.0
REMARK                            x       y       z     vdW  Elec       q    Type
REMARK                         _______ _______ _______ _____ _____    ______ ____
ROOT
ATOM      1  C   LIG    1        5.864   4.010  -0.419  0.00  0.00    +0.200 A 
ATOM      2  C   LIG    1        5.142   4.780   0.490  0.00  0.00    -0.020 A 
ATOM      3  C   LIG    1        3.768   4.817   0.420  0.00  0.00    +0.180 A 
ATOM      4  C   LIG    1        3.101   4.071  -0.559  0.00  0.00    -0.170 A 
ATOM      5  C   LIG    1        3.835   3.301  -1.468  0.00  0.00    +0.170 A 
ATOM      6  C   LIG    1        5.199   3.273  -1.396  0.00  0.00    -0.040 A 
ENDROOT
BRANCH   1  12
ATOM      7  C   LIG    1        7.703   3.377   0.911  0.00  0.00    +0.150 C 
ATOM      8  C   LIG    1        9.226   3.224   0.889  0.00  0.00    +0.040 C 
ATOM      9  C   LIG    1        9.869   4.601   0.699  0.00  0.00    +0.010 C 
ATOM     10  C   LIG    1        9.345   5.226  -0.597  0.00  0.00    +0.030 C 
ATOM     11  C   LIG    1        7.819   5.320  -0.532  0.00  0.00    +0.180 C 
ATOM     12  N   LIG    1        7.252   3.978  -0.351  0.00  0.00    -0.500 N 
BRANCH   7  13
ATOM     13  C   LIG    1        7.056   2.001   1.080  0.00  0.00    +0.010 C 
BRANCH  13  15
ATOM     14  C   LIG    1        6.895  -0.005   2.561  0.00  0.00    +0.020 C 
ATOM     15  C   LIG    1        7.447   1.417   2.439  0.00  0.00    +0.010 C 
ENDBRANCH  13  15
ENDBRANCH   7  13
ENDBRANCH   1  12
BRANCH   6  16
ATOM     16  N   LIG    1        5.972   2.458  -2.359  0.00  0.00    +0.030 N 
ATOM     17  O   LIG    1        7.179   2.355  -2.239  0.00  0.00    -0.090 OA
ATOM     18  O   LIG    1        5.400   1.889  -3.272  0.00  0.00    -0.200 OA
ENDBRANCH   6  16
BRANCH   4  19
ATOM     19  C   LIG    1        1.629   4.102  -0.636  0.00  0.00    +0.490 C 
ATOM     20  O   LIG    1        1.046   3.374  -1.417  0.00  0.00    -0.440 OA
BRANCH  19  21
ATOM     21  C   LIG    1        0.865   5.013   0.233  0.00  0.00    +0.110 A 
ATOM     22  N   LIG    1        1.366   5.771   1.186  0.00  0.00    -0.440 NA
ATOM     23  C   LIG    1        0.381   6.459   1.758  0.00  0.00    +0.160 A 
ATOM     24  C   LIG    1       -0.784   6.121   1.151  0.00  0.00    +0.170 A 
ATOM     25  N   LIG    1       -0.486   5.217   0.188  0.00  0.00    -0.410 N 
ATOM     26  C   LIG    1       -1.433   4.575  -0.727  0.00  0.00    +0.340 C 
ENDBRANCH  19  21
ENDBRANCH   4  19
TORSDOF 6
