REMARK  Name = ZINCtV000002Oz4M.0
REMARK                            x       y       z     vdW  Elec       q    Type
REMARK                         _______ _______ _______ _____ _____    ______ ____
ROOT
ATOM      1  C   LIG    1        6.114  -0.561  -0.273  0.00  0.00    -0.070 A 
ATOM      2  C   LIG    1        6.189  -1.942  -0.386  0.00  0.00    +0.020 A 
ATOM      3  C   LIG    1        7.445  -2.556  -0.504  0.00  0.00    +0.200 A 
ATOM      4  N   LIG    1        8.566  -1.868  -0.513  0.00  0.00    -0.450 NA
ATOM      5  C   LIG    1        8.588  -0.538  -0.409  0.00  0.00    +0.130 A 
ATOM      6  C   LIG    1        9.803   0.172  -0.421  0.00  0.00    +0.050 A 
ATOM      7  C   LIG    1        9.792   1.530  -0.331  0.00  0.00    +0.030 A 
ATOM      8  C   LIG    1        8.596   2.233  -0.209  0.00  0.00    +0.020 A 
ATOM      9  C   LIG    1        7.400   1.579  -0.188  0.00  0.00    +0.060 A 
ATOM     10  C   LIG    1        7.373   0.184  -0.290  0.00  0.00    -0.060 A 
ENDROOT
BRANCH   3  11
ATOM     11  C   LIG    1        7.511  -4.033  -0.625  0.00  0.00    -0.060 A 
ATOM     12  C   LIG    1        6.340  -4.788  -0.612  0.00  0.00    +0.020 A 
ATOM     13  C   LIG    1        6.407  -6.162  -0.729  0.00  0.00    +0.010 A 
ATOM     14  C   LIG    1        7.634  -6.790  -0.848  0.00  0.00    +0.030 A 
ATOM     15  C   LIG    1        8.800  -6.045  -0.855  0.00  0.00    +0.010 A 
ATOM     16  C   LIG    1        8.744  -4.670  -0.744  0.00  0.00    +0.070 A 
ENDBRANCH   3  11
BRANCH   1  18
ATOM     17  O   LIG    1        4.769   1.346  -0.142  0.00  0.00    -0.500 OA
ATOM     18  C   LIG    1        4.813   0.131  -0.145  0.00  0.00    +0.570 C 
ATOM     19  N   LIG    1        3.677  -0.586  -0.033  0.00  0.00    -0.660 N 
ATOM     20  H   LIG    1        3.719  -1.551   0.045  0.00  0.00    +0.410 HD
BRANCH  19  21
ATOM     21  C   LIG    1        2.442   0.062  -0.030  0.00  0.00    +0.150 A 
ATOM     22  C   LIG    1        2.301   1.296  -0.629  0.00  0.00    +0.020 A 
ATOM     23  C   LIG    1        1.073   1.951  -0.630  0.00  0.00    +0.040 A 
ATOM     24  C   LIG    1       -0.021   1.394  -0.043  0.00  0.00    +0.010 A 
ATOM     25  C   LIG    1        0.079   0.137   0.579  0.00  0.00    -0.030 A 
ATOM     26  C   LIG    1       -1.034  -0.462   1.193  0.00  0.00    +0.030 A 
ATOM     27  C   LIG    1       -0.901  -1.680   1.787  0.00  0.00    +0.020 A 
ATOM     28  C   LIG    1        0.324  -2.344   1.795  0.00  0.00    +0.020 A 
ATOM     29  C   LIG    1        1.423  -1.794   1.209  0.00  0.00    +0.010 A 
ATOM     30  C   LIG    1        1.324  -0.539   0.587  0.00  0.00    -0.060 A 
ENDBRANCH  19  21
ENDBRANCH   1  18
TORSDOF 3
