REMARK  Name = ZINCvU00000005ya.0
REMARK                            x       y       z     vdW  Elec       q    Type
REMARK                         _______ _______ _______ _____ _____    ______ ____
ROOT
ATOM      1  N   LIG    1        0.006   1.385  -0.153  0.00  0.00    -0.450 N 
ATOM      2  C   LIG    1        1.307   1.753   0.041  0.00  0.00    +0.140 A 
ATOM      3  N   LIG    1        2.009   0.648   0.167  0.00  0.00    -0.290 NA
ATOM      4  N   LIG    1        1.241  -0.377   0.064  0.00  0.00    -0.270 NA
ATOM      5  C   LIG    1        0.002   0.010  -0.133  0.00  0.00    +0.230 A 
ENDROOT
BRANCH   5   6
ATOM      6  C   LIG    1       -1.176  -0.868  -0.300  0.00  0.00    -0.020 A 
ATOM      7  C   LIG    1       -1.007  -2.208  -0.654  0.00  0.00    +0.070 A 
ATOM      8  C   LIG    1       -2.110  -3.023  -0.804  0.00  0.00    +0.020 A 
ATOM      9  C   LIG    1       -3.382  -2.512  -0.615  0.00  0.00    -0.050 A 
ATOM     10  C   LIG    1       -3.557  -1.183  -0.270  0.00  0.00    +0.020 A 
ATOM     11  C   LIG    1       -2.462  -0.359  -0.112  0.00  0.00    +0.020 A 
BRANCH   9  12
ATOM     12  C   LIG    1       -4.583  -3.407  -0.786  0.00  0.00    -0.030 C 
ATOM     13  C   LIG    1       -5.367  -3.463   0.527  0.00  0.00    +0.040 C 
ATOM     14  C   LIG    1       -4.120  -4.815  -1.164  0.00  0.00    +0.030 C 
ATOM     15  C   LIG    1       -5.481  -2.850  -1.893  0.00  0.00    +0.040 C 
ENDBRANCH   9  12
ENDBRANCH   5   6
BRANCH   1  16
ATOM     16  C   LIG    1       -1.144   2.271  -0.350  0.00  0.00    +0.350 C 
BRANCH  16  18
ATOM     17  C   LIG    1       -1.877   3.896   1.319  0.00  0.00    +0.080 C 
ATOM     18  C   LIG    1       -1.731   2.637   0.989  0.00  0.00    -0.080 C 
ENDBRANCH  16  18
ENDBRANCH   1  16
BRANCH   2  19
ATOM     19  S   LIG    1        1.928   3.400   0.111  0.00  0.00    +0.090 S 
BRANCH  19  20
ATOM     20  C   LIG    1        3.685   3.062   0.387  0.00  0.00    +0.110 C 
BRANCH  20  21
ATOM     21  C   LIG    1        4.438   4.364   0.482  0.00  0.00    +0.530 C 
ATOM     22  N   LIG    1        5.770   4.358   0.688  0.00  0.00    -0.720 N 
ATOM     23  H   LIG    1        6.244   3.516   0.774  0.00  0.00    +0.400 HD
ATOM     24  O   LIG    1        3.846   5.416   0.374  0.00  0.00    -0.520 OA
BRANCH  22  25
ATOM     25  C   LIG    1        6.502   5.623   0.780  0.00  0.00    +0.240 C 
ATOM     26  C   LIG    1        6.869   6.105  -0.625  0.00  0.00    +0.000 C 
ATOM     27  C   LIG    1        7.267   7.581  -0.571  0.00  0.00    +0.010 C 
ATOM     28  C   LIG    1        6.278   8.344   0.312  0.00  0.00    +0.010 C 
ATOM     29  C   LIG    1        6.992   8.831   1.575  0.00  0.00    +0.000 C 
ATOM     30  C   LIG    1        7.188   7.655   2.534  0.00  0.00    +0.000 C 
ATOM     31  C   LIG    1        8.333   6.773   2.033  0.00  0.00    +0.030 C 
ATOM     32  C   LIG    1        7.779   5.415   1.598  0.00  0.00    +0.010 C 
ENDBRANCH  22  25
ENDBRANCH  20  21
ENDBRANCH  19  20
ENDBRANCH   2  19
TORSDOF 8
