REMARK  Name = ZINCnE000008ILzW.0
REMARK                            x       y       z     vdW  Elec       q    Type
REMARK                         _______ _______ _______ _____ _____    ______ ____
ROOT
ATOM      1  C   LIG    1       -2.661   4.928  -0.345  0.00  0.00    -0.100 A 
ATOM      2  C   LIG    1       -2.554   4.818   1.040  0.00  0.00    +0.040 A 
ATOM      3  C   LIG    1       -1.926   3.729   1.602  0.00  0.00    -0.030 A 
ATOM      4  C   LIG    1       -1.392   2.727   0.793  0.00  0.00    +0.100 A 
ATOM      5  O   LIG    1       -0.745   1.579   1.143  0.00  0.00    -0.310 OA
ATOM      6  C   LIG    1       -0.013   1.086   0.008  0.00  0.00    +0.240 C 
ATOM      7  C   LIG    1       -0.824   1.629  -1.192  0.00  0.00    -0.070 C 
ATOM      8  C   LIG    1       -1.497   2.847  -0.589  0.00  0.00    -0.120 A 
ATOM      9  C   LIG    1       -2.125   3.929  -1.158  0.00  0.00    +0.110 A 
ENDROOT
BRANCH   1  14
ATOM     10  C   LIG    1       -4.505   8.185  -0.706  0.00  0.00    -0.050 A 
ATOM     11  C   LIG    1       -4.608   8.287  -2.082  0.00  0.00    +0.010 A 
ATOM     12  C   LIG    1       -4.079   7.300  -2.895  0.00  0.00    +0.020 A 
ATOM     13  C   LIG    1       -3.441   6.211  -2.337  0.00  0.00    +0.020 A 
ATOM     14  C   LIG    1       -3.340   6.100  -0.951  0.00  0.00    -0.010 A 
ATOM     15  C   LIG    1       -3.875   7.097  -0.137  0.00  0.00    +0.010 A 
BRANCH  10  16
ATOM     16  C   LIG    1       -5.083   9.264   0.173  0.00  0.00    -0.010 C 
ATOM     17  C   LIG    1       -6.607   9.394   0.222  0.00  0.00    +0.090 C 
ATOM     18  C   LIG    1       -5.772  10.443  -0.516  0.00  0.00    +0.090 C 
BRANCH  16  20
ATOM     19  N   LIG    1       -3.761   9.756   2.366  0.00  0.00    -0.420 NA
ATOM     20  C   LIG    1       -4.337   9.541   1.411  0.00  0.00    +0.240 C 
ENDBRANCH  16  20
ENDBRANCH  10  16
ENDBRANCH   1  14
BRANCH   7  21
ATOM     21  C   LIG    1        0.089   2.024  -2.324  0.00  0.00    +0.510 C 
ATOM     22  O   LIG    1        0.118   3.181  -2.709  0.00  0.00    -0.680 OA
ATOM     23  O   LIG    1        0.798   1.187  -2.856  0.00  0.00    -0.690 OA
ENDBRANCH   7  21
TORSDOF 4
