REMARK  Name = ZINCrg000000oDQk.0
REMARK                            x       y       z     vdW  Elec       q    Type
REMARK                         _______ _______ _______ _____ _____    ______ ____
ROOT
ATOM      1  N   LIG    1        1.187  -0.648  -0.013  0.00  0.00    -0.530 N 
ATOM      2  C   LIG    1        0.002  -0.004   0.002  0.00  0.00    +0.510 A 
ATOM      3  C   LIG    1       -0.018   1.487   0.010  0.00  0.00    +0.510 A 
ATOM      4  N   LIG    1        1.148   2.164   0.003  0.00  0.00    -0.520 N 
ATOM      5  C   LIG    1        2.356   1.472  -0.013  0.00  0.00    +0.100 A 
ATOM      6  C   LIG    1        3.554   2.178  -0.021  0.00  0.00    +0.130 A 
ATOM      7  C   LIG    1        4.756   1.499  -0.036  0.00  0.00    -0.670 A 
ATOM      8  C   LIG    1        4.774   0.114  -0.043  0.00  0.00    +0.150 A 
ATOM      9  C   LIG    1        3.592  -0.597  -0.035  0.00  0.00    +0.010 A 
ATOM     10  O   LIG    1       -1.075   2.086   0.018  0.00  0.00    -0.460 OA
ATOM     11  O   LIG    1       -1.038  -0.632   0.008  0.00  0.00    -0.450 OA
ATOM     12  C   LIG    1        2.375   0.076  -0.020  0.00  0.00    +0.180 A 
ENDROOT
BRANCH   7  13
ATOM     13  S   LIG    1        6.271   2.397  -0.046  0.00  0.00    +2.700 S 
ATOM     14  O   LIG    1        5.974   3.679  -0.582  0.00  0.00    -0.950 OA
ATOM     15  O   LIG    1        7.248   1.529  -0.604  0.00  0.00    -0.950 OA
BRANCH  13  16
ATOM     16  N   LIG    1        6.708   2.639   1.533  0.00  0.00    -1.000 NA
ATOM     17  C   LIG    1        6.255   3.838   2.243  0.00  0.00    +0.300 C 
ATOM     18  C   LIG    1        7.548   1.655   2.220  0.00  0.00    +0.300 C 
ENDBRANCH  13  16
ENDBRANCH   7  13
BRANCH   1  20
ATOM     19  C   LIG    1        1.221  -2.615  -1.467  0.00  0.00    +0.030 C 
ATOM     20  C   LIG    1        1.222  -2.113  -0.021  0.00  0.00    +0.290 C 
ENDBRANCH   1  20
BRANCH   4  21
ATOM     21  C   LIG    1        1.145   3.629   0.011  0.00  0.00    +0.310 C 
BRANCH  21  22
ATOM     22  C   LIG    1        1.157   4.123   1.434  0.00  0.00    +0.350 C 
ATOM     23  O   LIG    1        1.168   3.334   2.348  0.00  0.00    -0.430 OA
BRANCH  22  24
ATOM     24  C   LIG    1        1.155   5.604   1.717  0.00  0.00    -0.110 C 
ATOM     25  C   LIG    1       -0.101   6.237   1.117  0.00  0.00    +0.050 C 
ATOM     26  C   LIG    1        2.397   6.243   1.093  0.00  0.00    +0.060 C 
ATOM     27  C   LIG    1        1.169   5.833   3.230  0.00  0.00    +0.060 C 
ENDBRANCH  22  24
ENDBRANCH  21  22
ENDBRANCH   4  21
TORSDOF 6
