REMARK  Name = ZINCrH00000No4z1.0
REMARK                            x       y       z     vdW  Elec       q    Type
REMARK                         _______ _______ _______ _____ _____    ______ ____
ROOT
ATOM      1  C   LIG    1        1.728   3.194   0.002  0.00  0.00    -0.210 C 
ENDROOT
BRANCH   1   4
ATOM      2  C   LIG    1        1.288  -0.395  -0.012  0.00  0.00    +0.260 A 
ATOM      3  N   LIG    1        2.050   0.674  -0.014  0.00  0.00    -0.460 NA
ATOM      4  C   LIG    1        1.262   1.761  -0.001  0.00  0.00    -0.020 A 
ATOM      5  C   LIG    1       -0.016   1.344   0.009  0.00  0.00    +0.190 A 
ATOM      6  O   LIG    1        0.002  -0.004   0.002  0.00  0.00    -0.190 OA
BRANCH   2  10
ATOM      7  C   LIG    1        2.658  -4.416  -0.051  0.00  0.00    +0.150 A 
ATOM      8  C   LIG    1        1.295  -4.149  -0.035  0.00  0.00    -0.010 A 
ATOM      9  C   LIG    1        0.847  -2.846  -0.022  0.00  0.00    +0.100 A 
ATOM     10  C   LIG    1        1.765  -1.794  -0.025  0.00  0.00    -0.070 A 
ATOM     11  C   LIG    1        3.134  -2.067  -0.046  0.00  0.00    +0.120 A 
ATOM     12  C   LIG    1        3.575  -3.372  -0.053  0.00  0.00    -0.070 A 
BRANCH   7  14
ATOM     13  C   LIG    1        4.511  -5.905  -0.079  0.00  0.00    +0.240 C 
ATOM     14  O   LIG    1        3.096  -5.702  -0.063  0.00  0.00    -0.310 OA
ENDBRANCH   7  14
ENDBRANCH   2  10
ENDBRANCH   1   4
BRANCH   1  15
ATOM     15  S   LIG    1        1.931   3.761   1.714  0.00  0.00    +2.410 S 
ATOM     16  O   LIG    1        2.987   3.022   2.313  0.00  0.00    -0.900 OA
ATOM     17  O   LIG    1        0.655   3.780   2.339  0.00  0.00    -0.920 OA
BRANCH  15  18
ATOM     18  C   LIG    1        2.485   5.472   1.479  0.00  0.00    -0.190 C 
BRANCH  18  19
ATOM     19  C   LIG    1        2.710   6.116   2.822  0.00  0.00    +0.170 A 
ATOM     20  N   LIG    1        3.828   6.109   3.490  0.00  0.00    -0.440 NA
ATOM     21  C   LIG    1        3.649   6.784   4.639  0.00  0.00    +0.150 A 
ATOM     22  C   LIG    1        2.374   7.207   4.669  0.00  0.00    -0.010 A 
ATOM     23  O   LIG    1        1.790   6.787   3.529  0.00  0.00    -0.180 OA
BRANCH  22  24
ATOM     24  C   LIG    1        1.720   8.002   5.769  0.00  0.00    +0.010 C 
ATOM     25  C   LIG    1        1.780   7.208   7.076  0.00  0.00    +0.050 C 
ATOM     26  C   LIG    1        0.260   8.274   5.404  0.00  0.00    +0.040 C 
ATOM     27  C   LIG    1        2.458   9.331   5.946  0.00  0.00    +0.050 C 
ENDBRANCH  22  24
ENDBRANCH  18  19
ENDBRANCH  15  18
ENDBRANCH   1  15
TORSDOF 7
