REMARK  Name = ZINCrD000000BHm2.0
REMARK                            x       y       z     vdW  Elec       q    Type
REMARK                         _______ _______ _______ _____ _____    ______ ____
ROOT
ATOM      1  C   LIG    1        0.002  -0.004   0.002  0.00  0.00    +0.160 C 
ATOM      2  C   LIG    1        1.169  -0.382   0.939  0.00  0.00    +0.050 C 
ATOM      3  C   LIG    1        2.100   0.848   0.937  0.00  0.00    +0.040 C 
ATOM      4  C   LIG    1        1.417   1.866  -0.001  0.00  0.00    +0.200 C 
ATOM      5  N   LIG    1       -0.018   1.481   0.010  0.00  0.00    -0.430 N 
ENDROOT
BRANCH   5   6
ATOM      6  C   LIG    1       -0.670   1.973  -1.100  0.00  0.00    +0.400 A 
ATOM      7  N   LIG    1       -1.178   1.153  -2.011  0.00  0.00    -0.570 NA
ATOM      8  C   LIG    1       -1.810   1.612  -3.079  0.00  0.00    +0.520 A 
ATOM      9  N   LIG    1       -1.971   2.891  -3.319  0.00  0.00    -0.530 NA
ATOM     10  C   LIG    1       -1.492   3.809  -2.465  0.00  0.00    +0.170 A 
ATOM     11  C   LIG    1       -1.644   5.183  -2.690  0.00  0.00    +0.030 A 
ATOM     12  C   LIG    1       -1.136   6.073  -1.790  0.00  0.00    +0.060 A 
ATOM     13  C   LIG    1       -0.468   5.637  -0.649  0.00  0.00    +0.000 A 
ATOM     14  C   LIG    1       -0.303   4.306  -0.400  0.00  0.00    +0.070 A 
ATOM     15  C   LIG    1       -0.811   3.368  -1.304  0.00  0.00    -0.160 A 
ENDBRANCH   5   6
BRANCH   1  17
ATOM     16  O   LIG    1       -2.173   0.209   0.893  0.00  0.00    -0.520 OA
ATOM     17  C   LIG    1       -1.298  -0.550   0.535  0.00  0.00    +0.540 C 
ATOM     18  N   LIG    1       -1.487  -1.882   0.612  0.00  0.00    -0.720 N 
ATOM     19  H   LIG    1       -0.787  -2.490   0.326  0.00  0.00    +0.400 HD
BRANCH  18  20
ATOM     20  C   LIG    1       -2.751  -2.413   1.130  0.00  0.00    +0.320 C 
ATOM     21  C   LIG    1       -2.526  -3.821   1.698  0.00  0.00    +0.020 C 
ATOM     22  C   LIG    1       -3.879  -4.473   1.991  0.00  0.00    +0.050 C 
ATOM     23  C   LIG    1       -4.590  -4.797   0.671  0.00  0.00    +0.140 C 
ATOM     24  C   LIG    1       -4.574  -3.561  -0.195  0.00  0.00    -0.010 A 
ATOM     25  O   LIG    1       -5.329  -3.301  -1.269  0.00  0.00    -0.170 OA
ATOM     26  C   LIG    1       -5.009  -2.090  -1.758  0.00  0.00    +0.150 A 
ATOM     27  C   LIG    1       -4.036  -1.562  -0.990  0.00  0.00    -0.030 A 
ATOM     28  C   LIG    1       -3.757  -2.507   0.013  0.00  0.00    -0.190 A 
ENDBRANCH  18  20
ENDBRANCH   1  17
TORSDOF 3
