REMARK  Name = ZINCrD000006V7GL.0
REMARK                            x       y       z     vdW  Elec       q    Type
REMARK                         _______ _______ _______ _____ _____    ______ ____
ROOT
ATOM      1  N   LIG    1       -1.201  -0.723   0.009  0.00  0.00    -0.560 N 
ATOM      2  C   LIG    1       -1.926  -1.136  -1.198  0.00  0.00    +0.310 C 
ATOM      3  C   LIG    1       -2.903  -2.240  -0.732  0.00  0.00    +0.020 C 
ATOM      4  C   LIG    1       -3.099  -1.877   0.758  0.00  0.00    +0.100 C 
ATOM      5  C   LIG    1       -1.842  -1.117   1.123  0.00  0.00    +0.520 C 
ATOM      6  O   LIG    1       -1.467  -0.897   2.255  0.00  0.00    -0.510 OA
ENDROOT
BRANCH   1  13
ATOM      7  C   LIG    1       -0.017   1.389   0.010  0.00  0.00    +0.140 A 
ATOM      8  C   LIG    1        1.175   2.095   0.002  0.00  0.00    -0.050 A 
ATOM      9  C   LIG    1        2.380   1.418  -0.013  0.00  0.00    +0.080 A 
ATOM     10  C   LIG    1        2.400   0.034  -0.021  0.00  0.00    -0.070 A 
ATOM     11  C   LIG    1        1.214  -0.678  -0.013  0.00  0.00    +0.080 A 
ATOM     12 CL   LIG    1        3.917  -0.810  -0.039  0.00  0.00    -0.060 Cl
ATOM     13  C   LIG    1        0.002  -0.004   0.002  0.00  0.00    +0.120 A 
BRANCH   7  15
ATOM     14  C   LIG    1       -1.146   3.482   0.026  0.00  0.00    +0.240 C 
ATOM     15  O   LIG    1       -1.203   2.054   0.019  0.00  0.00    -0.310 OA
ENDBRANCH   7  15
ENDBRANCH   1  13
BRANCH   3  16
ATOM     16  C   LIG    1       -2.289  -3.609  -0.877  0.00  0.00    +0.510 C 
ATOM     17  N   LIG    1       -2.939  -4.692  -0.408  0.00  0.00    -0.630 N 
ATOM     18  H   LIG    1       -3.802  -4.591   0.024  0.00  0.00    +0.430 HD
ATOM     19  O   LIG    1       -1.210  -3.735  -1.416  0.00  0.00    -0.450 OA
BRANCH  17  20
ATOM     20  C   LIG    1       -2.375  -5.947  -0.541  0.00  0.00    +0.290 A 
ATOM     21  N   LIG    1       -1.228  -6.189  -1.107  0.00  0.00    -0.490 NA
ATOM     22  C   LIG    1       -0.829  -7.432  -1.151  0.00  0.00    +0.210 A 
ATOM     23  C   LIG    1       -1.712  -8.320  -0.586  0.00  0.00    -0.370 A 
ATOM     24  C   LIG    1        0.478  -7.855  -1.770  0.00  0.00    +0.170 C 
ATOM     25  S   LIG    1       -3.091  -7.399   0.009  0.00  0.00    +0.190 S 
BRANCH  23  26
ATOM     26  C   LIG    1       -1.545  -9.716  -0.498  0.00  0.00    +0.430 C 
ATOM     27  O   LIG    1       -0.544 -10.238  -0.948  0.00  0.00    -0.450 OA
ATOM     28  C   LIG    1       -2.607 -10.563   0.154  0.00  0.00    +0.070 C 
ENDBRANCH  23  26
ENDBRANCH  17  20
ENDBRANCH   3  16
TORSDOF 5
