REMARK  Name = ZINCnE000001Pu4c.0
REMARK                            x       y       z     vdW  Elec       q    Type
REMARK                         _______ _______ _______ _____ _____    ______ ____
ROOT
ATOM      1  C   LIG    1       -2.290   1.557  -0.665  0.00  0.00    +0.270 C 
ATOM      2  C   LIG    1       -0.839   1.637  -1.184  0.00  0.00    +0.040 C 
ATOM      3  C   LIG    1       -0.013   1.086   0.008  0.00  0.00    +0.040 C 
ATOM      4  C   LIG    1       -0.815   1.624   1.219  0.00  0.00    +0.250 C 
ATOM      5  N   LIG    1       -2.228   1.535   0.804  0.00  0.00    -0.620 N 
ATOM      6  C   LIG    1       -3.286   1.448   1.634  0.00  0.00    +0.530 C 
ATOM      7  O   LIG    1       -4.409   1.380   1.180  0.00  0.00    -0.500 OA
ENDROOT
BRANCH   1  13
ATOM      8  C   LIG    1       -3.981   6.197   0.149  0.00  0.00    +0.080 C 
ATOM      9  C   LIG    1       -3.876   4.982  -0.737  0.00  0.00    -0.090 A 
ATOM     10  C   LIG    1       -4.493   4.975  -1.974  0.00  0.00    +0.000 A 
ATOM     11  C   LIG    1       -4.398   3.861  -2.787  0.00  0.00    +0.000 A 
ATOM     12  C   LIG    1       -3.685   2.755  -2.363  0.00  0.00    -0.080 A 
ATOM     13  C   LIG    1       -3.067   2.763  -1.127  0.00  0.00    -0.080 A 
ATOM     14  C   LIG    1       -3.581   1.540  -3.250  0.00  0.00    +0.070 C 
ATOM     15  C   LIG    1       -3.167   3.875  -0.312  0.00  0.00    +0.020 A 
ENDBRANCH   1  13
BRANCH   6  16
ATOM     16  C   LIG    1       -3.075   1.436   3.126  0.00  0.00    +0.050 C 
BRANCH  16  17
ATOM     17  C   LIG    1       -4.428   1.331   3.832  0.00  0.00    +0.340 C 
ATOM     18  F   LIG    1       -5.067   0.149   3.442  0.00  0.00    -0.190 F 
ATOM     19  F   LIG    1       -5.223   2.428   3.483  0.00  0.00    -0.190 F 
BRANCH  17  20
ATOM     20  C   LIG    1       -4.213   1.319   5.347  0.00  0.00    -0.060 C 
BRANCH  20  21
ATOM     21  C   LIG    1       -5.546   1.216   6.043  0.00  0.00    +0.490 C 
ATOM     22  O   LIG    1       -5.598   1.190   7.260  0.00  0.00    -0.700 OA
ATOM     23  O   LIG    1       -6.572   1.157   5.387  0.00  0.00    -0.670 OA
ENDBRANCH  20  21
ENDBRANCH  17  20
ENDBRANCH  16  17
ENDBRANCH   6  16
TORSDOF 5
