REMARK  Name = ZINCrH000004nyLa.0
REMARK                            x       y       z     vdW  Elec       q    Type
REMARK                         _______ _______ _______ _____ _____    ______ ____
ROOT
ATOM      1  C   LIG    1        3.528   3.200   1.110  0.00  0.00    +0.290 C 
ENDROOT
BRANCH   1   2
ATOM      2  C   LIG    1        3.624   2.195  -0.040  0.00  0.00    -0.020 C 
ATOM      3  C   LIG    1        3.591   2.935  -1.393  0.00  0.00    +0.020 C 
ATOM      4  C   LIG    1        5.084   3.099  -1.772  0.00  0.00    +0.010 C 
ATOM      5  C   LIG    1        5.707   1.763  -1.296  0.00  0.00    +0.010 C 
ATOM      6  C   LIG    1        4.969   1.450   0.022  0.00  0.00    +0.040 C 
BRANCH   2  12
ATOM      7  C   LIG    1        2.306   0.275  -0.970  0.00  0.00    +0.140 A 
ATOM      8  C   LIG    1        1.256  -0.629  -0.894  0.00  0.00    -0.080 A 
ATOM      9  C   LIG    1        0.393  -0.595   0.183  0.00  0.00    +0.040 A 
ATOM     10  C   LIG    1        0.573   0.339   1.186  0.00  0.00    -0.030 A 
ATOM     11  C   LIG    1        1.618   1.242   1.113  0.00  0.00    +0.040 A 
ATOM     12  C   LIG    1        2.485   1.211   0.039  0.00  0.00    -0.110 A 
BRANCH   7  14
ATOM     13  C   LIG    1        2.850  -0.673  -3.081  0.00  0.00    +0.230 C 
ATOM     14  O   LIG    1        3.157   0.243  -2.028  0.00  0.00    -0.300 OA
ENDBRANCH   7  14
ENDBRANCH   2  12
ENDBRANCH   1   2
BRANCH   1  15
ATOM     15  N   LIG    1        2.325   4.019   0.944  0.00  0.00    -0.720 N 
ATOM     16  H   LIG    1        1.708   3.833   0.219  0.00  0.00    +0.400 HD
ATOM     17  C   LIG    1        2.076   5.031   1.798  0.00  0.00    +0.570 C 
ATOM     18  O   LIG    1        2.798   5.207   2.760  0.00  0.00    -0.530 OA
BRANCH  17  19
ATOM     19  C   LIG    1        0.925   5.928   1.565  0.00  0.00    -0.210 A 
ATOM     20  C   LIG    1        0.023   5.670   0.526  0.00  0.00    +0.380 A 
ATOM     21  N   LIG    1       -1.008   6.455   0.301  0.00  0.00    -0.460 NA
ATOM     22  C   LIG    1       -1.245   7.524   1.043  0.00  0.00    +0.230 A 
ATOM     23  O   LIG    1       -2.187   8.484   1.054  0.00  0.00    +0.090 OA
ATOM     24  N   LIG    1       -2.022   9.299   1.931  0.00  0.00    -0.310 NA
ATOM     25  C   LIG    1       -0.974   9.068   2.665  0.00  0.00    +0.070 A 
ATOM     26  C   LIG    1       -0.478   9.879   3.834  0.00  0.00    +0.190 C 
ATOM     27  C   LIG    1       -0.378   7.848   2.110  0.00  0.00    -0.230 A 
ATOM     28  C   LIG    1        0.717   7.044   2.383  0.00  0.00    +0.230 A 
ENDBRANCH  17  19
ENDBRANCH   1  15
TORSDOF 5
