REMARK  Name = ZINCpe000000UVcD.0
REMARK                            x       y       z     vdW  Elec       q    Type
REMARK                         _______ _______ _______ _____ _____    ______ ____
ROOT
ATOM      1  N   LIG    1       -4.880   3.903   0.077  0.00  0.00    -0.730 N 
ATOM      2  H   LIG    1       -4.921   4.872   0.059  0.00  0.00    +0.400 HD
ATOM      3  C   LIG    1       -3.700   3.282   0.275  0.00  0.00    +0.710 C 
ATOM      4  N   LIG    1       -2.577   4.008   0.447  0.00  0.00    -0.680 N 
ATOM      5  H   LIG    1       -2.629   4.975   0.504  0.00  0.00    +0.410 HD
ATOM      6  O   LIG    1       -3.648   2.068   0.297  0.00  0.00    -0.560 OA
ENDROOT
BRANCH   4   7
ATOM      7  C   LIG    1       -1.336   3.366   0.543  0.00  0.00    +0.210 A 
ATOM      8  C   LIG    1       -0.342   3.895   1.356  0.00  0.00    +0.020 A 
ATOM      9  C   LIG    1        0.883   3.266   1.447  0.00  0.00    +0.110 A 
ATOM     10  C   LIG    1        1.119   2.099   0.735  0.00  0.00    +0.080 A 
ATOM     11  C   LIG    1        0.123   1.565  -0.075  0.00  0.00    +0.120 A 
ATOM     12  F   LIG    1        0.352   0.428  -0.768  0.00  0.00    -0.120 F 
ATOM     13  C   LIG    1       -1.102   2.198  -0.170  0.00  0.00    +0.040 A 
BRANCH  10  14
ATOM     14  N   LIG    1        2.364   1.456   0.833  0.00  0.00    -0.330 N 
ATOM     15  C   LIG    1        2.750   0.319   0.215  0.00  0.00    +0.470 A 
ATOM     16  N   LIG    1        3.982   0.078   0.581  0.00  0.00    -0.330 NA
ATOM     17  N   LIG    1        4.398   0.981   1.395  0.00  0.00    -0.030 NA
ATOM     18  N   LIG    1        3.473   1.855   1.600  0.00  0.00    -0.080 NA
ENDBRANCH  10  14
ENDBRANCH   4   7
BRANCH   1  23
ATOM     19  C   LIG    1       -7.087   3.876  -1.010  0.00  0.00    -0.010 C 
ATOM     20  C   LIG    1       -8.361   4.106  -0.172  0.00  0.00    +0.060 C 
ATOM     21  C   LIG    1       -8.316   2.990   0.901  0.00  0.00    +0.030 C 
ATOM     22  C   LIG    1       -6.808   2.907   1.245  0.00  0.00    +0.010 C 
ATOM     23  C   LIG    1       -6.100   3.114  -0.110  0.00  0.00    +0.280 C 
BRANCH  19  27
ATOM     24  C   LIG    1       -5.203   6.579  -2.961  0.00  0.00    +0.280 C 
ATOM     25  N   LIG    1       -5.779   5.292  -2.561  0.00  0.00    -0.730 N 
ATOM     26  H   LIG    1       -5.646   4.508  -3.115  0.00  0.00    +0.400 HD
ATOM     27  C   LIG    1       -6.495   5.199  -1.422  0.00  0.00    +0.520 C 
ATOM     28  O   LIG    1       -6.662   6.181  -0.729  0.00  0.00    -0.530 OA
ENDBRANCH  19  27
ENDBRANCH   1  23
TORSDOF 4
