REMARK  Name = ZINCrD0000074NCM.0
REMARK                            x       y       z     vdW  Elec       q    Type
REMARK                         _______ _______ _______ _____ _____    ______ ____
ROOT
ATOM      1  C   LIG    1       -7.425   3.632   0.073  0.00  0.00    +0.520 C 
ATOM      2  N   LIG    1       -8.587   2.950   0.096  0.00  0.00    -0.620 N 
ATOM      3  C   LIG    1       -8.580   1.489  -0.006  0.00  0.00    +0.300 C 
ATOM      4  O   LIG    1       -7.433   4.845   0.060  0.00  0.00    -0.520 OA
ENDROOT
BRANCH   1   5
ATOM      5  C   LIG    1       -6.114   2.888   0.065  0.00  0.00    +0.070 C 
BRANCH   5   6
ATOM      6  C   LIG    1       -4.958   3.891   0.039  0.00  0.00    +0.290 C 
BRANCH   6   8
ATOM      7  C   LIG    1       -2.522   3.849   0.008  0.00  0.00    +0.560 C 
ATOM      8  N   LIG    1       -3.685   3.167   0.030  0.00  0.00    -0.730 N 
ATOM      9  H   LIG    1       -3.678   2.197   0.041  0.00  0.00    +0.400 HD
ATOM     10  O   LIG    1       -2.531   5.065  -0.005  0.00  0.00    -0.530 OA
BRANCH   7  16
ATOM     11  C   LIG    1        2.467   3.893  -0.056  0.00  0.00    +0.090 C 
ATOM     12  C   LIG    1        1.165   3.135  -0.031  0.00  0.00    -0.090 A 
ATOM     13  C   LIG    1        1.171   1.752  -0.016  0.00  0.00    +0.040 A 
ATOM     14  C   LIG    1       -0.020   1.049   0.007  0.00  0.00    +0.010 A 
ATOM     15  C   LIG    1       -1.223   1.724   0.010  0.00  0.00    +0.030 A 
ATOM     16  C   LIG    1       -1.237   3.119  -0.001  0.00  0.00    -0.130 A 
ATOM     17  C   LIG    1       -0.032   3.823  -0.024  0.00  0.00    +0.080 A 
ENDBRANCH   7  16
ENDBRANCH   6   8
ENDBRANCH   5   6
ENDBRANCH   1   5
BRANCH   2  18
ATOM     18  C   LIG    1       -9.856   3.670   0.222  0.00  0.00    +0.370 C 
BRANCH  18  19
ATOM     19  C   LIG    1      -10.429   3.921  -1.149  0.00  0.00    -0.090 A 
ATOM     20  C   LIG    1       -9.805   3.399  -2.266  0.00  0.00    +0.120 A 
ATOM     21  C   LIG    1      -10.333   3.626  -3.523  0.00  0.00    -0.040 A 
ATOM     22  C   LIG    1      -11.480   4.383  -3.666  0.00  0.00    +0.130 A 
ATOM     23  C   LIG    1      -12.102   4.911  -2.550  0.00  0.00    +0.060 A 
ATOM     24  C   LIG    1      -11.577   4.681  -1.291  0.00  0.00    +0.010 A 
ATOM     25 CL   LIG    1      -12.358   5.344   0.110  0.00  0.00    -0.030 Cl
BRANCH  21  26
ATOM     26  N   LIG    1       -9.666   3.061  -4.718  0.00  0.00    +0.030 N 
ATOM     27  O   LIG    1       -8.655   2.393  -4.593  0.00  0.00    -0.150 OA
ATOM     28  O   LIG    1      -10.129   3.264  -5.827  0.00  0.00    -0.150 OA
ENDBRANCH  21  26
ENDBRANCH  18  19
ENDBRANCH   2  18
TORSDOF 7
