REMARK  Name = ZINCrH000004kLmx.0
REMARK                            x       y       z     vdW  Elec       q    Type
REMARK                         _______ _______ _______ _____ _____    ______ ____
ROOT
ATOM      1  C   LIG    1        1.986   3.580   0.126  0.00  0.00    +0.450 C 
ATOM      2  O   LIG    1        1.126   4.361  -0.227  0.00  0.00    -0.430 OA
ENDROOT
BRANCH   1   7
ATOM      3  C   LIG    1        4.842   5.408   1.388  0.00  0.00    -0.220 A 
ATOM      4  C   LIG    1        5.245   4.092   1.533  0.00  0.00    +0.140 A 
ATOM      5  N   LIG    1        4.262   3.291   1.096  0.00  0.00    -0.510 N 
ATOM      6  H   LIG    1        4.290   2.321   1.088  0.00  0.00    +0.430 HD
ATOM      7  C   LIG    1        3.205   4.063   0.659  0.00  0.00    -0.100 A 
ATOM      8  C   LIG    1        6.568   3.635   2.091  0.00  0.00    +0.150 C 
ATOM      9  C   LIG    1        3.547   5.388   0.827  0.00  0.00    +0.010 A 
ATOM     10  C   LIG    1        2.699   6.585   0.482  0.00  0.00    +0.130 C 
BRANCH   3  11
ATOM     11  C   LIG    1        5.621   6.605   1.746  0.00  0.00    +0.550 C 
ATOM     12  O   LIG    1        6.357   7.119   0.927  0.00  0.00    -0.490 OA
BRANCH  11  14
ATOM     13  C   LIG    1        6.314   8.311   3.266  0.00  0.00    +0.260 C 
ATOM     14  O   LIG    1        5.517   7.131   2.983  0.00  0.00    -0.350 OA
ENDBRANCH  11  14
ENDBRANCH   3  11
ENDBRANCH   1   7
BRANCH   1  15
ATOM     15  C   LIG    1        1.756   2.096  -0.004  0.00  0.00    -0.030 C 
ATOM     16  C   LIG    1        2.359   1.600  -1.319  0.00  0.00    +0.100 C 
BRANCH  15  17
ATOM     17  S   LIG    1       -0.022   1.758   0.012  0.00  0.00    +0.130 S 
BRANCH  17  18
ATOM     18  C   LIG    1        0.002  -0.004   0.002  0.00  0.00    +0.120 A 
ATOM     19  N   LIG    1        1.070  -0.766  -0.012  0.00  0.00    -0.280 NA
ATOM     20  N   LIG    1        0.714  -2.002  -0.014  0.00  0.00    -0.270 NA
ATOM     21  C   LIG    1       -0.594  -2.080  -0.002  0.00  0.00    +0.260 A 
ATOM     22  O   LIG    1       -1.073  -0.816   0.013  0.00  0.00    -0.200 OA
BRANCH  21  23
ATOM     23  C   LIG    1       -1.397  -3.320  -0.001  0.00  0.00    -0.150 A 
ATOM     24  C   LIG    1       -0.933  -4.600  -0.017  0.00  0.00    +0.090 A 
ATOM     25  O   LIG    1       -1.985  -5.431  -0.007  0.00  0.00    -0.170 OA
ATOM     26  C   LIG    1       -3.137  -4.743   0.008  0.00  0.00    +0.200 A 
ATOM     27  C   LIG    1        0.516  -5.011  -0.041  0.00  0.00    +0.200 C 
ATOM     28  C   LIG    1       -2.862  -3.428   0.013  0.00  0.00    -0.020 A 
ENDBRANCH  21  23
ENDBRANCH  17  18
ENDBRANCH  15  17
ENDBRANCH   1  15
TORSDOF 7
