REMARK  Name = ZINCrg000000qY2U.0
REMARK                            x       y       z     vdW  Elec       q    Type
REMARK                         _______ _______ _______ _____ _____    ______ ____
ROOT
ATOM      1  N   LIG    1        0.915   9.643  -0.090  0.00  0.00    -0.680 N 
ATOM      2  H   LIG    1        1.120   9.094  -0.864  0.00  0.00    +0.410 HD
ATOM      3  C   LIG    1        0.162   9.145   0.910  0.00  0.00    +0.620 C 
ATOM      4  O   LIG    1       -0.017   9.797   1.919  0.00  0.00    -0.470 OA
ENDROOT
BRANCH   1  10
ATOM      5  C   LIG    1        1.744  12.644  -3.302  0.00  0.00    +0.130 A 
ATOM      6  C   LIG    1        3.011  12.314  -3.756  0.00  0.00    -0.060 A 
ATOM      7  C   LIG    1        3.835  11.521  -2.981  0.00  0.00    +0.040 A 
ATOM      8  C   LIG    1        3.396  11.061  -1.755  0.00  0.00    +0.030 A 
ATOM      9  C   LIG    1        2.130  11.388  -1.297  0.00  0.00    -0.080 A 
ATOM     10  C   LIG    1        1.426  11.014  -0.010  0.00  0.00    +0.230 C 
ATOM     11  C   LIG    1        0.258  12.014   0.117  0.00  0.00    +0.060 C 
ATOM     12  C   LIG    1       -0.015  12.393  -1.355  0.00  0.00    +0.090 C 
ATOM     13  C   LIG    1        1.303  12.180  -2.069  0.00  0.00    -0.110 A 
BRANCH   5  15
ATOM     14  C   LIG    1        1.450  13.867  -5.320  0.00  0.00    +0.250 C 
ATOM     15  O   LIG    1        0.932  13.424  -4.063  0.00  0.00    -0.320 OA
ENDBRANCH   5  15
BRANCH  10  16
ATOM     16  C   LIG    1        2.380  11.155   1.178  0.00  0.00    +0.200 C 
BRANCH  16  17
ATOM     17  O   LIG    1        3.407  10.165   1.085  0.00  0.00    -0.570 OA
ATOM     18  H   LIG    1        4.049  10.196   1.807  0.00  0.00    +0.380 HD
ENDBRANCH  16  17
ENDBRANCH  10  16
ENDBRANCH   1  10
BRANCH   3  19
ATOM     19  C   LIG    1       -0.448   7.800   0.779  0.00  0.00    +0.140 A 
ATOM     20  N   LIG    1       -1.207   7.194   1.668  0.00  0.00    -0.380 NA
ATOM     21  C   LIG    1       -1.524   6.003   1.121  0.00  0.00    +0.220 A 
ATOM     22  N   LIG    1       -0.957   5.950  -0.057  0.00  0.00    -0.340 NA
ATOM     23  O   LIG    1       -0.337   6.971  -0.270  0.00  0.00    +0.110 OA
BRANCH  21  24
ATOM     24  C   LIG    1       -2.366   4.947   1.740  0.00  0.00    +0.140 A 
ATOM     25  C   LIG    1       -2.616   3.761   1.054  0.00  0.00    +0.270 A 
ATOM     26  N   LIG    1       -3.360   2.823   1.610  0.00  0.00    -0.430 NA
ATOM     27  C   LIG    1       -3.876   3.013   2.812  0.00  0.00    +0.250 A 
ATOM     28  C   LIG    1       -3.630   4.191   3.497  0.00  0.00    +0.240 A 
ATOM     29  N   LIG    1       -2.883   5.132   2.950  0.00  0.00    -0.400 NA
ENDBRANCH  21  24
ENDBRANCH   3  19
TORSDOF 6
