REMARK  Name = ZINCtj00000mgDTE.1
REMARK                            x       y       z     vdW  Elec       q    Type
REMARK                         _______ _______ _______ _____ _____    ______ ____
ROOT
ATOM      1  C   LIG    1       -4.855   6.157   4.498  0.00  0.00    +0.350 C 
ENDROOT
BRANCH   1   5
ATOM      2  C   LIG    1       -8.236   8.496   3.323  0.00  0.00    -0.100 A 
ATOM      3  C   LIG    1       -8.294   7.103   3.265  0.00  0.00    +0.070 A 
ATOM      4  C   LIG    1       -7.199   6.354   3.646  0.00  0.00    +0.030 A 
ATOM      5  C   LIG    1       -6.047   6.981   4.084  0.00  0.00    -0.110 A 
ATOM      6  C   LIG    1       -5.985   8.362   4.149  0.00  0.00    +0.040 A 
ATOM      7  C   LIG    1       -7.070   9.123   3.766  0.00  0.00    +0.050 A 
BRANCH   2  14
ATOM      8  C   LIG    1       -9.043  12.607  -1.375  0.00  0.00    +0.190 C 
ATOM      9  N   LIG    1       -9.038  12.148   0.020  0.00  0.00    -0.540 NA
ATOM     10  C   LIG    1      -10.355  11.625   0.407  0.00  0.00    +0.170 C 
ATOM     11  C   LIG    1      -10.361  11.327   1.911  0.00  0.00    +0.290 C 
ATOM     12  N   LIG    1       -9.226  10.443   2.217  0.00  0.00    -0.610 N 
ATOM     13  C   LIG    1       -7.890  10.838   1.745  0.00  0.00    +0.270 C 
ATOM     14  C   LIG    1       -9.405   9.305   2.916  0.00  0.00    +0.550 C 
ATOM     15  O   LIG    1      -10.527   8.943   3.211  0.00  0.00    -0.520 OA
ATOM     16  C   LIG    1       -7.982  11.151   0.243  0.00  0.00    +0.170 C 
ENDBRANCH   2  14
ENDBRANCH   1   5
BRANCH   1  17
ATOM     17  N   LIG    1       -3.995   5.924   3.335  0.00  0.00    -0.650 NA
ATOM     18  H   LIG    1       -4.240   6.287   2.470  0.00  0.00    +0.430 HD
BRANCH  17  19
ATOM     19  C   LIG    1       -2.831   5.185   3.472  0.00  0.00    +0.500 C 
ATOM     20  C   LIG    1       -2.468   4.658   4.713  0.00  0.00    -0.070 C 
ATOM     21  C   LIG    1       -1.299   3.928   4.802  0.00  0.00    +0.430 C 
ATOM     22  N   LIG    1       -0.561   3.750   3.716  0.00  0.00    -0.550 NA
ATOM     23  C   LIG    1       -0.930   4.262   2.551  0.00  0.00    +0.600 C 
ATOM     24  H   LIG    1        0.261   3.238   3.775  0.00  0.00    +0.450 HD
ATOM     25  N   LIG    1       -2.040   4.972   2.424  0.00  0.00    -0.560 NA
BRANCH  23  26
ATOM     26  N   LIG    1       -0.132   4.054   1.440  0.00  0.00    -0.470 NA
ATOM     27  C   LIG    1        0.081   2.618   1.205  0.00  0.00    +0.190 C 
ATOM     28  C   LIG    1        1.014   2.435   0.005  0.00  0.00    +0.250 C 
ATOM     29  O   LIG    1        0.454   3.094  -1.134  0.00  0.00    -0.370 OA
ATOM     30  C   LIG    1        0.235   4.494  -0.940  0.00  0.00    +0.250 C 
ATOM     31  C   LIG    1       -0.707   4.697   0.250  0.00  0.00    +0.220 C 
ENDBRANCH  23  26
ENDBRANCH  17  19
ENDBRANCH   1  17
TORSDOF 5
