REMARK  Name = ZINCpk00000xIcsg.0
REMARK                            x       y       z     vdW  Elec       q    Type
REMARK                         _______ _______ _______ _____ _____    ______ ____
ROOT
ATOM      1  C   LIG    1        1.294   1.956   0.013  0.00  0.00    +0.030 C 
ATOM      2  C   LIG    1        1.343   2.901   1.230  0.00  0.00    +0.110 C 
ATOM      3  C   LIG    1        2.815   3.369   1.376  0.00  0.00    -0.290 C 
ATOM      4  S   LIG    1        3.756   1.824   1.071  0.00  0.00    +2.410 S 
ATOM      5  O   LIG    1        4.860   2.104   0.221  0.00  0.00    -0.920 OA
ATOM      6  O   LIG    1        3.961   1.145   2.302  0.00  0.00    -0.910 OA
ATOM      7  C   LIG    1        2.460   0.971   0.117  0.00  0.00    -0.580 C 
ATOM      8  C   LIG    1        2.924   0.334  -1.192  0.00  0.00    +0.360 C 
ATOM      9  N   LIG    1        3.094  -0.903  -0.401  0.00  0.00    -0.660 N 
ATOM     10  C   LIG    1        3.844  -2.014  -0.539  0.00  0.00    +0.540 C 
ATOM     11  O   LIG    1        3.778  -2.897   0.290  0.00  0.00    -0.520 OA
ATOM     12  C   LIG    1        2.113  -0.436   0.601  0.00  0.00    +0.370 C 
ENDROOT
BRANCH   1  15
ATOM     13  C   LIG    1       -2.049   0.462  -1.101  0.00  0.00    +0.290 C 
ATOM     14  N   LIG    1       -0.735   1.111  -1.122  0.00  0.00    -0.620 N 
ATOM     15  C   LIG    1       -0.010   1.200   0.011  0.00  0.00    +0.530 C 
ATOM     16  O   LIG    1       -0.404   0.667   1.027  0.00  0.00    -0.520 OA
ATOM     17  C   LIG    1       -0.210   1.662  -2.373  0.00  0.00    +0.290 C 
ENDBRANCH   1  15
BRANCH  10  18
ATOM     18  C   LIG    1        4.764  -2.160  -1.723  0.00  0.00    +0.050 C 
BRANCH  18  19
ATOM     19  C   LIG    1        5.494  -3.502  -1.640  0.00  0.00    +0.030 C 
BRANCH  19  20
ATOM     20  C   LIG    1        6.429  -3.650  -2.842  0.00  0.00    +0.010 C 
BRANCH  20  21
ATOM     21  C   LIG    1        7.159  -4.992  -2.759  0.00  0.00    -0.020 C 
ATOM     22  C   LIG    1        8.124  -4.995  -1.556  0.00  0.00    +0.010 C 
ATOM     23  C   LIG    1        9.357  -5.787  -2.061  0.00  0.00    +0.000 C 
ATOM     24  C   LIG    1        9.481  -5.325  -3.534  0.00  0.00    -0.010 C 
ATOM     25  C   LIG    1        8.021  -5.202  -4.016  0.00  0.00    +0.000 C 
ENDBRANCH  20  21
ENDBRANCH  19  20
ENDBRANCH  18  19
ENDBRANCH  10  18
TORSDOF 5
