REMARK  Name = ZINCpe00000gMCMV.0
REMARK                            x       y       z     vdW  Elec       q    Type
REMARK                         _______ _______ _______ _____ _____    ______ ____
ROOT
ATOM      1  O   LIG    1        4.406   0.088   2.277  0.00  0.00    -0.340 OA
ENDROOT
BRANCH   1   2
ATOM      2  C   LIG    1        3.140  -0.347   2.169  0.00  0.00    +0.470 C 
ATOM      3  O   LIG    1        2.705  -1.143   2.968  0.00  0.00    -0.500 OA
BRANCH   2   7
ATOM      4  N   LIG    1       -0.018   1.465   0.010  0.00  0.00    -1.000 NA
ATOM      5  C   LIG    1        1.261   2.189   0.002  0.00  0.00    +0.300 C 
ATOM      6  C   LIG    1        2.125   1.677   1.158  0.00  0.00    +0.040 C 
ATOM      7  C   LIG    1        2.263   0.156   1.052  0.00  0.00    +0.040 C 
ATOM      8  C   LIG    1        0.880  -0.492   1.159  0.00  0.00    +0.050 C 
ATOM      9  C   LIG    1        0.002  -0.004   0.002  0.00  0.00    +0.300 C 
BRANCH   4  11
ATOM     10  C   LIG    1       -1.838   2.505   1.781  0.00  0.00    -0.280 C 
ATOM     11  S   LIG    1       -1.454   2.289   0.021  0.00  0.00    +2.610 S 
ATOM     12  O   LIG    1       -2.377   1.394  -0.584  0.00  0.00    -0.950 OA
ATOM     13  O   LIG    1       -1.145   3.540  -0.579  0.00  0.00    -0.950 OA
ENDBRANCH   4  11
ENDBRANCH   2   7
ENDBRANCH   1   2
BRANCH   1  14
ATOM     14  C   LIG    1        5.193  -0.440   3.377  0.00  0.00    +0.240 C 
BRANCH  14  15
ATOM     15  C   LIG    1        6.576   0.157   3.337  0.00  0.00    +0.400 C 
ATOM     16  O   LIG    1        6.869   0.950   2.466  0.00  0.00    -0.420 OA
BRANCH  15  17
ATOM     17  C   LIG    1        7.569  -0.220   4.351  0.00  0.00    -0.160 A 
ATOM     18  C   LIG    1        7.232  -1.134   5.356  0.00  0.00    +0.090 A 
ATOM     19  C   LIG    1        8.165  -1.486   6.306  0.00  0.00    +0.040 A 
ATOM     20  C   LIG    1        9.441  -0.938   6.271  0.00  0.00    +0.070 A 
ATOM     21  O   LIG    1       10.522  -1.121   7.080  0.00  0.00    -0.300 OA
ATOM     22  C   LIG    1       11.396  -0.009   6.814  0.00  0.00    +0.440 C 
ATOM     23  O   LIG    1       11.080   0.360   5.459  0.00  0.00    -0.300 OA
ATOM     24  C   LIG    1        9.784  -0.025   5.271  0.00  0.00    +0.020 A 
ATOM     25  C   LIG    1        8.856   0.329   4.312  0.00  0.00    +0.110 A 
ENDBRANCH  15  17
ENDBRANCH  14  15
ENDBRANCH   1  14
TORSDOF 6
