REMARK  Name = ZINCrD0000075CHQ.0
REMARK                            x       y       z     vdW  Elec       q    Type
REMARK                         _______ _______ _______ _____ _____    ______ ____
ROOT
ATOM      1  C   LIG    1       -2.167   9.288  -1.864  0.00  0.00    +0.000 C 
ENDROOT
BRANCH   1   3
ATOM      2  O   LIG    1       -2.274   7.156  -2.870  0.00  0.00    -0.540 OA
ATOM      3  C   LIG    1       -2.053   7.785  -1.857  0.00  0.00    +0.520 C 
ATOM      4  N   LIG    1       -1.706   7.141  -0.725  0.00  0.00    -0.720 N 
ATOM      5  H   LIG    1       -1.596   7.637   0.101  0.00  0.00    +0.410 HD
BRANCH   4   6
ATOM      6  C   LIG    1       -1.495   5.691  -0.743  0.00  0.00    +0.260 C 
BRANCH   6   7
ATOM      7  C   LIG    1       -1.264   5.192   0.685  0.00  0.00    +0.270 C 
BRANCH   7   8
ATOM      8  C   LIG    1       -1.158   3.689   0.680  0.00  0.00    +0.090 A 
ATOM      9  C   LIG    1       -0.044   3.081   1.228  0.00  0.00    -0.020 A 
ATOM     10  C   LIG    1        0.044   1.698   1.218  0.00  0.00    +0.070 A 
ATOM     11  C   LIG    1       -0.996   0.974   0.656  0.00  0.00    -0.030 A 
ATOM     12  C   LIG    1       -2.077   1.651   0.123  0.00  0.00    +0.260 A 
ATOM     13  N   LIG    1       -2.129   2.968   0.153  0.00  0.00    -0.470 NA
ENDBRANCH   7   8
BRANCH   7  14
ATOM     14  O   LIG    1       -0.053   5.754   1.196  0.00  0.00    -0.540 OA
ATOM     15  H   LIG    1        0.734   5.525   0.682  0.00  0.00    +0.380 HD
ENDBRANCH   7  14
ENDBRANCH   6   7
ENDBRANCH   4   6
ENDBRANCH   1   3
BRANCH   1  16
ATOM     16  C   LIG    1       -3.100   9.724  -2.995  0.00  0.00    +0.110 C 
BRANCH  16  17
ATOM     17  C   LIG    1       -3.279  11.219  -2.952  0.00  0.00    -0.080 A 
ATOM     18  C   LIG    1       -4.234  11.777  -2.123  0.00  0.00    +0.000 A 
ATOM     19  C   LIG    1       -4.394  13.150  -2.079  0.00  0.00    +0.000 A 
ATOM     20  C   LIG    1       -3.607  13.963  -2.872  0.00  0.00    +0.000 A 
ATOM     21  C   LIG    1       -2.655  13.405  -3.705  0.00  0.00    +0.000 A 
ATOM     22  C   LIG    1       -2.491  12.033  -3.745  0.00  0.00    +0.000 A 
ENDBRANCH  16  17
ENDBRANCH   1  16
BRANCH   1  23
ATOM     23  C   LIG    1       -0.783   9.903  -2.079  0.00  0.00    +0.100 C 
BRANCH  23  24
ATOM     24  C   LIG    1        0.117   9.530  -0.929  0.00  0.00    -0.090 A 
ATOM     25  C   LIG    1        0.164  10.326   0.199  0.00  0.00    +0.010 A 
ATOM     26  C   LIG    1        0.986   9.981   1.255  0.00  0.00    +0.000 A 
ATOM     27  C   LIG    1        1.769   8.844   1.179  0.00  0.00    +0.010 A 
ATOM     28  C   LIG    1        1.726   8.050   0.048  0.00  0.00    +0.010 A 
ATOM     29  C   LIG    1        0.900   8.393  -1.006  0.00  0.00    +0.010 A 
ENDBRANCH  23  24
ENDBRANCH   1  23
TORSDOF 9
