REMARK  Name = ZINCpe00000N3Oi0.0
REMARK                            x       y       z     vdW  Elec       q    Type
REMARK                         _______ _______ _______ _____ _____    ______ ____
ROOT
ATOM      1  C   LIG    1       -2.450   3.431  -1.440  0.00  0.00    +0.520 C 
ATOM      2  N   LIG    1       -2.499   4.711  -1.861  0.00  0.00    -0.590 N 
ATOM      3  C   LIG    1       -3.350   5.069  -2.997  0.00  0.00    +0.290 C 
ATOM      4  C   LIG    1       -2.713   6.041  -4.004  0.00  0.00    +0.100 C 
ATOM      5  S   LIG    1       -1.004   5.592  -4.346  0.00  0.00    -0.220 S 
ATOM      6  C   LIG    1       -0.087   6.374  -2.977  0.00  0.00    +0.130 C 
ATOM      7  C   LIG    1       -0.263   5.673  -1.711  0.00  0.00    +0.030 C 
ATOM      8  C   LIG    1       -1.710   5.719  -1.187  0.00  0.00    +0.320 C 
ATOM      9  O   LIG    1       -1.668   3.108  -0.571  0.00  0.00    -0.510 OA
ENDROOT
BRANCH   1  15
ATOM     10  C   LIG    1       -3.854   1.364  -0.979  0.00  0.00    -0.120 C 
ATOM     11  C   LIG    1       -5.146   0.718  -1.571  0.00  0.00    +0.080 C 
ATOM     12  C   LIG    1       -5.579   2.237  -1.567  0.00  0.00    +0.070 C 
ATOM     13  O   LIG    1       -4.651   2.982  -2.413  0.00  0.00    -0.330 OA
ATOM     14  C   LIG    1       -7.065   2.590  -1.661  0.00  0.00    +0.120 C 
ATOM     15  C   LIG    1       -3.367   2.402  -2.049  0.00  0.00    +0.210 C 
ATOM     16  C   LIG    1       -4.885   2.210  -0.184  0.00  0.00    +0.050 C 
BRANCH  10  17
ATOM     17  C   LIG    1       -2.829   0.514  -0.275  0.00  0.00    +0.510 C 
ATOM     18  O   LIG    1       -2.768   0.516   0.932  0.00  0.00    -0.490 OA
BRANCH  17  19
ATOM     19  O   LIG    1       -1.982  -0.245  -0.988  0.00  0.00    -0.350 OA
BRANCH  19  21
ATOM     20  C   LIG    1       -0.013  -1.657  -1.235  0.00  0.00    +0.070 C 
ATOM     21  C   LIG    1       -0.948  -0.949  -0.251  0.00  0.00    +0.200 C 
ENDBRANCH  19  21
ENDBRANCH  17  19
ENDBRANCH  10  17
ENDBRANCH   1  15
BRANCH   7  22
ATOM     22  C   LIG    1        0.644   6.300  -0.683  0.00  0.00    +0.470 C 
ATOM     23  O   LIG    1        0.182   6.731   0.346  0.00  0.00    -0.500 OA
BRANCH  22  24
ATOM     24  O   LIG    1        1.964   6.379  -0.913  0.00  0.00    -0.360 OA
ATOM     25  C   LIG    1        2.776   6.995   0.121  0.00  0.00    +0.260 C 
ENDBRANCH  22  24
ENDBRANCH   7  22
TORSDOF 6
