REMARK  Name = ZINCvU00000005ne.0
REMARK                            x       y       z     vdW  Elec       q    Type
REMARK                         _______ _______ _______ _____ _____    ______ ____
ROOT
ATOM      1  C   LIG    1       -1.343   2.028   0.019  0.00  0.00    +0.080 C 
ATOM      2  C   LIG    1       -2.131   1.626   1.269  0.00  0.00    +0.060 C 
ATOM      3  C   LIG    1       -3.502   2.305   1.242  0.00  0.00    +0.220 C 
ATOM      4  N   LIG    1       -4.228   1.901   0.031  0.00  0.00    -0.460 N 
ATOM      5  C   LIG    1       -3.513   2.320  -1.181  0.00  0.00    +0.220 C 
ATOM      6  C   LIG    1       -2.143   1.639  -1.227  0.00  0.00    +0.060 C 
ENDROOT
BRANCH   1  11
ATOM      7  C   LIG    1        2.283   1.427  -0.012  0.00  0.00    +0.220 A 
ATOM      8  C   LIG    1        2.337   0.031  -0.020  0.00  0.00    -0.070 A 
ATOM      9  C   LIG    1        1.145  -0.672  -0.013  0.00  0.00    +0.330 A 
ATOM     10  N   LIG    1        0.002  -0.004   0.002  0.00  0.00    -0.510 NA
ATOM     11  C   LIG    1       -0.016   1.314   0.009  0.00  0.00    +0.340 A 
ATOM     12  N   LIG    1        1.093   2.025   0.003  0.00  0.00    -0.510 NA
BRANCH   7  18
ATOM     13  F   LIG    1        4.576   5.707   0.192  0.00  0.00    -0.130 F 
ATOM     14  C   LIG    1        4.633   4.362   0.084  0.00  0.00    +0.090 A 
ATOM     15  C   LIG    1        5.859   3.729  -0.037  0.00  0.00    +0.000 A 
ATOM     16  C   LIG    1        5.924   2.352  -0.148  0.00  0.00    +0.050 A 
ATOM     17  C   LIG    1        4.767   1.600  -0.141  0.00  0.00    +0.040 A 
ATOM     18  C   LIG    1        3.529   2.231  -0.020  0.00  0.00    -0.030 A 
ATOM     19  C   LIG    1        3.467   3.619   0.087  0.00  0.00    +0.040 A 
ENDBRANCH   7  18
ENDBRANCH   1  11
BRANCH   4  20
ATOM     20  C   LIG    1       -5.521   2.394   0.040  0.00  0.00    +0.500 A 
ATOM     21  N   LIG    1       -5.934   3.141  -0.974  0.00  0.00    -0.560 NA
ATOM     22  C   LIG    1       -7.165   3.627  -1.006  0.00  0.00    +0.350 A 
ATOM     23  C   LIG    1       -8.025   3.358   0.043  0.00  0.00    -0.100 A 
ATOM     24  C   LIG    1       -7.560   2.572   1.102  0.00  0.00    +0.250 A 
ATOM     25  N   LIG    1       -6.312   2.113   1.064  0.00  0.00    -0.530 NA
BRANCH  24  26
ATOM     26  C   LIG    1       -8.444   2.256   2.249  0.00  0.00    -0.060 A 
ATOM     27  C   LIG    1       -9.749   2.746   2.284  0.00  0.00    +0.040 A 
ATOM     28  C   LIG    1      -10.569   2.443   3.352  0.00  0.00    +0.000 A 
ATOM     29  C   LIG    1      -10.095   1.664   4.392  0.00  0.00    +0.030 A 
ATOM     30  C   LIG    1       -8.800   1.179   4.366  0.00  0.00    +0.000 A 
ATOM     31  C   LIG    1       -7.973   1.471   3.300  0.00  0.00    +0.070 A 
ENDBRANCH  24  26
ENDBRANCH   4  20
TORSDOF 4
