REMARK  Name = ZINCrg000009XJf0.0
REMARK                            x       y       z     vdW  Elec       q    Type
REMARK                         _______ _______ _______ _____ _____    ______ ____
ROOT
ATOM      1  C   LIG    1       -2.579   4.388   0.840  0.00  0.00    +0.620 C 
ATOM      2  N   LIG    1       -3.549   3.455   0.911  0.00  0.00    -0.600 N 
ATOM      3  C   LIG    1       -4.995   3.706   0.766  0.00  0.00    +0.280 C 
ATOM      4  C   LIG    1       -5.678   2.535   1.514  0.00  0.00    +0.040 C 
ATOM      5  C   LIG    1       -4.734   1.353   1.171  0.00  0.00    +0.040 C 
ATOM      6  C   LIG    1       -3.341   2.018   1.145  0.00  0.00    +0.230 C 
ATOM      7  O   LIG    1       -1.410   4.054   0.886  0.00  0.00    -0.530 OA
ENDROOT
BRANCH   1  10
ATOM      8  N   LIG    1       -2.782   7.979   0.511  0.00  0.00    -0.350 N 
ATOM      9  C   LIG    1       -2.051   6.852   0.629  0.00  0.00    +0.310 A 
ATOM     10  C   LIG    1       -2.934   5.813   0.705  0.00  0.00    -0.100 A 
ATOM     11  N   LIG    1       -4.181   6.309   0.643  0.00  0.00    -0.210 NA
ATOM     12  N   LIG    1       -4.130   7.591   0.528  0.00  0.00    -0.050 NA
BRANCH   8  13
ATOM     13  C   LIG    1       -2.268   9.346   0.395  0.00  0.00    +0.350 C 
BRANCH  13  15
ATOM     14  C   LIG    1       -4.370   9.872  -0.954  0.00  0.00    +0.080 C 
ATOM     15  C   LIG    1       -2.848  10.003  -0.859  0.00  0.00    -0.150 C 
ATOM     16  C   LIG    1       -2.110   9.627  -2.157  0.00  0.00    +0.210 C 
ATOM     17  O   LIG    1       -2.215  11.029  -2.487  0.00  0.00    -0.370 OA
ATOM     18  C   LIG    1       -2.330  11.432  -1.108  0.00  0.00    +0.240 C 
ENDBRANCH  13  15
ENDBRANCH   8  13
ENDBRANCH   1  10
BRANCH   6  19
ATOM     19  C   LIG    1       -2.501   1.423   0.013  0.00  0.00    +0.330 C 
BRANCH  19  20
ATOM     20  N   LIG    1       -2.224   0.013   0.301  0.00  0.00    -0.280 N 
ATOM     21  C   LIG    1       -2.519  -1.033  -0.505  0.00  0.00    +0.140 A 
ATOM     22  C   LIG    1       -2.088  -2.141   0.142  0.00  0.00    +0.010 A 
ATOM     23  N   LIG    1       -1.562  -1.724   1.300  0.00  0.00    -0.260 NA
ATOM     24  N   LIG    1       -1.661  -0.443   1.364  0.00  0.00    -0.080 NA
BRANCH  22  25
ATOM     25  C   LIG    1       -2.183  -3.564  -0.344  0.00  0.00    +0.050 C 
ATOM     26  C   LIG    1       -3.146  -3.853  -1.498  0.00  0.00    +0.030 C 
ATOM     27  C   LIG    1       -3.489  -4.315  -0.080  0.00  0.00    +0.030 C 
ENDBRANCH  22  25
ENDBRANCH  19  20
ENDBRANCH   6  19
TORSDOF 6
