REMARK  Name = ZINCpe000000VLyz.0
REMARK                            x       y       z     vdW  Elec       q    Type
REMARK                         _______ _______ _______ _____ _____    ______ ____
ROOT
ATOM      1  C   LIG    1       -2.533   1.288  -0.168  0.00  0.00    -0.160 A 
ATOM      2  C   LIG    1       -2.626   0.208  -1.022  0.00  0.00    +0.500 A 
ATOM      3  N   LIG    1       -3.685  -0.660  -0.893  0.00  0.00    -0.540 N 
ATOM      4  C   LIG    1       -4.619  -0.459   0.053  0.00  0.00    +0.710 A 
ATOM      5  N   LIG    1       -4.545   0.587   0.894  0.00  0.00    -0.660 N 
ATOM      6  H   LIG    1       -5.232   0.710   1.569  0.00  0.00    +0.430 HD
ATOM      7  O   LIG    1       -5.548  -1.239   0.150  0.00  0.00    -0.530 OA
ATOM      8  C   LIG    1       -3.526   1.465   0.814  0.00  0.00    +0.570 A 
ATOM      9  O   LIG    1       -3.466   2.408   1.585  0.00  0.00    -0.520 OA
ENDROOT
BRANCH   1  10
ATOM     10  N   LIG    1       -1.458   2.196  -0.273  0.00  0.00    -0.510 N 
ATOM     11  C   LIG    1       -0.198   1.780  -0.032  0.00  0.00    +0.540 C 
ATOM     12  O   LIG    1        0.004   0.648   0.356  0.00  0.00    -0.520 OA
BRANCH  11  13
ATOM     13  C   LIG    1        0.960   2.720  -0.250  0.00  0.00    -0.070 C 
ATOM     14  C   LIG    1        1.724   3.199   0.986  0.00  0.00    +0.060 C 
ATOM     15  C   LIG    1        2.366   2.187   0.035  0.00  0.00    +0.000 C 
ATOM     16  C   LIG    1        3.504   2.681  -0.860  0.00  0.00    +0.060 C 
ENDBRANCH  11  13
BRANCH  10  17
ATOM     17  C   LIG    1       -1.712   3.590  -0.645  0.00  0.00    +0.300 C 
BRANCH  17  18
ATOM     18  C   LIG    1       -1.707   3.721  -2.170  0.00  0.00    +0.000 C 
BRANCH  18  19
ATOM     19  C   LIG    1       -1.971   5.177  -2.558  0.00  0.00    +0.160 C 
BRANCH  19  21
ATOM     20  C   LIG    1       -2.205   6.627  -4.452  0.00  0.00    +0.200 C 
ATOM     21  O   LIG    1       -1.966   5.299  -3.982  0.00  0.00    -0.390 OA
ENDBRANCH  19  21
ENDBRANCH  18  19
ENDBRANCH  17  18
ENDBRANCH  10  17
ENDBRANCH   1  10
BRANCH   2  22
ATOM     22  N   LIG    1       -1.671   0.002  -1.989  0.00  0.00    -0.820 N 
ATOM     23  H   LIG    1       -1.794  -0.696  -2.651  0.00  0.00    +0.410 HD
ATOM     24  H   LIG    1       -0.874   0.555  -2.009  0.00  0.00    +0.420 HD
ENDBRANCH   2  22
BRANCH   3  25
ATOM     25  C   LIG    1       -3.796  -1.811  -1.793  0.00  0.00    +0.310 C 
BRANCH  25  26
ATOM     26  C   LIG    1       -3.068  -3.010  -1.180  0.00  0.00    -0.040 C 
ATOM     27  C   LIG    1       -1.571  -2.707  -1.093  0.00  0.00    +0.010 C 
ATOM     28  C   LIG    1       -3.289  -4.244  -2.058  0.00  0.00    +0.040 C 
ENDBRANCH  25  26
ENDBRANCH   3  25
TORSDOF 9
