REMARK  Name = ZINCpe000000ZFO5.0
REMARK                            x       y       z     vdW  Elec       q    Type
REMARK                         _______ _______ _______ _____ _____    ______ ____
ROOT
ATOM      1  S   LIG    1        1.595   7.358   0.055  0.00  0.00    +2.700 S 
ATOM      2  O   LIG    1        2.806   6.915   0.652  0.00  0.00    -0.940 OA
ATOM      3  O   LIG    1        0.894   8.516   0.485  0.00  0.00    -0.940 OA
ENDROOT
BRANCH   1  11
ATOM      4  O   LIG    1       -1.195   0.528   0.483  0.00  0.00    -0.470 OA
ATOM      5  C   LIG    1       -1.001   1.728   0.427  0.00  0.00    +0.640 A 
ATOM      6  N   LIG    1       -1.961   2.673   0.450  0.00  0.00    -0.650 N 
ATOM      7  H   LIG    1       -2.917   2.519   0.512  0.00  0.00    +0.450 HD
ATOM      8  C   LIG    1       -1.329   3.914   0.370  0.00  0.00    +0.130 A 
ATOM      9  C   LIG    1       -1.794   5.219   0.352  0.00  0.00    +0.030 A 
ATOM     10  C   LIG    1       -0.898   6.267   0.256  0.00  0.00    +0.160 A 
ATOM     11  C   LIG    1        0.460   6.015   0.177  0.00  0.00    -0.670 A 
ATOM     12  C   LIG    1        0.931   4.716   0.194  0.00  0.00    +0.190 A 
ATOM     13  C   LIG    1        0.040   3.659   0.290  0.00  0.00    +0.020 A 
ATOM     14  O   LIG    1        0.202   2.314   0.328  0.00  0.00    -0.230 OA
ENDBRANCH   1  11
BRANCH   1  15
ATOM     15  N   LIG    1        1.920   7.579  -1.554  0.00  0.00    -1.060 N 
ATOM     16  H   LIG    1        2.821   7.447  -1.889  0.00  0.00    +0.430 HD
BRANCH  15  17
ATOM     17  C   LIG    1        0.897   7.956  -2.428  0.00  0.00    +0.130 A 
ATOM     18  C   LIG    1        0.368   7.030  -3.318  0.00  0.00    +0.060 A 
ATOM     19  C   LIG    1       -0.646   7.401  -4.178  0.00  0.00    +0.030 A 
ATOM     20  C   LIG    1       -1.129   8.702  -4.162  0.00  0.00    +0.140 A 
ATOM     21  C   LIG    1       -0.597   9.630  -3.276  0.00  0.00    +0.060 A 
ATOM     22  C   LIG    1        0.413   9.258  -2.412  0.00  0.00    +0.070 A 
BRANCH  20  23
ATOM     23  N   LIG    1       -2.156   9.080  -5.040  0.00  0.00    -0.330 N 
ATOM     24  C   LIG    1       -2.775   8.308  -5.960  0.00  0.00    +0.470 A 
ATOM     25  N   LIG    1       -3.668   9.055  -6.556  0.00  0.00    -0.330 NA
ATOM     26  N   LIG    1       -3.650  10.248  -6.082  0.00  0.00    -0.030 NA
ATOM     27  N   LIG    1       -2.757  10.346  -5.156  0.00  0.00    -0.070 NA
ENDBRANCH  20  23
ENDBRANCH  15  17
ENDBRANCH   1  15
TORSDOF 4
