REMARK  Name = ZINCvU00000005Fv.0
REMARK                            x       y       z     vdW  Elec       q    Type
REMARK                         _______ _______ _______ _____ _____    ______ ____
ROOT
ATOM      1  C   LIG    1        6.878   1.179  -1.838  0.00  0.00    +0.090 C 
ATOM      2  C   LIG    1        5.586   1.109  -2.218  0.00  0.00    -0.080 C 
ATOM      3  C   LIG    1        5.248   0.680  -3.614  0.00  0.00    +0.080 C 
ATOM      4  C   LIG    1        3.788   0.853  -3.981  0.00  0.00    +0.020 C 
ATOM      5  C   LIG    1        2.835   0.632  -2.808  0.00  0.00    +0.050 C 
ATOM      6  C   LIG    1        3.129   1.691  -1.744  0.00  0.00    +0.020 C 
ATOM      7  C   LIG    1        2.339   1.431  -0.450  0.00  0.00    +0.260 C 
ATOM      8  N   LIG    1        3.361   1.712   0.585  0.00  0.00    -0.470 N 
ATOM      9  C   LIG    1        3.122   2.022   1.874  0.00  0.00    +0.550 C 
ATOM     10  O   LIG    1        1.981   2.091   2.280  0.00  0.00    -0.490 OA
ATOM     11  N   LIG    1        4.620   1.597  -0.017  0.00  0.00    -0.240 NA
ATOM     12  C   LIG    1        4.568   1.441  -1.294  0.00  0.00    +0.150 C 
ENDROOT
BRANCH   1  16
ATOM     13  C   LIG    1        9.928  -0.262  -4.412  0.00  0.00    +0.140 A 
ATOM     14  C   LIG    1       10.100   0.944  -3.742  0.00  0.00    -0.020 A 
ATOM     15  C   LIG    1        9.112   1.416  -2.906  0.00  0.00    +0.070 A 
ATOM     16  C   LIG    1        7.936   0.679  -2.731  0.00  0.00    -0.110 A 
ATOM     17  C   LIG    1        7.771  -0.536  -3.403  0.00  0.00    +0.070 A 
ATOM     18  C   LIG    1        8.762  -0.997  -4.241  0.00  0.00    -0.080 A 
BRANCH  13  20
ATOM     19  C   LIG    1       10.665  -1.969  -5.893  0.00  0.00    +0.250 C 
ATOM     20  O   LIG    1       10.905  -0.723  -5.235  0.00  0.00    -0.320 OA
ENDBRANCH  13  20
ENDBRANCH   1  16
BRANCH   7  21
ATOM     21  C   LIG    1        1.173   2.378  -0.329  0.00  0.00    -0.120 A 
ATOM     22  C   LIG    1       -0.108   1.934  -0.602  0.00  0.00    +0.070 A 
ATOM     23  C   LIG    1       -1.177   2.802  -0.497  0.00  0.00    -0.070 A 
ATOM     24  C   LIG    1       -0.967   4.117  -0.106  0.00  0.00    +0.130 A 
ATOM     25  C   LIG    1        0.319   4.559   0.168  0.00  0.00    -0.020 A 
ATOM     26  C   LIG    1        1.386   3.689   0.056  0.00  0.00    +0.070 A 
BRANCH  24  27
ATOM     27  O   LIG    1       -2.018   4.971   0.002  0.00  0.00    -0.320 OA
ATOM     28  C   LIG    1       -3.314   4.447  -0.295  0.00  0.00    +0.250 C 
ENDBRANCH  24  27
ENDBRANCH   7  21
BRANCH   9  29
ATOM     29  C   LIG    1        4.272   2.282   2.812  0.00  0.00    +0.110 C 
ATOM     30 CL   LIG    1        4.490   0.865   3.905  0.00  0.00    -0.140 Cl
ATOM     31  C   LIG    1        3.977   3.530   3.647  0.00  0.00    +0.090 C 
ENDBRANCH   9  29
TORSDOF 5
