REMARK  Name = ZINCrH000004ppnE.0
REMARK                            x       y       z     vdW  Elec       q    Type
REMARK                         _______ _______ _______ _____ _____    ______ ____
ROOT
ATOM      1  C   LIG    1        2.447   1.414  -0.619  0.00  0.00    +0.250 C 
ATOM      2  C   LIG    1        1.509   2.331  -1.402  0.00  0.00    +0.090 C 
ATOM      3  C   LIG    1        0.091   1.828  -1.337  0.00  0.00    -0.070 A 
ATOM      4  C   LIG    1       -0.798   2.281  -2.304  0.00  0.00    +0.010 A 
ATOM      5  C   LIG    1       -2.115   1.869  -2.296  0.00  0.00    +0.010 A 
ATOM      6  C   LIG    1       -2.556   0.998  -1.317  0.00  0.00    +0.010 A 
ATOM      7  C   LIG    1       -1.674   0.543  -0.358  0.00  0.00    +0.020 A 
ATOM      8  C   LIG    1       -0.349   0.954  -0.368  0.00  0.00    -0.090 A 
ATOM      9  C   LIG    1        0.564   0.411   0.703  0.00  0.00    +0.350 C 
ATOM     10  N   LIG    1        1.832   1.149   0.692  0.00  0.00    -0.600 N 
ATOM     11  C   LIG    1        2.409   1.568   1.835  0.00  0.00    +0.600 C 
ATOM     12  O   LIG    1        3.478   2.149   1.800  0.00  0.00    -0.480 OA
ENDROOT
BRANCH  11  13
ATOM     13  C   LIG    1        1.749   1.324   3.122  0.00  0.00    -0.080 A 
ATOM     14  C   LIG    1        2.153   1.805   4.335  0.00  0.00    +0.050 A 
ATOM     15  C   LIG    1        1.236   1.327   5.284  0.00  0.00    -0.060 A 
ATOM     16  C   LIG    1        0.324   0.586   4.617  0.00  0.00    +0.200 A 
ATOM     17  O   LIG    1        0.634   0.590   3.314  0.00  0.00    -0.160 OA
ENDBRANCH  11  13
BRANCH   1  20
ATOM     18  N   LIG    1        3.995   3.314  -0.954  0.00  0.00    -0.730 N 
ATOM     19  H   LIG    1        3.293   3.758  -1.455  0.00  0.00    +0.390 HD
ATOM     20  C   LIG    1        3.780   2.092  -0.429  0.00  0.00    +0.530 C 
ATOM     21  O   LIG    1        4.659   1.538   0.197  0.00  0.00    -0.500 OA
BRANCH  18  23
ATOM     22  C   LIG    1        6.264   3.498  -1.850  0.00  0.00    +0.040 C 
ATOM     23  C   LIG    1        5.291   3.973  -0.769  0.00  0.00    +0.330 C 
BRANCH  23  24
ATOM     24  C   LIG    1        5.114   5.466  -0.873  0.00  0.00    -0.190 A 
ATOM     25  C   LIG    1        5.726   6.368  -0.103  0.00  0.00    +0.020 A 
ATOM     26  C   LIG    1        5.407   7.686  -0.384  0.00  0.00    +0.010 A 
ATOM     27  C   LIG    1        4.538   7.854  -1.381  0.00  0.00    -0.040 A 
ATOM     28  S   LIG    1        4.076   6.287  -2.032  0.00  0.00    +0.090 S 
ENDBRANCH  23  24
ENDBRANCH  18  23
ENDBRANCH   1  20
TORSDOF 4
