REMARK  Name = ZINCvU0000000IoA.0
REMARK                            x       y       z     vdW  Elec       q    Type
REMARK                         _______ _______ _______ _____ _____    ______ ____
ROOT
ATOM      1  C   LIG    1        0.171   0.155   0.049  0.00  0.00    +0.170 A 
ATOM      2  N   LIG    1        0.273   1.451   0.131  0.00  0.00    -0.250 NA
ATOM      3  N   LIG    1        1.510   1.794   0.185  0.00  0.00    -0.290 NA
ATOM      4  C   LIG    1        2.272   0.726   0.140  0.00  0.00    +0.180 A 
ATOM      5  N   LIG    1        1.441  -0.354   0.051  0.00  0.00    -0.440 N 
ENDROOT
BRANCH   5   6
ATOM      6  C   LIG    1        1.829  -1.765  -0.025  0.00  0.00    +0.280 C 
ATOM      7  C   LIG    1        2.748  -2.105   1.150  0.00  0.00    +0.070 C 
BRANCH   6   8
ATOM      8  C   LIG    1        2.555  -2.017  -1.321  0.00  0.00    -0.120 A 
ATOM      9  C   LIG    1        1.851  -2.418  -2.441  0.00  0.00    +0.030 A 
ATOM     10  C   LIG    1        2.517  -2.645  -3.631  0.00  0.00    +0.010 A 
ATOM     11  C   LIG    1        3.888  -2.479  -3.699  0.00  0.00    +0.030 A 
ATOM     12  C   LIG    1        4.592  -2.083  -2.577  0.00  0.00    +0.010 A 
ATOM     13  C   LIG    1        3.926  -1.852  -1.388  0.00  0.00    +0.040 A 
ENDBRANCH   6   8
ENDBRANCH   5   6
BRANCH   1  14
ATOM     14  C   LIG    1       -1.108  -0.637  -0.035  0.00  0.00    +0.330 C 
BRANCH  14  15
ATOM     15  O   LIG    1       -1.476  -0.804  -1.406  0.00  0.00    -0.310 OA
BRANCH  15  19
ATOM     16  C   LIG    1       -4.934  -2.920  -2.172  0.00  0.00    -0.120 A 
ATOM     17  C   LIG    1       -4.190  -2.411  -3.220  0.00  0.00    +0.050 A 
ATOM     18  C   LIG    1       -3.031  -1.702  -2.966  0.00  0.00    -0.010 A 
ATOM     19  C   LIG    1       -2.615  -1.501  -1.658  0.00  0.00    +0.120 A 
ATOM     20  C   LIG    1       -3.360  -2.019  -0.608  0.00  0.00    -0.080 A 
ATOM     21  C   LIG    1       -4.520  -2.722  -0.867  0.00  0.00    +0.050 A 
BRANCH  16  23
ATOM     22  C   LIG    1       -5.863  -5.179  -2.601  0.00  0.00    +0.020 C 
ATOM     23  C   LIG    1       -6.197  -3.693  -2.452  0.00  0.00    +0.060 C 
ENDBRANCH  16  23
ENDBRANCH  15  19
ENDBRANCH  14  15
ENDBRANCH   1  14
BRANCH   4  24
ATOM     24  S   LIG    1        4.033   0.692   0.185  0.00  0.00    +0.040 S 
BRANCH  24  25
ATOM     25  C   LIG    1        4.379   2.464   0.303  0.00  0.00    -0.020 C 
ATOM     26  C   LIG    1        5.886   2.684   0.474  0.00  0.00    +0.070 C 
ATOM     27  C   LIG    1        6.188   4.183   0.431  0.00  0.00    +0.030 C 
ATOM     28  C   LIG    1        5.823   4.747  -0.943  0.00  0.00    +0.030 C 
ATOM     29  C   LIG    1        4.314   4.605  -1.167  0.00  0.00    +0.030 C 
ATOM     30  C   LIG    1        3.929   3.155  -0.965  0.00  0.00    +0.370 C 
ATOM     31  O   LIG    1        3.283   2.564  -1.796  0.00  0.00    -0.420 OA
ENDBRANCH  24  25
ENDBRANCH   4  24
TORSDOF 8
