REMARK  Name = ZINCrD00000hQ55u.0
REMARK                            x       y       z     vdW  Elec       q    Type
REMARK                         _______ _______ _______ _____ _____    ______ ____
ROOT
ATOM      1  N   LIG    1        2.772  -2.373   2.165  0.00  0.00    -0.710 N 
ATOM      2  H   LIG    1        3.191  -2.156   1.318  0.00  0.00    +0.410 HD
ATOM      3  C   LIG    1        3.498  -2.349   3.301  0.00  0.00    +0.550 C 
ATOM      4  O   LIG    1        2.974  -2.620   4.361  0.00  0.00    -0.510 OA
ENDROOT
BRANCH   3   5
ATOM      5  C   LIG    1        4.959  -1.984   3.254  0.00  0.00    -0.050 C 
ATOM      6  C   LIG    1        5.377  -0.655   3.887  0.00  0.00    +0.090 C 
ATOM      7  C   LIG    1        5.728  -1.975   4.577  0.00  0.00    +0.050 C 
BRANCH   7   8
ATOM      8  C   LIG    1        4.965  -2.331   5.827  0.00  0.00    -0.060 A 
ATOM      9  C   LIG    1        3.874  -1.573   6.211  0.00  0.00    +0.090 A 
ATOM     10  C   LIG    1        3.174  -1.898   7.357  0.00  0.00    +0.030 A 
ATOM     11  C   LIG    1        3.562  -2.982   8.123  0.00  0.00    +0.020 A 
ATOM     12  C   LIG    1        4.654  -3.743   7.741  0.00  0.00    +0.060 A 
ATOM     13  F   LIG    1        5.034  -4.802   8.489  0.00  0.00    -0.130 F 
ATOM     14  C   LIG    1        5.354  -3.419   6.589  0.00  0.00    +0.080 A 
ATOM     15  F   LIG    1        6.416  -4.163   6.212  0.00  0.00    -0.130 F 
ENDBRANCH   7   8
ENDBRANCH   3   5
BRANCH   1  16
ATOM     16  C   LIG    1        1.351  -2.727   2.211  0.00  0.00    +0.290 C 
BRANCH  16  17
ATOM     17  C   LIG    1        1.206  -4.226   2.165  0.00  0.00    +0.450 C 
ATOM     18  O   LIG    1        2.188  -4.927   2.101  0.00  0.00    -0.490 OA
BRANCH  17  19
ATOM     19  O   LIG    1       -0.015  -4.783   2.196  0.00  0.00    -0.360 OA
BRANCH  19  21
ATOM     20  C   LIG    1       -1.542  -6.680   2.192  0.00  0.00    +0.070 C 
ATOM     21  C   LIG    1       -0.080  -6.233   2.148  0.00  0.00    +0.200 C 
ENDBRANCH  19  21
ENDBRANCH  17  19
ENDBRANCH  16  17
BRANCH  16  22
ATOM     22  C   LIG    1        0.633  -2.108   1.011  0.00  0.00    +0.070 C 
BRANCH  22  23
ATOM     23  C   LIG    1        0.673  -0.582   1.123  0.00  0.00    +0.180 C 
BRANCH  23  24
ATOM     24  O   LIG    1        0.002  -0.004   0.002  0.00  0.00    -0.370 OA
BRANCH  24  25
ATOM     25  C   LIG    1       -0.017   1.425   0.010  0.00  0.00    +0.110 C 
ATOM     26  C   LIG    1       -0.733   1.918   1.269  0.00  0.00    +0.020 C 
ATOM     27  C   LIG    1       -0.757   1.932  -1.230  0.00  0.00    +0.050 C 
ATOM     28  C   LIG    1        1.418   1.954  -0.001  0.00  0.00    +0.020 C 
ENDBRANCH  24  25
ENDBRANCH  23  24
ENDBRANCH  22  23
ENDBRANCH  16  22
ENDBRANCH   1  16
TORSDOF 10
