REMARK  Name = ZINCpe000027pGRD.0
REMARK                            x       y       z     vdW  Elec       q    Type
REMARK                         _______ _______ _______ _____ _____    ______ ____
ROOT
ATOM      1  O   LIG    1        8.324  -0.726  -1.048  0.00  0.00    -0.590 OA
ATOM      2  C   LIG    1        7.701  -0.800  -0.006  0.00  0.00    +0.710 C 
ATOM      3  N   LIG    1        6.382  -1.075  -0.028  0.00  0.00    -0.630 N 
ATOM      4  C   LIG    1        5.654  -1.183  -1.302  0.00  0.00    +0.320 C 
ATOM      5  C   LIG    1        4.412  -0.289  -1.230  0.00  0.00    +0.170 C 
ATOM      6  N   LIG    1        3.630  -0.638  -0.036  0.00  0.00    -0.490 N 
ATOM      7  C   LIG    1        4.391  -0.380   1.194  0.00  0.00    +0.180 C 
ATOM      8  C   LIG    1        5.632  -1.277   1.221  0.00  0.00    +0.280 C 
ATOM      9  N   LIG    1        8.329  -0.606   1.170  0.00  0.00    -0.740 N 
ATOM     10  H   LIG    1        7.850  -0.737   2.003  0.00  0.00    +0.390 HD
ENDROOT
BRANCH   6  11
ATOM     11  C   LIG    1        2.407   0.042  -0.022  0.00  0.00    +0.060 A 
ATOM     12  C   LIG    1        2.382   1.428  -0.016  0.00  0.00    -0.010 A 
ATOM     13  C   LIG    1        1.172   2.098  -0.001  0.00  0.00    +0.010 A 
ATOM     14  C   LIG    1       -0.014   1.388   0.007  0.00  0.00    +0.030 A 
ATOM     15  C   LIG    1        0.003   0.005  -0.000  0.00  0.00    -0.010 A 
ATOM     16  C   LIG    1        1.210  -0.673  -0.014  0.00  0.00    +0.130 A 
BRANCH  16  17
ATOM     17  O   LIG    1        1.229  -2.033  -0.021  0.00  0.00    -0.490 OA
ATOM     18  H   LIG    1        1.226  -2.422  -0.906  0.00  0.00    +0.390 HD
ENDBRANCH  16  17
ENDBRANCH   6  11
BRANCH   9  19
ATOM     19  C   LIG    1        9.736  -0.197   1.191  0.00  0.00    +0.250 C 
ATOM     20  C   LIG    1       10.629  -1.436   1.086  0.00  0.00    +0.020 C 
ATOM     21  C   LIG    1       10.351  -2.366   2.268  0.00  0.00    +0.000 C 
ATOM     22  C   LIG    1       10.649  -1.632   3.576  0.00  0.00    +0.140 C 
ATOM     23  C   LIG    1        9.757  -0.394   3.682  0.00  0.00    +0.040 C 
ATOM     24  C   LIG    1       10.035   0.537   2.499  0.00  0.00    +0.040 C 
BRANCH  22  25
ATOM     25  O   LIG    1       12.021  -1.234   3.596  0.00  0.00    -0.550 OA
ATOM     26  H   LIG    1       12.646  -1.969   3.533  0.00  0.00    +0.380 HD
ENDBRANCH  22  25
BRANCH  22  27
ATOM     27  C   LIG    1       10.371  -2.563   4.758  0.00  0.00    +0.150 C 
BRANCH  27  28
ATOM     28  O   LIG    1       11.205  -3.720   4.660  0.00  0.00    -0.570 OA
ATOM     29  H   LIG    1       11.082  -4.355   5.379  0.00  0.00    +0.380 HD
ENDBRANCH  27  28
ENDBRANCH  22  27
ENDBRANCH   9  19
TORSDOF 6
