REMARK  Name = ZINCvU00000009gE.0
REMARK                            x       y       z     vdW  Elec       q    Type
REMARK                         _______ _______ _______ _____ _____    ______ ____
ROOT
ATOM      1  O   LIG    1        0.144  -0.228  -0.137  0.00  0.00    -0.520 OA
ATOM      2  C   LIG    1        0.060   0.975   0.017  0.00  0.00    +0.560 C 
ATOM      3  N   LIG    1        1.177   1.726   0.072  0.00  0.00    -0.720 N 
ATOM      4  H   LIG    1        1.109   2.693   0.122  0.00  0.00    +0.400 HD
ENDROOT
BRANCH   2   5
ATOM      5  C   LIG    1       -1.268   1.613   0.139  0.00  0.00    -0.140 A 
ATOM      6  C   LIG    1       -1.367   2.993   0.321  0.00  0.00    +0.060 A 
ATOM      7  C   LIG    1       -2.610   3.584   0.429  0.00  0.00    +0.000 A 
ATOM      8  C   LIG    1       -3.755   2.809   0.367  0.00  0.00    +0.060 A 
ATOM      9  C   LIG    1       -3.663   1.440   0.191  0.00  0.00    -0.130 A 
ATOM     10  C   LIG    1       -2.427   0.838   0.076  0.00  0.00    +0.120 A 
BRANCH   9  11
ATOM     11  C   LIG    1       -4.915   0.605   0.124  0.00  0.00    +0.390 C 
BRANCH  11  12
ATOM     12  N   LIG    1       -5.279   0.161   1.472  0.00  0.00    -0.350 N 
ATOM     13  C   LIG    1       -6.469   0.355   2.078  0.00  0.00    +0.250 A 
ATOM     14  C   LIG    1       -6.401  -0.203   3.308  0.00  0.00    -0.070 A 
ATOM     15  C   LIG    1       -5.126  -0.758   3.460  0.00  0.00    -0.020 A 
ATOM     16  N   LIG    1       -4.454  -0.545   2.358  0.00  0.00    -0.230 NA
BRANCH  15  17
ATOM     17  C   LIG    1       -4.617  -1.481   4.680  0.00  0.00    +0.560 C 
ATOM     18  F   LIG    1       -5.246  -0.972   5.821  0.00  0.00    -0.170 F 
ATOM     19  F   LIG    1       -3.234  -1.296   4.788  0.00  0.00    -0.170 F 
ATOM     20  F   LIG    1       -4.896  -2.847   4.563  0.00  0.00    -0.170 F 
ENDBRANCH  15  17
ENDBRANCH  11  12
ENDBRANCH   9  11
ENDBRANCH   2   5
BRANCH   3  21
ATOM     21  C   LIG    1        2.494   1.085   0.056  0.00  0.00    +0.290 C 
BRANCH  21  22
ATOM     22  C   LIG    1        2.842   0.616   1.445  0.00  0.00    -0.090 A 
ATOM     23  C   LIG    1        2.539   1.408   2.537  0.00  0.00    +0.040 A 
ATOM     24  C   LIG    1        2.853   0.977   3.812  0.00  0.00    +0.020 A 
ATOM     25  C   LIG    1        3.480  -0.243   3.995  0.00  0.00    -0.030 A 
ATOM     26  C   LIG    1        3.788  -1.032   2.901  0.00  0.00    +0.030 A 
ATOM     27 CL   LIG    1        3.880  -0.782   5.596  0.00  0.00    -0.070 Cl
ATOM     28  C   LIG    1        3.468  -0.603   1.627  0.00  0.00    +0.040 A 
ENDBRANCH  21  22
BRANCH  21  29
ATOM     29  C   LIG    1        3.545   2.088  -0.422  0.00  0.00    +0.080 C 
BRANCH  29  30
ATOM     30  C   LIG    1        3.273   2.456  -1.882  0.00  0.00    -0.050 C 
ATOM     31  C   LIG    1        4.330   2.067  -2.917  0.00  0.00    +0.010 C 
ATOM     32  C   LIG    1        4.154   3.534  -2.516  0.00  0.00    +0.010 C 
ENDBRANCH  29  30
ENDBRANCH  21  29
ENDBRANCH   3  21
TORSDOF 8
