REMARK  Name = ZINCpe000000URlT.0
REMARK                            x       y       z     vdW  Elec       q    Type
REMARK                         _______ _______ _______ _____ _____    ______ ____
ROOT
ATOM      1  C   LIG    1       -4.837   0.183   0.051  0.00  0.00    +0.100 C 
ENDROOT
BRANCH   1   7
ATOM      2  C   LIG    1       -9.593   1.292   1.177  0.00  0.00    -0.010 C 
ATOM      3  C   LIG    1       -9.421  -0.226   1.263  0.00  0.00    +0.050 C 
ATOM      4  C   LIG    1       -8.569  -0.707   0.084  0.00  0.00    +0.280 C 
ATOM      5  N   LIG    1       -7.306   0.044   0.075  0.00  0.00    -0.610 N 
ATOM      6  C   LIG    1       -7.358   1.512   0.090  0.00  0.00    +0.280 C 
ATOM      7  C   LIG    1       -6.123  -0.601   0.060  0.00  0.00    +0.520 C 
ATOM      8  O   LIG    1       -6.094  -1.814   0.053  0.00  0.00    -0.540 OA
ATOM      9  C   LIG    1       -8.223   1.968   1.263  0.00  0.00    +0.030 C 
BRANCH   2  13
ATOM     10  C   LIG    1      -11.590   3.534   3.553  0.00  0.00    +0.290 C 
ATOM     11  N   LIG    1      -10.748   3.074   2.445  0.00  0.00    -0.740 N 
ATOM     12  H   LIG    1      -10.400   3.713   1.803  0.00  0.00    +0.400 HD
ATOM     13  C   LIG    1      -10.459   1.764   2.317  0.00  0.00    +0.520 C 
ATOM     14  O   LIG    1      -10.895   0.966   3.118  0.00  0.00    -0.530 OA
ENDBRANCH   2  13
ENDBRANCH   1   7
BRANCH   1  15
ATOM     15  C   LIG    1       -3.651  -0.783   0.034  0.00  0.00    +0.150 C 
BRANCH  15  16
ATOM     16  C   LIG    1       -2.364   0.002   0.026  0.00  0.00    +0.450 A 
ATOM     17  N   LIG    1       -2.434   1.304   0.034  0.00  0.00    -0.600 NA
ATOM     18  C   LIG    1       -1.329   2.074   0.032  0.00  0.00    +0.530 A 
ATOM     19  C   LIG    1       -0.017   1.403   0.010  0.00  0.00    -0.210 A 
ATOM     20  C   LIG    1        1.179   2.117   0.002  0.00  0.00    +0.110 A 
ATOM     21  C   LIG    1        2.376   1.433  -0.013  0.00  0.00    -0.010 A 
ATOM     22  C   LIG    1        2.394   0.046  -0.021  0.00  0.00    +0.080 A 
ATOM     23  C   LIG    1        1.218  -0.674  -0.013  0.00  0.00    -0.020 A 
ATOM     24  C   LIG    1        0.002  -0.004   0.002  0.00  0.00    +0.170 A 
ATOM     25  O   LIG    1       -1.412   3.290   0.040  0.00  0.00    -0.480 OA
ATOM     26  N   LIG    1       -1.204  -0.677   0.010  0.00  0.00    -0.620 N 
ATOM     27  H   LIG    1       -1.214  -1.647   0.006  0.00  0.00    +0.420 HD
ENDBRANCH  15  16
ENDBRANCH   1  15
TORSDOF 4
