REMARK  Name = ZINCpe000000Uyjd.0
REMARK                            x       y       z     vdW  Elec       q    Type
REMARK                         _______ _______ _______ _____ _____    ______ ____
ROOT
ATOM      1  C   LIG    1        0.880   7.934  -2.927  0.00  0.00    +0.220 C 
ENDROOT
BRANCH   1   2
ATOM      2  O   LIG    1       -0.400   7.968  -3.560  0.00  0.00    -0.530 OA
ATOM      3  H   LIG    1       -1.014   8.608  -3.172  0.00  0.00    +0.370 HD
ENDBRANCH   1   2
BRANCH   1   4
ATOM      4  C   LIG    1        1.538   9.311  -3.032  0.00  0.00    +0.160 C 
BRANCH   4   6
ATOM      5  C   LIG    1        2.002  11.089  -4.608  0.00  0.00    +0.200 C 
ATOM      6  N   LIG    1        1.734   9.654  -4.447  0.00  0.00    -0.510 NA
BRANCH   6   7
ATOM      7  C   LIG    1        2.808   8.847  -5.040  0.00  0.00    +0.200 C 
BRANCH   7   8
ATOM      8  C   LIG    1        2.817   9.044  -6.534  0.00  0.00    +0.530 C 
ATOM      9  N   LIG    1        3.724   8.399  -7.294  0.00  0.00    -0.620 N 
ATOM     10  C   LIG    1        4.761   7.482  -6.797  0.00  0.00    +0.240 C 
ATOM     11  C   LIG    1        5.575   7.006  -8.018  0.00  0.00    +0.030 C 
ATOM     12  C   LIG    1        5.318   8.124  -9.063  0.00  0.00    +0.040 C 
ATOM     13  C   LIG    1        3.845   8.499  -8.760  0.00  0.00    +0.260 C 
ATOM     14  O   LIG    1        2.008   9.784  -7.053  0.00  0.00    -0.520 OA
ENDBRANCH   7   8
ENDBRANCH   6   7
ENDBRANCH   4   6
ENDBRANCH   1   4
BRANCH   1  15
ATOM     15  C   LIG    1        0.711   7.560  -1.453  0.00  0.00    +0.150 C 
BRANCH  15  16
ATOM     16  O   LIG    1        0.204   6.228  -1.354  0.00  0.00    -0.370 OA
BRANCH  16  17
ATOM     17  C   LIG    1        0.008   5.778  -0.012  0.00  0.00    +0.230 C 
BRANCH  17  18
ATOM     18  C   LIG    1       -0.526   4.369  -0.027  0.00  0.00    -0.080 A 
ATOM     19  C   LIG    1       -1.890   4.148  -0.056  0.00  0.00    +0.060 A 
ATOM     20  C   LIG    1       -2.384   2.857  -0.075  0.00  0.00    +0.040 A 
ATOM     21  C   LIG    1       -1.512   1.780  -0.056  0.00  0.00    +0.040 A 
ATOM     22  O   LIG    1       -1.736   0.434  -0.066  0.00  0.00    -0.310 OA
ATOM     23  C   LIG    1       -0.501  -0.164   0.369  0.00  0.00    +0.430 C 
ATOM     24  O   LIG    1        0.500   0.796  -0.019  0.00  0.00    -0.310 OA
ATOM     25  C   LIG    1       -0.137   2.003  -0.027  0.00  0.00    +0.030 A 
ATOM     26  C   LIG    1        0.351   3.299  -0.013  0.00  0.00    +0.060 A 
ENDBRANCH  17  18
ENDBRANCH  16  17
ENDBRANCH  15  16
ENDBRANCH   1  15
TORSDOF 9
