REMARK  Name = ZINCrH000004ssG1.0
REMARK                            x       y       z     vdW  Elec       q    Type
REMARK                         _______ _______ _______ _____ _____    ______ ____
ROOT
ATOM      1  C   LIG    1        6.913   1.210   1.351  0.00  0.00    +0.440 A 
ATOM      2  N   LIG    1        5.801   1.932   1.322  0.00  0.00    -0.530 NA
ATOM      3  C   LIG    1        4.611   1.370   1.357  0.00  0.00    +0.360 A 
ATOM      4  C   LIG    1        4.484  -0.018   1.427  0.00  0.00    -0.240 A 
ATOM      5  C   LIG    1        5.644  -0.807   1.466  0.00  0.00    +0.180 A 
ATOM      6  C   LIG    1        6.861  -0.182   1.421  0.00  0.00    -0.160 A 
ATOM      7 CL   LIG    1        8.326  -1.113   1.458  0.00  0.00    -0.050 Cl
ENDROOT
BRANCH   4   8
ATOM      8  C   LIG    1        3.149  -0.645   1.467  0.00  0.00    +0.570 C 
ATOM      9  N   LIG    1        2.161  -0.084   2.192  0.00  0.00    -0.610 N 
ATOM     10  C   LIG    1        2.426   1.090   3.034  0.00  0.00    +0.270 C 
ATOM     11  C   LIG    1        1.948   0.793   4.459  0.00  0.00    +0.010 C 
ATOM     12  C   LIG    1        0.479   0.364   4.421  0.00  0.00    +0.020 C 
ATOM     13  C   LIG    1        0.340  -0.912   3.588  0.00  0.00    +0.010 C 
ATOM     14  C   LIG    1        0.799  -0.634   2.153  0.00  0.00    +0.270 C 
ATOM     15  O   LIG    1        2.941  -1.670   0.846  0.00  0.00    -0.530 OA
ENDBRANCH   4   8
BRANCH   1  16
ATOM     16  N   LIG    1        8.142   1.847   1.312  0.00  0.00    -0.700 N 
ATOM     17  H   LIG    1        8.960   1.325   1.333  0.00  0.00    +0.410 HD
BRANCH  16  18
ATOM     18  C   LIG    1        8.208   3.309   1.238  0.00  0.00    +0.360 C 
BRANCH  18  22
ATOM     19  C   LIG    1       12.280   4.434   3.683  0.00  0.00    +0.130 C 
ATOM     20  C   LIG    1       11.572   4.276   2.362  0.00  0.00    +0.140 A 
ATOM     21  N   LIG    1       10.308   3.901   2.340  0.00  0.00    -0.470 NA
ATOM     22  C   LIG    1        9.650   3.745   1.208  0.00  0.00    +0.100 A 
ATOM     23  C   LIG    1       10.266   3.984  -0.006  0.00  0.00    -0.020 A 
ATOM     24  C   LIG    1       11.593   4.386  -0.023  0.00  0.00    +0.090 A 
ATOM     25  C   LIG    1       12.254   4.533   1.187  0.00  0.00    -0.130 A 
BRANCH  25  26
ATOM     26  C   LIG    1       13.696   4.967   1.220  0.00  0.00    +0.210 C 
ATOM     27  C   LIG    1       13.769   6.482   1.417  0.00  0.00    +0.030 C 
BRANCH  26  28
ATOM     28  O   LIG    1       14.329   4.615  -0.012  0.00  0.00    -0.560 OA
ATOM     29  H   LIG    1       15.261   4.865  -0.061  0.00  0.00    +0.390 HD
ENDBRANCH  26  28
ENDBRANCH  25  26
ENDBRANCH  18  22
ENDBRANCH  16  18
ENDBRANCH   1  16
TORSDOF 6
