REMARK  Name = ZINCkj00000GeRXS.0
REMARK                            x       y       z     vdW  Elec       q    Type
REMARK                         _______ _______ _______ _____ _____    ______ ____
ROOT
ATOM      1  N   LIG    1        5.272   1.070  -0.828  0.00  0.00    -0.390 N 
ATOM      2  C   LIG    1        5.223   2.388  -1.475  0.00  0.00    +0.240 C 
ATOM      3  C   LIG    1        6.222   3.326  -0.794  0.00  0.00    +0.280 C 
ATOM      4  O   LIG    1        7.531   2.754  -0.866  0.00  0.00    -0.320 OA
ATOM      5  C   LIG    1        7.624   1.458  -0.270  0.00  0.00    +0.220 C 
ATOM      6  C   LIG    1        6.627   0.516  -0.950  0.00  0.00    +0.270 C 
ATOM      7  H   LIG    1        5.034   1.165   0.148  0.00  0.00    +0.420 HD
ENDROOT
BRANCH   5   8
ATOM      8  C   LIG    1        7.302   1.555   1.199  0.00  0.00    +0.470 C 
ATOM      9  O   LIG    1        6.936   2.611   1.671  0.00  0.00    -0.510 OA
ATOM     10  N   LIG    1        7.420   0.469   1.989  0.00  0.00    -0.840 N 
ATOM     11  H   LIG    1        7.213   0.532   2.934  0.00  0.00    +0.420 HD
ATOM     12  H   LIG    1        7.713  -0.375   1.611  0.00  0.00    +0.410 HD
ENDBRANCH   5   8
BRANCH   1  14
ATOM     13  C   LIG    1        4.586   0.136  -2.985  0.00  0.00    +0.100 C 
ATOM     14  C   LIG    1        4.313   0.168  -1.480  0.00  0.00    +0.160 C 
BRANCH  14  15
ATOM     15  C   LIG    1        2.890   0.670  -1.231  0.00  0.00    +0.070 C 
BRANCH  15  16
ATOM     16  C   LIG    1        2.569   0.573   0.262  0.00  0.00    +0.060 C 
BRANCH  16  17
ATOM     17  C   LIG    1        1.206   1.162   0.522  0.00  0.00    -0.070 A 
ATOM     18  C   LIG    1        0.083   0.358   0.465  0.00  0.00    +0.010 A 
ATOM     19  C   LIG    1       -1.167   0.899   0.699  0.00  0.00    +0.060 A 
ATOM     20  C   LIG    1       -1.295   2.241   1.001  0.00  0.00    -0.010 A 
ATOM     21  C   LIG    1       -0.171   3.047   1.059  0.00  0.00    +0.110 A 
ATOM     22  F   LIG    1       -0.295   4.361   1.350  0.00  0.00    -0.130 F 
ATOM     23  C   LIG    1        1.081   2.506   0.820  0.00  0.00    -0.030 A 
ENDBRANCH  16  17
ENDBRANCH  15  16
ENDBRANCH  14  15
ENDBRANCH   1  14
TORSDOF 5
