REMARK  Name = ZINCkj00000GeRXS.1
REMARK                            x       y       z     vdW  Elec       q    Type
REMARK                         _______ _______ _______ _____ _____    ______ ____
ROOT
ATOM      1  N   LIG    1       -3.847  -0.744   1.301  0.00  0.00    -0.380 N 
ATOM      2  C   LIG    1       -2.567  -0.022   1.276  0.00  0.00    +0.240 C 
ATOM      3  C   LIG    1       -2.394   0.658  -0.084  0.00  0.00    +0.280 C 
ATOM      4  O   LIG    1       -2.460  -0.330  -1.117  0.00  0.00    -0.330 OA
ATOM      5  C   LIG    1       -3.680  -1.077  -1.119  0.00  0.00    +0.160 C 
ATOM      6  C   LIG    1       -3.856  -1.760   0.239  0.00  0.00    +0.250 C 
ATOM      7  H   LIG    1       -4.603  -0.093   1.150  0.00  0.00    +0.420 HD
ENDROOT
BRANCH   5   8
ATOM      8  C   LIG    1       -3.629  -2.121  -2.205  0.00  0.00    +0.520 C 
ATOM      9  O   LIG    1       -2.613  -2.278  -2.848  0.00  0.00    -0.490 OA
ATOM     10  N   LIG    1       -4.713  -2.880  -2.461  0.00  0.00    -0.840 N 
ATOM     11  H   LIG    1       -4.681  -3.549  -3.162  0.00  0.00    +0.420 HD
ATOM     12  H   LIG    1       -5.525  -2.755  -1.946  0.00  0.00    +0.400 HD
ENDBRANCH   5   8
BRANCH   1  14
ATOM     13  C   LIG    1       -2.952  -2.484   2.773  0.00  0.00    +0.080 C 
ATOM     14  C   LIG    1       -4.016  -1.397   2.606  0.00  0.00    +0.180 C 
BRANCH  14  15
ATOM     15  C   LIG    1       -5.407  -2.029   2.684  0.00  0.00    +0.070 C 
BRANCH  15  16
ATOM     16  C   LIG    1       -6.469  -0.928   2.649  0.00  0.00    +0.070 C 
BRANCH  16  17
ATOM     17  C   LIG    1       -7.832  -1.539   2.853  0.00  0.00    -0.070 A 
ATOM     18  C   LIG    1       -8.345  -1.673   4.129  0.00  0.00    +0.010 A 
ATOM     19  C   LIG    1       -9.595  -2.232   4.318  0.00  0.00    +0.060 A 
ATOM     20  C   LIG    1      -10.334  -2.658   3.230  0.00  0.00    -0.010 A 
ATOM     21  C   LIG    1       -9.821  -2.524   1.950  0.00  0.00    +0.110 A 
ATOM     22  F   LIG    1      -10.541  -2.940   0.886  0.00  0.00    -0.130 F 
ATOM     23  C   LIG    1       -8.571  -1.959   1.763  0.00  0.00    -0.030 A 
ENDBRANCH  16  17
ENDBRANCH  15  16
ENDBRANCH  14  15
ENDBRANCH   1  14
TORSDOF 5
