REMARK  Name = ZINCrD000000CuzE.0
REMARK                            x       y       z     vdW  Elec       q    Type
REMARK                         _______ _______ _______ _____ _____    ______ ____
ROOT
ATOM      1  O   LIG    1        1.450   2.706   2.677  0.00  0.00    -0.520 OA
ATOM      2  C   LIG    1        0.580   3.521   2.450  0.00  0.00    +0.550 C 
ATOM      3  N   LIG    1       -0.617   3.116   1.982  0.00  0.00    -0.580 N 
ATOM      4  C   LIG    1       -1.660   4.131   1.736  0.00  0.00    +0.260 C 
ATOM      5  C   LIG    1       -2.418   3.877   0.421  0.00  0.00    +0.020 C 
ATOM      6  C   LIG    1       -1.455   3.439  -0.656  0.00  0.00    +0.010 C 
ATOM      7  C   LIG    1       -1.368   1.916  -0.667  0.00  0.00    +0.000 C 
ATOM      8  C   LIG    1       -0.405   1.357   0.293  0.00  0.00    +0.020 C 
ATOM      9  C   LIG    1       -0.831   1.706   1.741  0.00  0.00    +0.250 C 
ENDROOT
BRANCH   2  10
ATOM     10  C   LIG    1        0.839   4.986   2.692  0.00  0.00    +0.140 C 
ATOM     11  C   LIG    1        1.084   5.696   1.354  0.00  0.00    +0.250 C 
ATOM     12  O   LIG    1        1.338   7.079   1.620  0.00  0.00    -0.300 OA
ATOM     13  C   LIG    1        2.212   7.358   2.626  0.00  0.00    +0.040 A 
ATOM     14  C   LIG    1        2.773   8.623   2.708  0.00  0.00    +0.030 A 
ATOM     15  C   LIG    1        3.660   8.923   3.726  0.00  0.00    +0.020 A 
ATOM     16  C   LIG    1        3.989   7.962   4.663  0.00  0.00    +0.020 A 
ATOM     17  C   LIG    1        3.434   6.699   4.586  0.00  0.00    +0.030 A 
ATOM     18  C   LIG    1        2.545   6.392   3.568  0.00  0.00    +0.050 A 
ATOM     19  O   LIG    1        2.009   5.142   3.503  0.00  0.00    -0.280 OA
ENDBRANCH   2  10
BRANCH   9  20
ATOM     20  C   LIG    1        0.006   0.890   2.729  0.00  0.00    +0.020 C 
BRANCH  20  21
ATOM     21  C   LIG    1       -0.464   1.179   4.156  0.00  0.00    +0.320 C 
BRANCH  21  22
ATOM     22  C   LIG    1        0.275   0.287   5.119  0.00  0.00    -0.040 A 
ATOM     23  C   LIG    1       -0.162  -0.894   5.591  0.00  0.00    -0.060 A 
ATOM     24  C   LIG    1        0.840  -1.386   6.458  0.00  0.00    -0.070 A 
ATOM     25  C   LIG    1        1.831  -0.476   6.464  0.00  0.00    +0.160 A 
ATOM     26  O   LIG    1        1.485   0.532   5.647  0.00  0.00    -0.170 OA
ENDBRANCH  21  22
BRANCH  21  27
ATOM     27  O   LIG    1       -0.201   2.547   4.476  0.00  0.00    -0.560 OA
ATOM     28  H   LIG    1        0.734   2.789   4.429  0.00  0.00    +0.390 HD
ENDBRANCH  21  27
ENDBRANCH  20  21
ENDBRANCH   9  20
TORSDOF 5
