REMARK  Name = ZINCrD0000074JjL.0
REMARK                            x       y       z     vdW  Elec       q    Type
REMARK                         _______ _______ _______ _____ _____    ______ ____
ROOT
ATOM      1  N   LIG    1       -6.456   5.967   2.458  0.00  0.00    -0.670 N 
ATOM      2  H   LIG    1       -7.345   5.678   2.714  0.00  0.00    +0.410 HD
ATOM      3  C   LIG    1       -5.641   5.129   1.786  0.00  0.00    +0.510 C 
ATOM      4  O   LIG    1       -4.569   5.522   1.379  0.00  0.00    -0.500 OA
ENDROOT
BRANCH   1  11
ATOM      5  C   LIG    1       -8.414   7.994   2.849  0.00  0.00    +0.100 C 
ATOM      6  C   LIG    1       -6.940   8.274   2.985  0.00  0.00    -0.060 A 
ATOM      7  C   LIG    1       -6.505   9.542   3.315  0.00  0.00    +0.020 A 
ATOM      8  C   LIG    1       -5.151   9.801   3.434  0.00  0.00    +0.100 A 
ATOM      9  C   LIG    1       -4.230   8.791   3.230  0.00  0.00    -0.650 A 
ATOM     10  C   LIG    1       -4.660   7.518   2.906  0.00  0.00    +0.130 A 
ATOM     11  C   LIG    1       -6.018   7.255   2.786  0.00  0.00    +0.130 A 
BRANCH   9  12
ATOM     12  S   LIG    1       -2.507   9.126   3.383  0.00  0.00    +2.500 S 
ATOM     13  O   LIG    1       -1.936   7.872   3.729  0.00  0.00    -0.930 OA
ATOM     14  O   LIG    1       -2.443  10.231   4.274  0.00  0.00    -0.940 OA
ATOM     15  C   LIG    1       -1.992   9.621   1.716  0.00  0.00    -0.260 C 
ENDBRANCH   9  12
ENDBRANCH   1  11
BRANCH   3  16
ATOM     16  C   LIG    1       -6.064   3.703   1.542  0.00  0.00    +0.140 C 
BRANCH  16  17
ATOM     17  C   LIG    1       -4.984   2.983   0.776  0.00  0.00    -0.050 A 
ATOM     18  C   LIG    1       -5.003   2.982  -0.606  0.00  0.00    +0.050 A 
ATOM     19  C   LIG    1       -4.014   2.323  -1.316  0.00  0.00    -0.030 A 
ATOM     20  C   LIG    1       -3.004   1.663  -0.635  0.00  0.00    +0.080 A 
ATOM     21  O   LIG    1       -2.024   1.008  -1.322  0.00  0.00    -0.310 OA
ATOM     22  C   LIG    1       -0.715   1.575  -1.235  0.00  0.00    +0.230 C 
ATOM     23  C   LIG    1       -0.001   1.095   0.019  0.00  0.00    -0.010 C 
ATOM     24  C   LIG    1       -0.683   1.577   1.290  0.00  0.00    +0.230 C 
ATOM     25  O   LIG    1       -1.987   1.010   1.414  0.00  0.00    -0.310 OA
ATOM     26  C   LIG    1       -2.986   1.664   0.752  0.00  0.00    +0.080 A 
ATOM     27 CL   LIG    1       -4.040   2.323  -3.052  0.00  0.00    -0.050 Cl
ATOM     28  C   LIG    1       -3.976   2.325   1.459  0.00  0.00    +0.050 A 
ENDBRANCH  16  17
ENDBRANCH   3  16
TORSDOF 4
