REMARK  Name = ZINCpe000000XYW5.1
REMARK                            x       y       z     vdW  Elec       q    Type
REMARK                         _______ _______ _______ _____ _____    ______ ____
ROOT
ATOM      1  N   LIG    1       -0.643   1.760   1.198  0.00  0.00    -0.740 N 
ATOM      2  H   LIG    1       -1.425   2.332   1.138  0.00  0.00    +0.390 HD
ATOM      3  C   LIG    1       -0.199   1.351   2.402  0.00  0.00    +0.710 C 
ATOM      4  N   LIG    1       -0.776   1.817   3.528  0.00  0.00    -0.630 N 
ATOM      5  C   LIG    1       -1.968   2.676   3.465  0.00  0.00    +0.290 C 
ATOM      6  C   LIG    1       -1.712   3.926   4.313  0.00  0.00    +0.200 C 
ATOM      7  N   LIG    1       -1.309   3.521   5.667  0.00  0.00    -0.490 N 
ATOM      8  C   LIG    1       -0.043   2.777   5.645  0.00  0.00    +0.200 C 
ATOM      9  C   LIG    1       -0.234   1.475   4.851  0.00  0.00    +0.250 C 
ATOM     10  C   LIG    1        1.114   0.768   4.688  0.00  0.00    +0.070 C 
ATOM     11  O   LIG    1        0.723   0.561   2.474  0.00  0.00    -0.580 OA
ENDROOT
BRANCH   7  12
ATOM     12  C   LIG    1       -1.226   4.617   6.508  0.00  0.00    +0.300 A 
ATOM     13  N   LIG    1       -0.458   5.650   6.184  0.00  0.00    -0.460 NA
ATOM     14  C   LIG    1       -0.382   6.695   6.990  0.00  0.00    +0.270 A 
ATOM     15  C   LIG    1       -1.099   6.719   8.175  0.00  0.00    +0.250 A 
ATOM     16  N   LIG    1       -1.867   5.700   8.511  0.00  0.00    -0.400 NA
ATOM     17  C   LIG    1       -1.958   4.644   7.708  0.00  0.00    +0.170 A 
BRANCH  17  18
ATOM     18  C   LIG    1       -2.794   3.538   8.065  0.00  0.00    +0.270 C 
ATOM     19  N   LIG    1       -3.458   2.661   8.349  0.00  0.00    -0.370 NA
ENDBRANCH  17  18
ENDBRANCH   7  12
BRANCH   1  20
ATOM     20  C   LIG    1        0.054   1.343  -0.021  0.00  0.00    +0.370 C 
BRANCH  20  23
ATOM     21  C   LIG    1        0.365   4.272  -1.074  0.00  0.00    +0.150 C 
ATOM     22  C   LIG    1       -0.504   3.199  -1.678  0.00  0.00    +0.110 A 
ATOM     23  C   LIG    1       -0.639   1.932  -1.223  0.00  0.00    -0.260 A 
ATOM     24  C   LIG    1       -1.539   1.267  -2.062  0.00  0.00    +0.260 A 
ATOM     25  N   LIG    1       -1.927   2.104  -2.990  0.00  0.00    -0.290 NA
ATOM     26  N   LIG    1       -1.284   3.329  -2.771  0.00  0.00    -0.470 N 
ATOM     27  H   LIG    1       -1.385   4.131  -3.308  0.00  0.00    +0.440 HD
ENDBRANCH  20  23
ENDBRANCH   1  20
TORSDOF 4
