REMARK  Name = ZINCpe00000VVGdd.0
REMARK                            x       y       z     vdW  Elec       q    Type
REMARK                         _______ _______ _______ _____ _____    ______ ____
ROOT
ATOM      1  N   LIG    1       -3.399  -3.011   1.081  0.00  0.00    -0.740 N 
ATOM      2  H   LIG    1       -2.927  -2.313   0.602  0.00  0.00    +0.400 HD
ATOM      3  C   LIG    1       -4.637  -2.780   1.562  0.00  0.00    +0.720 C 
ATOM      4  N   LIG    1       -5.218  -1.578   1.377  0.00  0.00    -0.630 N 
ATOM      5  C   LIG    1       -4.694  -0.491   0.529  0.00  0.00    +0.240 C 
ATOM      6  C   LIG    1       -5.940   0.353   0.155  0.00  0.00    +0.030 C 
ATOM      7  C   LIG    1       -6.759   0.295   1.471  0.00  0.00    +0.060 C 
ATOM      8  C   LIG    1       -6.476  -1.130   1.992  0.00  0.00    +0.240 C 
ATOM      9  O   LIG    1       -5.229  -3.655   2.163  0.00  0.00    -0.580 OA
ENDROOT
BRANCH   8  10
ATOM     10  C   LIG    1       -6.332  -1.109   3.515  0.00  0.00    -0.030 C 
ATOM     11  C   LIG    1       -5.838  -2.474   4.001  0.00  0.00    +0.250 C 
ATOM     12  O   LIG    1       -5.760  -2.471   5.428  0.00  0.00    -0.390 OA
ATOM     13  C   LIG    1       -7.011  -2.243   6.080  0.00  0.00    +0.200 C 
ATOM     14  C   LIG    1       -7.552  -0.869   5.677  0.00  0.00    -0.020 C 
ATOM     15  C   LIG    1       -7.692  -0.810   4.153  0.00  0.00    +0.140 C 
ATOM     16  C   LIG    1       -8.714  -1.851   3.692  0.00  0.00    +0.010 C 
BRANCH  15  17
ATOM     17  O   LIG    1       -8.127   0.494   3.763  0.00  0.00    -0.550 OA
ATOM     18  H   LIG    1       -8.983   0.750   4.132  0.00  0.00    +0.370 HD
ENDBRANCH  15  17
ENDBRANCH   8  10
BRANCH   1  23
ATOM     19  C   LIG    1       -1.240  -4.157   1.368  0.00  0.00    -0.020 C 
ATOM     20  C   LIG    1       -0.644  -4.979   0.206  0.00  0.00    +0.050 C 
ATOM     21  C   LIG    1       -1.734  -6.033  -0.111  0.00  0.00    +0.020 C 
ATOM     22  C   LIG    1       -3.047  -5.232   0.072  0.00  0.00    +0.020 C 
ATOM     23  C   LIG    1       -2.768  -4.317   1.282  0.00  0.00    +0.280 C 
BRANCH  19  27
ATOM     24  C   LIG    1       -0.372  -0.514   2.164  0.00  0.00    +0.290 C 
ATOM     25  N   LIG    1       -0.737  -1.925   2.310  0.00  0.00    -0.730 N 
ATOM     26  H   LIG    1       -0.886  -2.299   3.193  0.00  0.00    +0.400 HD
ATOM     27  C   LIG    1       -0.864  -2.705   1.218  0.00  0.00    +0.520 C 
ATOM     28  O   LIG    1       -0.677  -2.238   0.115  0.00  0.00    -0.540 OA
ENDBRANCH  19  27
ENDBRANCH   1  23
TORSDOF 4
