REMARK  Name = ZINCpe000000Y5d2.0
REMARK                            x       y       z     vdW  Elec       q    Type
REMARK                         _______ _______ _______ _____ _____    ______ ____
ROOT
ATOM      1  N   LIG    1        3.402   2.259  -0.018  0.00  0.00    -0.700 N 
ATOM      2  H   LIG    1        3.317   3.225  -0.012  0.00  0.00    +0.410 HD
ENDROOT
BRANCH   1   6
ATOM      3  C   LIG    1        0.002  -0.004   0.002  0.00  0.00    +0.230 A 
ATOM      4  C   LIG    1        1.220  -0.682  -0.013  0.00  0.00    +0.080 A 
ATOM      5  C   LIG    1        2.382   0.070  -0.020  0.00  0.00    +0.010 A 
ATOM      6  C   LIG    1        2.262   1.460  -0.012  0.00  0.00    +0.340 A 
ATOM      7  N   LIG    1        1.061   2.017   0.003  0.00  0.00    -0.280 NA
ATOM      8  N   LIG    1       -0.016   1.318   0.009  0.00  0.00    -0.200 NA
BRANCH   3  14
ATOM      9  C   LIG    1       -2.793   1.270   0.048  0.00  0.00    +0.190 C 
ATOM     10  C   LIG    1       -2.454  -0.198   0.029  0.00  0.00    +0.240 A 
ATOM     11  N   LIG    1       -3.314  -1.179   0.026  0.00  0.00    -0.490 NA
ATOM     12  C   LIG    1       -2.656  -2.348   0.014  0.00  0.00    +0.170 A 
ATOM     13  C   LIG    1       -1.335  -2.087   0.004  0.00  0.00    +0.120 A 
ATOM     14  N   LIG    1       -1.200  -0.722   0.009  0.00  0.00    -0.400 N 
ENDBRANCH   3  14
ENDBRANCH   1   6
BRANCH   1  15
ATOM     15  C   LIG    1        4.730   1.641  -0.033  0.00  0.00    +0.370 C 
BRANCH  15  16
ATOM     16  C   LIG    1        5.785   2.717  -0.037  0.00  0.00    -0.140 A 
ATOM     17  C   LIG    1        6.242   3.437   1.030  0.00  0.00    -0.030 A 
ATOM     18  C   LIG    1        5.884   3.407   2.456  0.00  0.00    +0.590 C 
ATOM     19  N   LIG    1        6.322   4.448   3.207  0.00  0.00    -0.620 N 
ATOM     20  C   LIG    1        6.971   5.606   2.604  0.00  0.00    +0.300 C 
ATOM     21  C   LIG    1        7.899   5.229   1.450  0.00  0.00    +0.340 C 
ATOM     22  C   LIG    1        6.140   4.407   4.660  0.00  0.00    +0.310 C 
ATOM     23  O   LIG    1        5.231   2.500   2.936  0.00  0.00    -0.500 OA
ATOM     24  N   LIG    1        7.201   4.303   0.551  0.00  0.00    -0.280 N 
ATOM     25  N   LIG    1        7.325   4.132  -0.707  0.00  0.00    -0.260 NA
ATOM     26  C   LIG    1        6.514   3.193  -1.135  0.00  0.00    +0.210 A 
ENDBRANCH  15  16
ENDBRANCH   1  15
TORSDOF 4
