REMARK  Name = ZINCqH0000050zRL.0
REMARK                            x       y       z     vdW  Elec       q    Type
REMARK                         _______ _______ _______ _____ _____    ______ ____
ROOT
ATOM      1  C   LIG    1       -4.546   5.760  -0.488  0.00  0.00    +0.240 C 
ATOM      2  C   LIG    1       -4.934   5.318  -1.901  0.00  0.00    +0.000 C 
ATOM      3  C   LIG    1       -5.344   3.842  -1.876  0.00  0.00    +0.260 C 
ATOM      4  N   LIG    1       -6.405   3.663  -0.875  0.00  0.00    -0.610 N 
ATOM      5  C   LIG    1       -6.170   4.136   0.496  0.00  0.00    +0.290 C 
ATOM      6  C   LIG    1       -7.571   3.075  -1.208  0.00  0.00    +0.590 C 
ATOM      7  O   LIG    1       -8.410   2.860  -0.354  0.00  0.00    -0.520 OA
ATOM      8  C   LIG    1       -5.751   5.609   0.444  0.00  0.00    +0.030 C 
ENDROOT
BRANCH   6   9
ATOM      9  C   LIG    1       -7.829   2.694  -2.604  0.00  0.00    -0.210 A 
ATOM     10  C   LIG    1       -7.008   1.971  -3.417  0.00  0.00    +0.280 A 
ATOM     11  N   LIG    1       -7.586   1.820  -4.634  0.00  0.00    -0.580 N 
ATOM     12  H   LIG    1       -7.190   1.341  -5.379  0.00  0.00    +0.430 HD
ATOM     13  C   LIG    1       -8.817   2.442  -4.663  0.00  0.00    +0.120 A 
ATOM     14  C   LIG    1       -9.791   2.580  -5.646  0.00  0.00    -0.010 A 
ATOM     15  C   LIG    1      -10.950   3.275  -5.376  0.00  0.00    +0.070 A 
ATOM     16  C   LIG    1      -11.158   3.843  -4.128  0.00  0.00    -0.030 A 
ATOM     17  C   LIG    1      -10.204   3.718  -3.138  0.00  0.00    +0.150 A 
ATOM     18  F   LIG    1      -10.409   4.272  -1.923  0.00  0.00    -0.130 F 
ATOM     19  C   LIG    1       -9.030   3.012  -3.398  0.00  0.00    -0.110 A 
ENDBRANCH   6   9
BRANCH   1  20
ATOM     20  N   LIG    1       -4.122   7.162  -0.514  0.00  0.00    -0.720 N 
ATOM     21  H   LIG    1       -4.758   7.865  -0.308  0.00  0.00    +0.400 HD
BRANCH  20  27
ATOM     22  C   LIG    1       -0.816  10.561  -1.165  0.00  0.00    +0.130 C 
ATOM     23  C   LIG    1       -1.194   9.103  -1.153  0.00  0.00    +0.180 A 
ATOM     24  C   LIG    1       -0.243   8.149  -1.456  0.00  0.00    -0.110 A 
ATOM     25  C   LIG    1       -0.598   6.807  -1.444  0.00  0.00    +0.100 A 
ATOM     26  C   LIG    1       -1.903   6.471  -1.133  0.00  0.00    -0.120 A 
ATOM     27  C   LIG    1       -2.809   7.484  -0.833  0.00  0.00    +0.410 A 
ATOM     28  N   LIG    1       -2.432   8.753  -0.855  0.00  0.00    -0.550 NA
ENDBRANCH  20  27
ENDBRANCH   1  20
TORSDOF 3
