REMARK  Name = ZINCpe000000YwoD.0
REMARK                            x       y       z     vdW  Elec       q    Type
REMARK                         _______ _______ _______ _____ _____    ______ ____
ROOT
ATOM      1  N   LIG    1        1.361   1.596  -0.002  0.00  0.00    -1.090 NA
ATOM      2  H   LIG    1        1.553   2.477   0.356  0.00  0.00    +0.430 HD
ENDROOT
BRANCH   1   3
ATOM      3  C   LIG    1       -0.013   1.086   0.008  0.00  0.00    +0.250 C 
ATOM      4  C   LIG    1       -0.761   1.597  -1.229  0.00  0.00    +0.030 C 
ATOM      5  C   LIG    1       -2.124   0.903  -1.291  0.00  0.00    +0.080 C 
ATOM      6  C   LIG    1       -2.802   0.989   0.046  0.00  0.00    +0.520 C 
ATOM      7  N   LIG    1       -2.161   1.274   1.180  0.00  0.00    -0.710 N 
ATOM      8  H   LIG    1       -2.673   1.276   2.003  0.00  0.00    +0.400 HD
ATOM      9  O   LIG    1       -3.997   0.788   0.097  0.00  0.00    -0.550 OA
ATOM     10  C   LIG    1       -0.735   1.582   1.261  0.00  0.00    +0.220 C 
BRANCH  10  11
ATOM     11  C   LIG    1       -0.135   0.903   2.494  0.00  0.00    +0.160 C 
ATOM     12  C   LIG    1       -0.849   1.403   3.768  0.00  0.00    +0.010 C 
ATOM     13  C   LIG    1        0.326   1.526   4.777  0.00  0.00    +0.020 C 
ATOM     14  C   LIG    1        1.478   1.960   3.836  0.00  0.00    +0.190 C 
ATOM     15  O   LIG    1        1.251   1.246   2.611  0.00  0.00    -0.360 OA
ENDBRANCH  10  11
ENDBRANCH   1   3
BRANCH   1  16
ATOM     16  S   LIG    1        2.583   0.669  -0.625  0.00  0.00    +2.700 S 
ATOM     17  O   LIG    1        2.447  -0.620  -0.042  0.00  0.00    -0.940 OA
ATOM     18  O   LIG    1        3.768   1.447  -0.523  0.00  0.00    -0.940 OA
BRANCH  16  22
ATOM     19  C   LIG    1        1.761   0.161  -5.054  0.00  0.00    +0.000 A 
ATOM     20  C   LIG    1        1.251  -0.758  -4.135  0.00  0.00    +0.100 A 
ATOM     21  C   LIG    1        1.510  -0.599  -2.789  0.00  0.00    +0.130 A 
ATOM     22  C   LIG    1        2.264   0.473  -2.347  0.00  0.00    -0.640 A 
ATOM     23  C   LIG    1        2.774   1.389  -3.249  0.00  0.00    +0.120 A 
ATOM     24  C   LIG    1        2.527   1.241  -4.602  0.00  0.00    +0.130 A 
ATOM     25  F   LIG    1        3.026   2.135  -5.483  0.00  0.00    -0.120 F 
BRANCH  19  27
ATOM     26  N   LIG    1        1.294  -0.128  -7.563  0.00  0.00    -0.370 NA
ATOM     27  C   LIG    1        1.501  -0.000  -6.453  0.00  0.00    +0.240 C 
ENDBRANCH  19  27
ENDBRANCH  16  22
ENDBRANCH   1  16
TORSDOF 5
