REMARK  Name = ZINCrD0000075MaE.0
REMARK                            x       y       z     vdW  Elec       q    Type
REMARK                         _______ _______ _______ _____ _____    ______ ____
ROOT
ATOM      1  C   LIG    1        2.600   4.091  -0.042  0.00  0.00    +0.180 A 
ATOM      2  C   LIG    1        3.756   3.343  -0.223  0.00  0.00    +0.010 A 
ATOM      3  C   LIG    1        3.681   1.967  -0.326  0.00  0.00    +0.050 A 
ATOM      4  C   LIG    1        2.457   1.331  -0.248  0.00  0.00    -0.030 A 
ATOM      5  C   LIG    1        1.297   2.074  -0.066  0.00  0.00    +0.160 A 
ATOM      6  C   LIG    1        1.368   3.456   0.032  0.00  0.00    -0.010 A 
ENDROOT
BRANCH   1  11
ATOM      7  O   LIG    1        4.395   5.563  -1.344  0.00  0.00    -0.570 OA
ATOM      8  C   LIG    1        3.587   6.165  -0.664  0.00  0.00    +0.710 C 
ATOM      9  N   LIG    1        3.600   7.512  -0.636  0.00  0.00    -0.710 N 
ATOM     10  H   LIG    1        2.955   7.993  -0.094  0.00  0.00    +0.400 HD
ATOM     11  N   LIG    1        2.677   5.485   0.061  0.00  0.00    -0.680 N 
ATOM     12  H   LIG    1        2.075   5.961   0.655  0.00  0.00    +0.410 HD
BRANCH   9  13
ATOM     13  C   LIG    1        4.589   8.252  -1.425  0.00  0.00    +0.240 C 
ATOM     14  C   LIG    1        5.289   9.433  -0.751  0.00  0.00    +0.010 C 
ATOM     15  C   LIG    1        4.238   9.683  -1.835  0.00  0.00    +0.020 C 
ENDBRANCH   9  13
ENDBRANCH   1  11
BRANCH   5  16
ATOM     16  N   LIG    1        0.058   1.430   0.013  0.00  0.00    -0.660 N 
ATOM     17  H   LIG    1       -0.101   0.621  -0.497  0.00  0.00    +0.420 HD
ATOM     18  C   LIG    1       -0.912   1.930   0.803  0.00  0.00    +0.580 C 
ATOM     19  O   LIG    1       -0.682   2.887   1.519  0.00  0.00    -0.520 OA
BRANCH  18  20
ATOM     20  C   LIG    1       -2.252   1.319   0.801  0.00  0.00    -0.280 A 
ATOM     21  C   LIG    1       -3.271   1.808   1.608  0.00  0.00    +0.260 A 
ATOM     22  C   LIG    1       -4.526   1.146   1.566  0.00  0.00    -0.170 A 
ATOM     23  C   LIG    1       -5.651   1.715   2.179  0.00  0.00    +0.110 A 
ATOM     24  C   LIG    1       -6.864   1.096   2.079  0.00  0.00    +0.000 A 
ATOM     25  C   LIG    1       -6.990  -0.100   1.385  0.00  0.00    +0.100 A 
ATOM     26  C   LIG    1       -5.891  -0.690   0.796  0.00  0.00    +0.010 A 
ATOM     27  C   LIG    1       -4.646  -0.083   0.891  0.00  0.00    +0.150 A 
ATOM     28  O   LIG    1       -3.557  -0.670   0.341  0.00  0.00    -0.270 OA
ATOM     29  C   LIG    1       -2.565   0.160  -0.054  0.00  0.00    +0.520 A 
ATOM     30  O   LIG    1       -1.949  -0.045  -1.083  0.00  0.00    -0.440 OA
ENDBRANCH  18  20
ENDBRANCH   5  16
TORSDOF 4
