REMARK  Name = ZINCnE000005srNe.1
REMARK                            x       y       z     vdW  Elec       q    Type
REMARK                         _______ _______ _______ _____ _____    ______ ____
ROOT
ATOM      1  S   LIG    1        2.616  -2.616  -4.581  0.00  0.00    +2.600 S 
ATOM      2  O   LIG    1        3.005  -3.910  -4.138  0.00  0.00    -1.020 OA
ATOM      3  O   LIG    1        3.533  -1.670  -5.113  0.00  0.00    -1.020 OA
ENDROOT
BRANCH   1   7
ATOM      4  C   LIG    1        0.606  -0.607  -1.056  0.00  0.00    +0.230 A 
ATOM      5  C   LIG    1        1.163   0.160  -2.068  0.00  0.00    -0.080 A 
ATOM      6  C   LIG    1        1.781  -0.455  -3.140  0.00  0.00    +0.220 A 
ATOM      7  C   LIG    1        1.834  -1.835  -3.209  0.00  0.00    -0.650 A 
ATOM      8  C   LIG    1        1.275  -2.602  -2.204  0.00  0.00    +0.250 A 
ATOM      9  C   LIG    1        0.661  -1.992  -1.128  0.00  0.00    -0.100 A 
BRANCH   9  10
ATOM     10  N   LIG    1        0.063  -2.814  -0.052  0.00  0.00    +0.040 N 
ATOM     11  O   LIG    1       -0.478  -2.275   0.897  0.00  0.00    -0.150 OA
ATOM     12  O   LIG    1        0.112  -4.029  -0.116  0.00  0.00    -0.170 OA
ENDBRANCH   9  10
BRANCH   4  14
ATOM     13  C   LIG    1       -0.017   1.425   0.010  0.00  0.00    +0.250 C 
ATOM     14  O   LIG    1        0.002  -0.004   0.002  0.00  0.00    -0.280 OA
ENDBRANCH   4  14
ENDBRANCH   1   7
BRANCH   1  15
ATOM     15  N   LIG    1        1.457  -2.848  -5.740  0.00  0.00    -1.080 NA
BRANCH  15  16
ATOM     16  C   LIG    1        1.792  -3.455  -6.953  0.00  0.00    +0.290 A 
ATOM     17  C   LIG    1        3.098  -3.865  -7.187  0.00  0.00    -0.160 A 
ATOM     18  C   LIG    1        3.427  -4.465  -8.387  0.00  0.00    +0.070 A 
ATOM     19  C   LIG    1        2.457  -4.659  -9.354  0.00  0.00    -0.180 A 
ATOM     20  C   LIG    1        1.155  -4.251  -9.123  0.00  0.00    +0.070 A 
ATOM     21 BR   LIG    1        2.912  -5.481 -10.995  0.00  0.00    -0.100 Br
ATOM     22  C   LIG    1        0.819  -3.655  -7.924  0.00  0.00    -0.150 A 
ATOM     23  C   LIG    1       -0.600  -3.217  -7.670  0.00  0.00    +0.080 C 
ENDBRANCH  15  16
ENDBRANCH   1  15
TORSDOF 5
