REMARK  Name = ZINCtj0000003X4k.0
REMARK                            x       y       z     vdW  Elec       q    Type
REMARK                         _______ _______ _______ _____ _____    ______ ____
ROOT
ATOM      1  C   LIG    1       -0.124   6.482   0.257  0.00  0.00    +0.360 C 
ENDROOT
BRANCH   1   2
ATOM      2  N   LIG    1       -0.595   6.866  -1.076  0.00  0.00    -0.750 N 
ATOM      3  H   LIG    1       -0.216   6.447  -1.864  0.00  0.00    +0.400 HD
ATOM      4  C   LIG    1       -1.557   7.802  -1.207  0.00  0.00    +0.710 C 
ATOM      5  N   LIG    1       -1.920   8.226  -2.434  0.00  0.00    -0.620 N 
ATOM      6  C   LIG    1       -1.341   7.567  -3.591  0.00  0.00    +0.340 C 
ATOM      7  C   LIG    1       -0.387   8.485  -4.285  0.00  0.00    +0.510 C 
ATOM      8  N   LIG    1       -0.499   9.777  -4.398  0.00  0.00    -0.640 N 
ATOM      9  H   LIG    1        0.059  10.121  -5.113  0.00  0.00    +0.400 HD
ATOM     10  C   LIG    1       -1.198  10.783  -3.774  0.00  0.00    +0.170 A 
ATOM     11  C   LIG    1       -0.768  12.085  -4.082  0.00  0.00    -0.030 A 
ATOM     12  C   LIG    1       -1.369  13.188  -3.526  0.00  0.00    +0.050 A 
ATOM     13  C   LIG    1       -2.422  13.023  -2.645  0.00  0.00    +0.000 A 
ATOM     14  C   LIG    1       -2.860  11.752  -2.346  0.00  0.00    +0.050 A 
ATOM     15  C   LIG    1       -2.264  10.628  -2.911  0.00  0.00    -0.140 A 
ATOM     16  O   LIG    1        0.588   7.975  -4.793  0.00  0.00    -0.530 OA
ATOM     17  C   LIG    1       -2.866   9.305  -2.529  0.00  0.00    +0.370 C 
ATOM     18  O   LIG    1       -2.096   8.262  -0.220  0.00  0.00    -0.570 OA
ENDBRANCH   1   2
BRANCH   1  23
ATOM     19  C   LIG    1        1.579   3.119  -0.000  0.00  0.00    +0.090 A 
ATOM     20  C   LIG    1        2.911   3.493  -0.110  0.00  0.00    +0.040 A 
ATOM     21  C   LIG    1        3.254   4.832  -0.100  0.00  0.00    +0.060 A 
ATOM     22  C   LIG    1        2.271   5.797   0.018  0.00  0.00    +0.070 A 
ATOM     23  C   LIG    1        0.944   5.427   0.128  0.00  0.00    -0.090 A 
ATOM     24  C   LIG    1        0.595   4.091   0.114  0.00  0.00    +0.080 A 
BRANCH  19  27
ATOM     25  C   LIG    1        1.331  -0.406  -0.029  0.00  0.00    -0.110 A 
ATOM     26  C   LIG    1        2.095   0.712  -0.024  0.00  0.00    +0.210 A 
ATOM     27  N   LIG    1        1.228   1.761  -0.010  0.00  0.00    -0.220 N 
ATOM     28  N   LIG    1        0.030   1.290  -0.007  0.00  0.00    -0.050 NA
ATOM     29  N   LIG    1        0.058   0.004  -0.018  0.00  0.00    -0.240 NA
BRANCH  25  30
ATOM     30  C   LIG    1        1.819  -1.831  -0.044  0.00  0.00    +0.400 C 
BRANCH  30  31
ATOM     31  N   LIG    1        1.872  -2.345   1.331  0.00  0.00    -0.640 N 
ATOM     32  H   LIG    1        2.504  -1.780   1.877  0.00  0.00    +0.430 HD
ATOM     33  H   LIG    1        2.199  -3.300   1.320  0.00  0.00    +0.440 HD
ATOM     34  H   LIG    1        0.950  -2.310   1.739  0.00  0.00    +0.440 HD
ENDBRANCH  30  31
ENDBRANCH  25  30
ENDBRANCH  19  27
ENDBRANCH   1  23
TORSDOF 5
