REMARK  Name = ZINCpk00000KfKig.0
REMARK                            x       y       z     vdW  Elec       q    Type
REMARK                         _______ _______ _______ _____ _____    ______ ____
ROOT
ATOM      1  C   LIG    1        1.322   1.755  -0.001  0.00  0.00    -0.280 A 
ATOM      2  C   LIG    1        2.133   0.637  -0.015  0.00  0.00    +0.330 A 
ATOM      3  N   LIG    1        1.332  -0.440  -0.013  0.00  0.00    -0.360 N 
ATOM      4  N   LIG    1        0.002  -0.004   0.002  0.00  0.00    -0.300 NA
ATOM      5  C   LIG    1       -0.016   1.300   0.009  0.00  0.00    +0.310 A 
ENDROOT
BRANCH   1   7
ATOM      6  O   LIG    1        2.956   3.419  -0.008  0.00  0.00    -0.520 OA
ATOM      7  C   LIG    1        1.769   3.159   0.002  0.00  0.00    +0.550 C 
BRANCH   7   8
ATOM      8  O   LIG    1        0.861   4.155   0.017  0.00  0.00    -0.350 OA
BRANCH   8   9
ATOM      9  C   LIG    1        1.372   5.513   0.019  0.00  0.00    +0.250 C 
BRANCH   9  10
ATOM     10  C   LIG    1        0.202   6.499   0.036  0.00  0.00    +0.230 C 
BRANCH  10  11
ATOM     11  O   LIG    1       -0.517   6.364   1.264  0.00  0.00    -0.310 OA
BRANCH  11  12
ATOM     12  C   LIG    1       -1.594   7.173   1.440  0.00  0.00    +0.130 A 
ATOM     13  C   LIG    1       -1.948   8.083   0.455  0.00  0.00    -0.080 A 
ATOM     14  C   LIG    1       -3.047   8.901   0.634  0.00  0.00    +0.050 A 
ATOM     15  C   LIG    1       -3.787   8.821   1.800  0.00  0.00    -0.040 A 
ATOM     16  C   LIG    1       -3.432   7.919   2.786  0.00  0.00    +0.050 A 
ATOM     17  C   LIG    1       -2.338   7.095   2.609  0.00  0.00    -0.020 A 
ENDBRANCH  11  12
ENDBRANCH  10  11
ENDBRANCH   9  10
ENDBRANCH   8   9
ENDBRANCH   7   8
ENDBRANCH   1   7
BRANCH   3  18
ATOM     18  C   LIG    1        1.775  -1.836  -0.025  0.00  0.00    +0.330 C 
BRANCH  18  19
ATOM     19  C   LIG    1        1.152  -2.579   1.158  0.00  0.00    +0.180 C 
BRANCH  19  20
ATOM     20  N   LIG    1        1.596  -3.979   1.145  0.00  0.00    -0.540 NA
ATOM     21  C   LIG    1        1.063  -4.691  -0.025  0.00  0.00    +0.150 C 
ATOM     22  C   LIG    1        1.597  -6.125  -0.031  0.00  0.00    +0.220 C 
ATOM     23  O   LIG    1        1.244  -6.765   1.198  0.00  0.00    -0.380 OA
ATOM     24  C   LIG    1        1.748  -6.099   2.359  0.00  0.00    +0.220 C 
ATOM     25  C   LIG    1        1.215  -4.664   2.389  0.00  0.00    +0.160 C 
ENDBRANCH  19  20
ENDBRANCH  18  19
ENDBRANCH   3  18
TORSDOF 9
