REMARK  Name = ZINCqH0000001099.0
REMARK                            x       y       z     vdW  Elec       q    Type
REMARK                         _______ _______ _______ _____ _____    ______ ____
ROOT
ATOM      1  N   LIG    1        2.796  -0.831  -2.004  0.00  0.00    -0.730 N 
ATOM      2  H   LIG    1        2.312  -1.476  -2.543  0.00  0.00    +0.390 HD
ATOM      3  C   LIG    1        4.055  -0.484  -2.336  0.00  0.00    +0.590 C 
ATOM      4  O   LIG    1        4.661   0.325  -1.660  0.00  0.00    -0.530 OA
ENDROOT
BRANCH   3   5
ATOM      5  C   LIG    1        4.697  -1.084  -3.517  0.00  0.00    -0.280 A 
ATOM      6  C   LIG    1        4.146  -2.014  -4.375  0.00  0.00    +0.300 A 
ATOM      7  N   LIG    1        5.058  -2.296  -5.318  0.00  0.00    -0.460 N 
ATOM      8  H   LIG    1        4.929  -2.920  -6.050  0.00  0.00    +0.450 HD
ATOM      9  N   LIG    1        6.221  -1.559  -5.083  0.00  0.00    -0.280 NA
ATOM     10  C   LIG    1        6.051  -0.817  -4.012  0.00  0.00    +0.180 A 
BRANCH  10  11
ATOM     11  C   LIG    1        7.040   0.114  -3.417  0.00  0.00    -0.050 A 
ATOM     12  C   LIG    1        6.614   1.303  -2.828  0.00  0.00    +0.130 A 
ATOM     13  C   LIG    1        7.537   2.164  -2.271  0.00  0.00    -0.020 A 
ATOM     14  C   LIG    1        8.887   1.853  -2.307  0.00  0.00    +0.110 A 
ATOM     15  C   LIG    1        9.316   0.674  -2.896  0.00  0.00    -0.030 A 
ATOM     16  F   LIG    1        9.788   2.701  -1.765  0.00  0.00    -0.140 F 
ATOM     17  C   LIG    1        8.399  -0.195  -3.450  0.00  0.00    +0.070 A 
ENDBRANCH  10  11
ENDBRANCH   3   5
BRANCH   1  18
ATOM     18  C   LIG    1        2.157  -0.234  -0.829  0.00  0.00    +0.290 C 
BRANCH  18  24
ATOM     19  C   LIG    1        0.135  -0.304   0.640  0.00  0.00    +0.170 C 
ATOM     20  O   LIG    1        0.913  -0.796   1.733  0.00  0.00    -0.370 OA
ATOM     21  C   LIG    1        0.960  -2.221   1.821  0.00  0.00    +0.200 C 
ATOM     22  C   LIG    1        1.600  -2.789   0.551  0.00  0.00    -0.010 C 
ATOM     23  C   LIG    1        0.795  -2.325  -0.668  0.00  0.00    +0.010 C 
ATOM     24  C   LIG    1        0.741  -0.794  -0.678  0.00  0.00    -0.040 C 
BRANCH  19  26
ATOM     25  C   LIG    1        1.518   1.732   1.067  0.00  0.00    +0.030 C 
ATOM     26  C   LIG    1        0.133   1.226   0.663  0.00  0.00    -0.060 C 
ATOM     27  C   LIG    1       -0.906   1.719   1.672  0.00  0.00    +0.030 C 
ATOM     28  C   LIG    1       -0.217   1.756  -0.729  0.00  0.00    +0.030 C 
ENDBRANCH  19  26
ENDBRANCH  18  24
ENDBRANCH   1  18
TORSDOF 5
