REMARK  Name = ZINCvU00000003Lj.0
REMARK                            x       y       z     vdW  Elec       q    Type
REMARK                         _______ _______ _______ _____ _____    ______ ____
ROOT
ATOM      1  C   LIG    1       -3.385   9.602   1.003  0.00  0.00    +0.100 C 
ATOM      2  C   LIG    1       -2.972   8.155   1.087  0.00  0.00    -0.100 A 
ATOM      3  C   LIG    1       -1.641   7.825   1.247  0.00  0.00    +0.040 A 
ATOM      4  C   LIG    1       -1.261   6.493   1.324  0.00  0.00    +0.080 A 
ATOM      5  C   LIG    1       -2.217   5.491   1.235  0.00  0.00    +0.030 A 
ATOM      6  C   LIG    1       -3.549   5.820   1.081  0.00  0.00    +0.050 A 
ATOM      7  C   LIG    1       -3.930   7.153   1.004  0.00  0.00    +0.150 A 
ENDROOT
BRANCH   7   8
ATOM      8  N   LIG    1       -5.281   7.487   0.843  0.00  0.00    -0.670 N 
ATOM      9  H   LIG    1       -5.529   8.268   0.324  0.00  0.00    +0.410 HD
ATOM     10  C   LIG    1       -6.236   6.723   1.410  0.00  0.00    +0.570 C 
ATOM     11  O   LIG    1       -5.931   5.699   1.990  0.00  0.00    -0.500 OA
BRANCH  10  12
ATOM     12  C   LIG    1       -7.653   7.131   1.326  0.00  0.00    -0.190 A 
ATOM     13  C   LIG    1       -8.013   8.276   0.624  0.00  0.00    +0.150 A 
ATOM     14  C   LIG    1       -9.375   8.616   0.571  0.00  0.00    -0.130 A 
ATOM     15  C   LIG    1       -9.814   9.757  -0.123  0.00  0.00    +0.100 A 
ATOM     16  C   LIG    1      -11.140  10.060  -0.149  0.00  0.00    +0.000 A 
ATOM     17  C   LIG    1      -12.071   9.252   0.506  0.00  0.00    +0.140 A 
ATOM     18  C   LIG    1      -11.678   8.139   1.189  0.00  0.00    +0.010 A 
ATOM     19  F   LIG    1      -13.381   9.578   0.464  0.00  0.00    -0.130 F 
ATOM     20  C   LIG    1      -10.318   7.793   1.238  0.00  0.00    +0.180 A 
ATOM     21  N   LIG    1       -9.911   6.705   1.903  0.00  0.00    -0.480 NA
ATOM     22  C   LIG    1       -8.649   6.367   1.960  0.00  0.00    +0.230 A 
ATOM     23  C   LIG    1       -8.252   5.130   2.724  0.00  0.00    +0.160 C 
ENDBRANCH  10  12
ENDBRANCH   7   8
BRANCH   4  24
ATOM     24  O   LIG    1        0.050   6.169   1.481  0.00  0.00    -0.240 OA
BRANCH  24  25
ATOM     25  C   LIG    1        0.605   6.336   2.705  0.00  0.00    +0.360 A 
ATOM     26  N   LIG    1       -0.100   6.894   3.675  0.00  0.00    -0.520 NA
ATOM     27  C   LIG    1        0.398   7.070   4.884  0.00  0.00    +0.340 A 
ATOM     28  C   LIG    1        1.692   6.688   5.188  0.00  0.00    -0.060 A 
ATOM     29  C   LIG    1        2.476   6.099   4.210  0.00  0.00    +0.170 A 
ATOM     30  C   LIG    1        1.924   5.916   2.937  0.00  0.00    -0.090 A 
BRANCH  30  31
ATOM     31  C   LIG    1        2.692   5.313   1.890  0.00  0.00    +0.260 C 
ATOM     32  N   LIG    1        3.301   4.834   1.059  0.00  0.00    -0.400 NA
ENDBRANCH  30  31
ENDBRANCH  24  25
ENDBRANCH   4  24
TORSDOF 5
