REMARK  Name = ZINCnE000001KPOK.1
REMARK                            x       y       z     vdW  Elec       q    Type
REMARK                         _______ _______ _______ _____ _____    ______ ____
ROOT
ATOM      1  S   LIG    1       -1.166   4.129   0.052  0.00  0.00    +2.610 S 
ATOM      2  O   LIG    1       -0.715   4.404  -1.267  0.00  0.00    -1.020 OA
ATOM      3  O   LIG    1       -0.658   4.792   1.202  0.00  0.00    -1.020 OA
ENDROOT
BRANCH   1   4
ATOM      4  C   LIG    1       -2.907   4.400   0.050  0.00  0.00    -0.630 A 
ATOM      5  C   LIG    1       -3.584   4.529  -1.149  0.00  0.00    +0.020 A 
ATOM      6  C   LIG    1       -4.951   4.738  -1.151  0.00  0.00    -0.040 A 
ATOM      7  C   LIG    1       -5.638   4.827   0.045  0.00  0.00    -0.040 A 
ATOM      8  C   LIG    1       -4.960   4.703   1.243  0.00  0.00    -0.040 A 
ATOM      9  C   LIG    1       -7.128   5.058   0.043  0.00  0.00    +0.100 C 
ATOM     10  C   LIG    1       -2.834   4.438  -2.452  0.00  0.00    +0.110 C 
ATOM     11  C   LIG    1       -3.594   4.490   1.245  0.00  0.00    +0.030 A 
ATOM     12  C   LIG    1       -2.855   4.354   2.552  0.00  0.00    +0.090 C 
ENDBRANCH   1   4
BRANCH   1  13
ATOM     13  N   LIG    1       -0.923   2.510   0.301  0.00  0.00    -1.080 NA
BRANCH  13  16
ATOM     14  C   LIG    1        1.870   0.133   0.606  0.00  0.00    +0.190 A 
ATOM     15  C   LIG    1        0.580   0.641   0.561  0.00  0.00    -0.120 A 
ATOM     16  C   LIG    1        0.376   1.998   0.352  0.00  0.00    +0.340 A 
ATOM     17  C   LIG    1        1.463   2.846   0.188  0.00  0.00    -0.210 A 
ATOM     18  C   LIG    1        2.752   2.337   0.232  0.00  0.00    +0.200 A 
ATOM     19  C   LIG    1        2.955   0.981   0.441  0.00  0.00    -0.260 A 
BRANCH  14  21
ATOM     20  C   LIG    1        3.424  -1.649   0.844  0.00  0.00    +0.220 C 
ATOM     21  O   LIG    1        2.070  -1.195   0.809  0.00  0.00    -0.320 OA
ENDBRANCH  14  21
BRANCH  18  22
ATOM     22  O   LIG    1        3.816   3.166   0.071  0.00  0.00    -0.320 OA
ATOM     23  C   LIG    1        5.115   2.574   0.130  0.00  0.00    +0.220 C 
ENDBRANCH  18  22
ENDBRANCH  13  16
ENDBRANCH   1  13
TORSDOF 5
