REMARK  Name = ZINCvU0000000CrJ.0
REMARK                            x       y       z     vdW  Elec       q    Type
REMARK                         _______ _______ _______ _____ _____    ______ ____
ROOT
ATOM      1  N   LIG    1       -4.115   2.460   2.304  0.00  0.00    -0.410 N 
ATOM      2  C   LIG    1       -5.094   1.536   2.056  0.00  0.00    +0.150 A 
ATOM      3  N   LIG    1       -6.249   2.143   2.206  0.00  0.00    -0.290 NA
ATOM      4  N   LIG    1       -6.064   3.376   2.519  0.00  0.00    -0.240 NA
ATOM      5  C   LIG    1       -4.779   3.632   2.595  0.00  0.00    +0.230 A 
ENDROOT
BRANCH   1  11
ATOM      6  C   LIG    1       -0.052   1.469  -0.284  0.00  0.00    +0.100 C 
ATOM      7  C   LIG    1       -0.735   1.776   1.024  0.00  0.00    -0.070 A 
ATOM      8  C   LIG    1        0.008   1.858   2.187  0.00  0.00    +0.030 A 
ATOM      9  C   LIG    1       -0.615   2.140   3.389  0.00  0.00    +0.040 A 
ATOM     10  C   LIG    1       -1.980   2.340   3.431  0.00  0.00    +0.030 A 
ATOM     11  C   LIG    1       -2.729   2.257   2.265  0.00  0.00    +0.100 A 
ATOM     12  C   LIG    1       -2.100   1.980   1.058  0.00  0.00    +0.030 A 
ENDBRANCH   1  11
BRANCH   5  13
ATOM     13  C   LIG    1       -4.160   4.932   2.929  0.00  0.00    -0.010 A 
ATOM     14  C   LIG    1       -3.115   5.431   2.151  0.00  0.00    +0.050 A 
ATOM     15  C   LIG    1       -2.545   6.648   2.465  0.00  0.00    +0.030 A 
ATOM     16  C   LIG    1       -3.000   7.368   3.555  0.00  0.00    +0.050 A 
ATOM     17  C   LIG    1       -4.032   6.877   4.335  0.00  0.00    +0.030 A 
ATOM     18  C   LIG    1       -4.615   5.663   4.029  0.00  0.00    -0.000 A 
ATOM     19 CL   LIG    1       -5.910   5.048   5.008  0.00  0.00    -0.040 Cl
ENDBRANCH   5  13
BRANCH   2  20
ATOM     20  S   LIG    1       -4.849  -0.154   1.621  0.00  0.00    +0.100 S 
BRANCH  20  21
ATOM     21  C   LIG    1       -6.571  -0.691   1.466  0.00  0.00    +0.110 C 
BRANCH  21  22
ATOM     22  C   LIG    1       -6.611  -2.149   1.088  0.00  0.00    +0.530 C 
ATOM     23  N   LIG    1       -7.795  -2.769   0.916  0.00  0.00    -0.720 N 
ATOM     24  H   LIG    1       -8.622  -2.276   1.036  0.00  0.00    +0.410 HD
ATOM     25  O   LIG    1       -5.577  -2.765   0.938  0.00  0.00    -0.520 OA
BRANCH  23  26
ATOM     26  C   LIG    1       -7.834  -4.186   0.549  0.00  0.00    +0.320 C 
BRANCH  26  27
ATOM     27  C   LIG    1       -9.267  -4.633   0.420  0.00  0.00    -0.110 A 
ATOM     28  C   LIG    1       -9.934  -5.143   1.518  0.00  0.00    +0.020 A 
ATOM     29  C   LIG    1      -11.250  -5.548   1.401  0.00  0.00    +0.010 A 
ATOM     30  C   LIG    1      -11.897  -5.453   0.183  0.00  0.00    +0.010 A 
ATOM     31  C   LIG    1      -11.229  -4.948  -0.917  0.00  0.00    +0.010 A 
ATOM     32  C   LIG    1       -9.914  -4.538  -0.798  0.00  0.00    +0.020 A 
ENDBRANCH  26  27
ENDBRANCH  23  26
ENDBRANCH  21  22
ENDBRANCH  20  21
ENDBRANCH   2  20
TORSDOF 7
