REMARK  Name = ZINCrH000004oVln.0
REMARK                            x       y       z     vdW  Elec       q    Type
REMARK                         _______ _______ _______ _____ _____    ______ ____
ROOT
ATOM      1  N   LIG    1       -0.827   1.124   1.193  0.00  0.00    -0.720 N 
ATOM      2  H   LIG    1       -1.604   1.703   1.145  0.00  0.00    +0.410 HD
ATOM      3  C   LIG    1       -0.394   0.675   2.388  0.00  0.00    +0.520 C 
ATOM      4  O   LIG    1        0.578  -0.048   2.448  0.00  0.00    -0.520 OA
ENDROOT
BRANCH   1   5
ATOM      5  C   LIG    1       -0.124   0.739  -0.033  0.00  0.00    +0.300 C 
BRANCH   5  16
ATOM      6  C   LIG    1       -2.473   2.042  -3.256  0.00  0.00    +0.070 C 
ATOM      7  C   LIG    1       -1.046   1.650  -3.644  0.00  0.00    +0.300 C 
ATOM      8  C   LIG    1       -1.083   0.535  -4.677  0.00  0.00    -0.120 A 
ATOM      9  C   LIG    1       -0.346  -0.586  -4.561  0.00  0.00    -0.180 A 
ATOM     10  S   LIG    1       -0.639  -1.639  -5.939  0.00  0.00    +0.110 S 
ATOM     11  C   LIG    1       -1.780  -0.488  -6.619  0.00  0.00    -0.040 A 
ATOM     12  C   LIG    1        0.595  -0.894  -3.416  0.00  0.00    +0.110 C 
ATOM     13  C   LIG    1        0.922   0.405  -2.673  0.00  0.00    +0.300 C 
ATOM     14  C   LIG    1       -1.874   0.570  -5.821  0.00  0.00    +0.020 A 
ATOM     15  N   LIG    1       -0.327   1.152  -2.463  0.00  0.00    -0.610 N 
ATOM     16  C   LIG    1       -0.803   1.369  -1.221  0.00  0.00    +0.520 C 
ATOM     17  O   LIG    1       -1.779   2.071  -1.060  0.00  0.00    -0.520 OA
ENDBRANCH   5  16
ENDBRANCH   1   5
BRANCH   3  18
ATOM     18  C   LIG    1       -1.117   1.072   3.649  0.00  0.00    +0.120 C 
BRANCH  18  19
ATOM     19  C   LIG    1       -0.437   0.442   4.837  0.00  0.00    -0.060 A 
ATOM     20  C   LIG    1       -0.893  -0.737   5.341  0.00  0.00    +0.020 A 
ATOM     21  C   LIG    1       -0.274  -1.337   6.435  0.00  0.00    +0.010 A 
ATOM     22  C   LIG    1        0.798  -0.757   7.040  0.00  0.00    +0.030 A 
ATOM     23  C   LIG    1        1.294   0.464   6.552  0.00  0.00    -0.050 A 
ATOM     24  C   LIG    1        2.400   1.093   7.149  0.00  0.00    +0.030 A 
ATOM     25  C   LIG    1        2.853   2.275   6.649  0.00  0.00    +0.000 A 
ATOM     26  C   LIG    1        2.238   2.873   5.551  0.00  0.00    +0.010 A 
ATOM     27  C   LIG    1        1.165   2.292   4.947  0.00  0.00    +0.010 A 
ATOM     28  C   LIG    1        0.668   1.072   5.435  0.00  0.00    -0.030 A 
ENDBRANCH  18  19
ENDBRANCH   3  18
TORSDOF 4
