REMARK  Name = ZINCrD00000bGMNZ.0
REMARK                            x       y       z     vdW  Elec       q    Type
REMARK                         _______ _______ _______ _____ _____    ______ ____
ROOT
ATOM      1  C   LIG    1        0.002  -0.004   0.002  0.00  0.00    +0.290 C 
ATOM      2  C   LIG    1       -0.019   1.526   0.010  0.00  0.00    +0.040 C 
ENDROOT
BRANCH   1   3
ATOM      3  C   LIG    1        0.707  -0.490  -1.238  0.00  0.00    -0.080 A 
ATOM      4  C   LIG    1        2.089  -0.499  -1.285  0.00  0.00    +0.030 A 
ATOM      5  C   LIG    1        2.743  -0.953  -2.416  0.00  0.00    +0.020 A 
ATOM      6  C   LIG    1        2.010  -1.390  -3.508  0.00  0.00    +0.100 A 
ATOM      7  N   LIG    1        2.658  -1.865  -4.657  0.00  0.00    -0.660 N 
ATOM      8  H   LIG    1        3.614  -1.745  -4.766  0.00  0.00    +0.420 HD
ATOM      9  C   LIG    1        1.935  -2.492  -5.608  0.00  0.00    +0.500 C 
ATOM     10  C   LIG    1        0.477  -2.791  -5.365  0.00  0.00    +0.230 C 
ATOM     11  O   LIG    1       -0.096  -1.764  -4.553  0.00  0.00    -0.290 OA
ATOM     12  O   LIG    1        2.455  -2.813  -6.656  0.00  0.00    -0.500 OA
ATOM     13  C   LIG    1        0.618  -1.366  -3.465  0.00  0.00    +0.090 A 
ATOM     14  C   LIG    1       -0.030  -0.920  -2.326  0.00  0.00    +0.050 A 
BRANCH  10  15
ATOM     15  C   LIG    1        0.347  -4.137  -4.649  0.00  0.00    +0.010 C 
ATOM     16  C   LIG    1       -1.133  -4.501  -4.512  0.00  0.00    +0.030 C 
ENDBRANCH  10  15
ENDBRANCH   1   3
BRANCH   1  18
ATOM     17  C   LIG    1        0.051  -0.633   2.355  0.00  0.00    +0.520 C 
ATOM     18  N   LIG    1        0.711  -0.489   1.189  0.00  0.00    -0.730 N 
ATOM     19  H   LIG    1        1.654  -0.707   1.135  0.00  0.00    +0.400 HD
ATOM     20  O   LIG    1       -1.129  -0.361   2.423  0.00  0.00    -0.530 OA
BRANCH  17  21
ATOM     21  C   LIG    1        0.780  -1.133   3.576  0.00  0.00    +0.040 C 
BRANCH  21  22
ATOM     22  C   LIG    1       -0.191  -1.204   4.756  0.00  0.00    +0.130 C 
BRANCH  22  23
ATOM     23  C   LIG    1        0.549  -1.711   5.996  0.00  0.00    +0.040 C 
ATOM     24  N   LIG    1        2.003  -1.546   6.061  0.00  0.00    -0.120 NA
ATOM     25  N   LIG    1        1.616  -2.699   5.820  0.00  0.00    -0.120 NA
BRANCH  23  26
ATOM     26  C   LIG    1       -0.247  -1.717   7.303  0.00  0.00    +0.120 C 
BRANCH  26  27
ATOM     27  C   LIG    1        0.635  -2.249   8.434  0.00  0.00    +0.160 C 
BRANCH  27  29
ATOM     28  C   LIG    1       -0.741  -2.259  10.694  0.00  0.00    +0.030 C 
ATOM     29  C   LIG    1       -0.131  -2.255   9.692  0.00  0.00    -0.190 C 
ENDBRANCH  27  29
ENDBRANCH  26  27
ENDBRANCH  23  26
ENDBRANCH  22  23
ENDBRANCH  21  22
ENDBRANCH  17  21
ENDBRANCH   1  18
TORSDOF 9
