REMARK  Name = ZINCpk00000xIe7a.1
REMARK                            x       y       z     vdW  Elec       q    Type
REMARK                         _______ _______ _______ _____ _____    ______ ____
ROOT
ATOM      1  C   LIG    1       -2.262   1.477  -0.778  0.00  0.00    +0.520 C 
ATOM      2  N   LIG    1       -3.177   1.910  -1.667  0.00  0.00    -0.680 N 
ATOM      3  H   LIG    1       -2.889   2.320  -2.498  0.00  0.00    +0.410 HD
ATOM      4  O   LIG    1       -2.620   1.042   0.297  0.00  0.00    -0.490 OA
ENDROOT
BRANCH   2   5
ATOM      5  C   LIG    1       -4.542   1.769  -1.393  0.00  0.00    +0.210 A 
ATOM      6  C   LIG    1       -5.436   1.507  -2.423  0.00  0.00    -0.030 A 
ATOM      7  C   LIG    1       -6.781   1.363  -2.148  0.00  0.00    +0.150 A 
ATOM      8  C   LIG    1       -7.240   1.491  -0.850  0.00  0.00    -0.690 A 
ATOM      9  C   LIG    1       -6.354   1.758   0.178  0.00  0.00    +0.150 A 
ATOM     10  C   LIG    1       -5.006   1.897  -0.090  0.00  0.00    +0.000 A 
BRANCH   8  11
ATOM     11  S   LIG    1       -8.959   1.313  -0.503  0.00  0.00    +2.700 S 
ATOM     12  O   LIG    1       -9.056   0.944   0.865  0.00  0.00    -0.960 OA
ATOM     13  O   LIG    1       -9.502   0.533  -1.560  0.00  0.00    -0.960 OA
BRANCH  11  14
ATOM     14  N   LIG    1       -9.643   2.815  -0.632  0.00  0.00    -1.250 NA
ATOM     15  H   LIG    1      -10.594   2.930  -0.477  0.00  0.00    +0.420 HD
ATOM     16  H   LIG    1       -9.093   3.580  -0.863  0.00  0.00    +0.420 HD
ENDBRANCH  11  14
ENDBRANCH   8  11
ENDBRANCH   2   5
BRANCH   1  17
ATOM     17  C   LIG    1       -0.795   1.533  -1.117  0.00  0.00    +0.180 C 
ATOM     18  C   LIG    1       -0.528   0.687  -2.364  0.00  0.00    +0.030 C 
BRANCH  17  19
ATOM     19  N   LIG    1       -0.011   1.008   0.008  0.00  0.00    -0.660 NA
ATOM     20  H   LIG    1        0.006  -0.001  -0.003  0.00  0.00    +0.350 HD
BRANCH  19  21
ATOM     21  C   LIG    1        1.351   1.558   0.004  0.00  0.00    +0.240 C 
BRANCH  21  26
ATOM     22  C   LIG    1        3.554  -0.688   2.098  0.00  0.00    +0.130 A 
ATOM     23  C   LIG    1        3.539  -0.027   3.317  0.00  0.00    -0.070 A 
ATOM     24  C   LIG    1        2.817   1.143   3.459  0.00  0.00    +0.050 A 
ATOM     25  C   LIG    1        2.114   1.657   2.386  0.00  0.00    +0.000 A 
ATOM     26  C   LIG    1        2.123   0.997   1.171  0.00  0.00    -0.050 A 
ATOM     27  C   LIG    1        2.843  -0.172   1.023  0.00  0.00    -0.020 A 
BRANCH  22  29
ATOM     28  C   LIG    1        4.971  -2.310   3.103  0.00  0.00    +0.250 C 
ATOM     29  O   LIG    1        4.263  -1.838   1.955  0.00  0.00    -0.320 OA
ENDBRANCH  22  29
ENDBRANCH  21  26
ENDBRANCH  19  21
ENDBRANCH  17  19
ENDBRANCH   1  17
TORSDOF 8
