REMARK  Name = ZINCtV000002I1LV.0
REMARK                            x       y       z     vdW  Elec       q    Type
REMARK                         _______ _______ _______ _____ _____    ______ ____
ROOT
ATOM      1  C   LIG    1        2.048   6.502  -1.078  0.00  0.00    +0.280 A 
ATOM      2  N   LIG    1        1.865   7.735  -0.706  0.00  0.00    -0.460 NA
ATOM      3  C   LIG    1        1.866   7.808   0.650  0.00  0.00    +0.040 A 
ATOM      4  C   LIG    1        1.721   8.859   1.559  0.00  0.00    +0.070 A 
ATOM      5  C   LIG    1        1.769   8.610   2.901  0.00  0.00    +0.000 A 
ATOM      6  C   LIG    1        1.962   7.320   3.375  0.00  0.00    +0.040 A 
ATOM      7  C   LIG    1        2.108   6.267   2.497  0.00  0.00    +0.010 A 
ATOM      8  C   LIG    1        2.061   6.501   1.129  0.00  0.00    +0.060 A 
ATOM      9  N   LIG    1        2.169   5.698   0.012  0.00  0.00    -0.480 N 
ENDROOT
BRANCH   1  10
ATOM     10  C   LIG    1        2.112   6.033  -2.509  0.00  0.00    +0.320 C 
BRANCH  10  11
ATOM     11  O   LIG    1        0.799   5.690  -2.957  0.00  0.00    -0.310 OA
BRANCH  11  16
ATOM     12  C   LIG    1        0.305   3.844  -8.255  0.00  0.00    +0.100 C 
ATOM     13  C   LIG    1        0.437   4.338  -6.837  0.00  0.00    -0.120 A 
ATOM     14  C   LIG    1       -0.684   4.441  -6.035  0.00  0.00    +0.050 A 
ATOM     15  C   LIG    1       -0.566   4.894  -4.735  0.00  0.00    -0.010 A 
ATOM     16  C   LIG    1        0.679   5.244  -4.235  0.00  0.00    +0.120 A 
ATOM     17  C   LIG    1        1.802   5.145  -5.044  0.00  0.00    -0.070 A 
ATOM     18  C   LIG    1        1.679   4.686  -6.341  0.00  0.00    +0.050 A 
ENDBRANCH  11  16
ENDBRANCH  10  11
ENDBRANCH   1  10
BRANCH   9  19
ATOM     19  C   LIG    1        2.381   4.248   0.002  0.00  0.00    +0.310 C 
BRANCH  19  20
ATOM     20  C   LIG    1        1.027   3.535   0.011  0.00  0.00    +0.030 C 
BRANCH  20  21
ATOM     21  C   LIG    1        1.248   2.021   0.001  0.00  0.00    +0.200 C 
BRANCH  21  22
ATOM     22  O   LIG    1       -0.016   1.355   0.009  0.00  0.00    -0.310 OA
BRANCH  22  23
ATOM     23  C   LIG    1        0.002  -0.004   0.002  0.00  0.00    +0.140 A 
ATOM     24  C   LIG    1        1.212  -0.682  -0.019  0.00  0.00    -0.060 A 
ATOM     25  C   LIG    1        1.229  -2.063  -0.022  0.00  0.00    +0.070 A 
ATOM     26  C   LIG    1        0.040  -2.771  -0.014  0.00  0.00    -0.070 A 
ATOM     27  C   LIG    1       -1.168  -2.096   0.002  0.00  0.00    +0.070 A 
ATOM     28 CL   LIG    1        0.063  -4.506  -0.024  0.00  0.00    -0.070 Cl
ATOM     29  C   LIG    1       -1.189  -0.715   0.010  0.00  0.00    +0.000 A 
ENDBRANCH  22  23
ENDBRANCH  21  22
ENDBRANCH  20  21
ENDBRANCH  19  20
ENDBRANCH   9  19
TORSDOF 8
