REMARK  Name = ZINCpe00000zdB8B.0
REMARK                            x       y       z     vdW  Elec       q    Type
REMARK                         _______ _______ _______ _____ _____    ______ ____
ROOT
ATOM      1  C   LIG    1       -3.582  -1.258   0.029  0.00  0.00    +0.250 C 
ATOM      2  C   LIG    1       -3.972  -1.628  -1.417  0.00  0.00    +0.020 C 
ATOM      3  C   LIG    1       -5.521  -1.663  -1.395  0.00  0.00    +0.010 C 
ATOM      4  C   LIG    1       -5.877  -0.483  -0.457  0.00  0.00    +0.040 C 
ATOM      5  C   LIG    1       -4.792  -0.531   0.639  0.00  0.00    -0.020 C 
ENDROOT
BRANCH   1   7
ATOM      6  C   LIG    1       -1.172  -0.895   0.008  0.00  0.00    +0.600 C 
ATOM      7  N   LIG    1       -2.415  -0.373   0.023  0.00  0.00    -0.740 N 
ATOM      8  H   LIG    1       -2.536   0.589   0.029  0.00  0.00    +0.390 HD
ATOM      9  O   LIG    1       -1.020  -2.102  -0.000  0.00  0.00    -0.530 OA
BRANCH   6  16
ATOM     10  C   LIG    1        1.863  -1.822  -0.026  0.00  0.00    +0.170 C 
ATOM     11  C   LIG    1        1.357  -0.403  -0.013  0.00  0.00    +0.140 A 
ATOM     12  N   LIG    1        2.095   0.673  -0.014  0.00  0.00    -0.300 NA
ATOM     13  N   LIG    1        1.259   1.796  -0.000  0.00  0.00    -0.360 N 
ATOM     14  C   LIG    1       -0.017   1.376   0.010  0.00  0.00    +0.280 A 
ATOM     15  C   LIG    1        1.701   3.192   0.003  0.00  0.00    +0.360 C 
ATOM     16  C   LIG    1        0.002  -0.004   0.002  0.00  0.00    -0.290 A 
ENDBRANCH   6  16
ENDBRANCH   1   7
BRANCH   5  17
ATOM     17  C   LIG    1       -4.398   0.889   1.050  0.00  0.00    +0.330 C 
BRANCH  17  18
ATOM     18  N   LIG    1       -5.523   1.529   1.737  0.00  0.00    -0.290 N 
ATOM     19  C   LIG    1       -5.486   2.085   2.970  0.00  0.00    +0.140 A 
ATOM     20  C   LIG    1       -6.733   2.554   3.209  0.00  0.00    -0.020 A 
ATOM     21  N   LIG    1       -7.462   2.265   2.126  0.00  0.00    -0.260 NA
ATOM     22  N   LIG    1       -6.714   1.663   1.270  0.00  0.00    -0.070 NA
BRANCH  20  23
ATOM     23  C   LIG    1       -7.207   3.262   4.452  0.00  0.00    +0.130 C 
BRANCH  23  24
ATOM     24  C   LIG    1       -7.825   4.608   4.069  0.00  0.00    +0.030 C 
BRANCH  24  25
ATOM     25  C   LIG    1       -8.306   5.327   5.331  0.00  0.00    +0.180 C 
BRANCH  25  26
ATOM     26  O   LIG    1       -8.884   6.584   4.972  0.00  0.00    -0.580 OA
ATOM     27  H   LIG    1       -9.211   7.095   5.725  0.00  0.00    +0.380 HD
ENDBRANCH  25  26
ENDBRANCH  24  25
ENDBRANCH  23  24
ENDBRANCH  20  23
ENDBRANCH  17  18
ENDBRANCH   5  17
TORSDOF 8
