REMARK  Name = ZINCrg000000rEnL.0
REMARK                            x       y       z     vdW  Elec       q    Type
REMARK                         _______ _______ _______ _____ _____    ______ ____
ROOT
ATOM      1  N   LIG    1        4.202   1.129  -1.698  0.00  0.00    -0.720 N 
ATOM      2  H   LIG    1        4.815   0.950  -0.968  0.00  0.00    +0.400 HD
ATOM      3  C   LIG    1        2.932   1.497  -1.438  0.00  0.00    +0.500 C 
ATOM      4  O   LIG    1        2.167   1.721  -2.352  0.00  0.00    -0.520 OA
ENDROOT
BRANCH   1   6
ATOM      5  C   LIG    1        5.103   2.369  -3.604  0.00  0.00    +0.040 C 
ATOM      6  C   LIG    1        4.659   1.001  -3.084  0.00  0.00    +0.290 C 
BRANCH   6   7
ATOM      7  C   LIG    1        5.818   0.040  -3.144  0.00  0.00    -0.090 A 
ATOM      8  C   LIG    1        6.785   0.063  -2.157  0.00  0.00    +0.040 A 
ATOM      9  C   LIG    1        7.851  -0.817  -2.208  0.00  0.00    +0.050 A 
ATOM     10  C   LIG    1        7.951  -1.724  -3.250  0.00  0.00    +0.040 A 
ATOM     11  O   LIG    1        8.884  -2.680  -3.530  0.00  0.00    -0.310 OA
ATOM     12  C   LIG    1        8.690  -3.012  -4.918  0.00  0.00    +0.430 C 
ATOM     13  O   LIG    1        7.299  -2.719  -5.148  0.00  0.00    -0.310 OA
ATOM     14  C   LIG    1        6.977  -1.748  -4.245  0.00  0.00    +0.040 A 
ATOM     15  C   LIG    1        5.909  -0.868  -4.184  0.00  0.00    +0.050 A 
ENDBRANCH   6   7
ENDBRANCH   1   6
BRANCH   3  16
ATOM     16  C   LIG    1        2.463   1.630  -0.012  0.00  0.00    +0.410 C 
BRANCH  16  17
ATOM     17  N   LIG    1        1.056   2.038   0.003  0.00  0.00    -0.460 N 
ATOM     18  N   LIG    1        0.575   3.352   0.015  0.00  0.00    +0.040 NA
ATOM     19  N   LIG    1       -0.661   3.336   0.026  0.00  0.00    +0.030 NA
ATOM     20  N   LIG    1       -1.107   2.008   0.018  0.00  0.00    -0.410 N 
ATOM     21  C   LIG    1       -0.014   1.214   0.009  0.00  0.00    +0.660 A 
ATOM     22  O   LIG    1        0.002  -0.004   0.002  0.00  0.00    -0.510 OA
BRANCH  20  23
ATOM     23  C   LIG    1       -2.442   1.581   0.021  0.00  0.00    +0.160 A 
ATOM     24  C   LIG    1       -2.739   0.225   0.009  0.00  0.00    +0.020 A 
ATOM     25  C   LIG    1       -4.055  -0.192   0.018  0.00  0.00    +0.050 A 
ATOM     26  C   LIG    1       -5.077   0.739   0.027  0.00  0.00    +0.010 A 
ATOM     27  C   LIG    1       -4.785   2.091   0.033  0.00  0.00    +0.040 A 
ATOM     28  C   LIG    1       -3.470   2.514   0.030  0.00  0.00    +0.020 A 
ENDBRANCH  20  23
ENDBRANCH  16  17
ENDBRANCH   3  16
TORSDOF 5
