REMARK  Name = ZINCrD000002GImk.0
REMARK                            x       y       z     vdW  Elec       q    Type
REMARK                         _______ _______ _______ _____ _____    ______ ____
ROOT
ATOM      1  C   LIG    1        0.278  -5.232   0.545  0.00  0.00    +0.240 C 
ENDROOT
BRANCH   1   2
ATOM      2  C   LIG    1        1.272  -5.635  -0.546  0.00  0.00    -0.010 C 
ATOM      3  C   LIG    1        2.593  -6.110   0.092  0.00  0.00    +0.010 C 
ATOM      4  C   LIG    1        3.690  -5.580  -0.865  0.00  0.00    +0.020 C 
ATOM      5  C   LIG    1        3.139  -4.193  -1.281  0.00  0.00    +0.000 C 
ATOM      6  C   LIG    1        1.619  -4.415  -1.419  0.00  0.00    +0.020 C 
ENDBRANCH   1   2
BRANCH   1   7
ATOM      7  N   LIG    1        0.873  -4.193   1.388  0.00  0.00    -0.720 N 
ATOM      8  H   LIG    1        1.729  -4.347   1.817  0.00  0.00    +0.400 HD
ATOM      9  C   LIG    1        0.231  -3.021   1.568  0.00  0.00    +0.560 C 
ATOM     10  O   LIG    1       -0.796  -2.791   0.959  0.00  0.00    -0.510 OA
BRANCH   9  11
ATOM     11  C   LIG    1        0.774  -2.019   2.502  0.00  0.00    -0.130 A 
ATOM     12  C   LIG    1        1.957  -2.277   3.200  0.00  0.00    +0.070 A 
ATOM     13  C   LIG    1        2.456  -1.338   4.077  0.00  0.00    -0.010 A 
ATOM     14  C   LIG    1        1.794  -0.135   4.268  0.00  0.00    +0.060 A 
ATOM     15  C   LIG    1        0.628   0.137   3.582  0.00  0.00    -0.020 A 
ATOM     16  C   LIG    1        0.109  -0.797   2.693  0.00  0.00    -0.040 A 
BRANCH  16  17
ATOM     17  S   LIG    1       -1.379  -0.452   1.815  0.00  0.00    +0.000 S 
ATOM     18  C   LIG    1       -1.829   1.203   2.408  0.00  0.00    +0.070 C 
ENDBRANCH  16  17
ENDBRANCH   9  11
ENDBRANCH   1   7
BRANCH   1  19
ATOM     19  C   LIG    1       -0.060  -6.453   1.403  0.00  0.00    +0.260 C 
BRANCH  19  21
ATOM     20  C   LIG    1       -1.343  -6.960   3.411  0.00  0.00    +0.490 C 
ATOM     21  N   LIG    1       -0.917  -6.045   2.518  0.00  0.00    -0.720 N 
ATOM     22  H   LIG    1       -1.177  -5.115   2.614  0.00  0.00    +0.410 HD
ATOM     23  O   LIG    1       -1.017  -8.122   3.291  0.00  0.00    -0.530 OA
BRANCH  20  24
ATOM     24  C   LIG    1       -2.224  -6.539   4.559  0.00  0.00    +0.120 C 
ATOM     25  C   LIG    1       -1.354  -6.035   5.712  0.00  0.00    +0.080 C 
BRANCH  24  26
ATOM     26  O   LIG    1       -3.099  -5.494   4.129  0.00  0.00    -0.550 OA
ATOM     27  H   LIG    1       -3.682  -5.744   3.399  0.00  0.00    +0.380 HD
ENDBRANCH  24  26
BRANCH  24  28
ATOM     28  C   LIG    1       -3.053  -7.736   5.031  0.00  0.00    +0.020 C 
BRANCH  28  30
ATOM     29  C   LIG    1       -4.776  -8.506   6.668  0.00  0.00    +0.010 C 
ATOM     30  C   LIG    1       -3.947  -7.309   6.196  0.00  0.00    +0.020 C 
ENDBRANCH  28  30
ENDBRANCH  24  28
ENDBRANCH  20  24
ENDBRANCH  19  21
ENDBRANCH   1  19
TORSDOF 10
