REMARK  Name = ZINCwl0000000qm0.1
REMARK                            x       y       z     vdW  Elec       q    Type
REMARK                         _______ _______ _______ _____ _____    ______ ____
ROOT
ATOM      1  C   LIG    1        5.719   3.797   2.910  0.00  0.00    +0.240 C 
ATOM      2  C   LIG    1        5.941   4.082   4.398  0.00  0.00    +0.050 C 
ATOM      3  C   LIG    1        7.439   4.021   4.705  0.00  0.00    +0.270 C 
ATOM      4  N   LIG    1        8.150   5.022   3.901  0.00  0.00    -0.370 N 
ATOM      5  C   LIG    1        8.001   4.712   2.474  0.00  0.00    +0.280 C 
ATOM      6  H   LIG    1        7.766   5.936   4.088  0.00  0.00    +0.430 HD
ATOM      7  C   LIG    1        6.524   4.802   2.081  0.00  0.00    +0.070 C 
ENDROOT
BRANCH   1   9
ATOM      8  C   LIG    1        3.463   2.887   2.780  0.00  0.00    +0.530 C 
ATOM      9  N   LIG    1        4.295   3.930   2.593  0.00  0.00    -0.730 N 
ATOM     10  H   LIG    1        3.951   4.769   2.248  0.00  0.00    +0.410 HD
ATOM     11  O   LIG    1        3.892   1.838   3.211  0.00  0.00    -0.530 OA
BRANCH   8  12
ATOM     12  C   LIG    1        1.998   3.024   2.454  0.00  0.00    +0.050 C 
BRANCH  12  13
ATOM     13  C   LIG    1        1.283   1.705   2.756  0.00  0.00    +0.350 C 
BRANCH  13  20
ATOM     14  C   LIG    1       -0.013   1.086   0.008  0.00  0.00    +0.150 C 
ATOM     15  C   LIG    1       -0.718   1.572   1.248  0.00  0.00    +0.080 A 
ATOM     16  C   LIG    1       -2.042   1.825   1.365  0.00  0.00    -0.120 A 
ATOM     17  C   LIG    1       -2.284   2.253   2.675  0.00  0.00    +0.080 A 
ATOM     18  N   LIG    1       -1.145   2.264   3.318  0.00  0.00    -0.300 NA
ATOM     19  C   LIG    1       -3.625   2.639   3.244  0.00  0.00    +0.150 C 
ATOM     20  N   LIG    1       -0.141   1.838   2.438  0.00  0.00    -0.380 N 
ENDBRANCH  13  20
ENDBRANCH  12  13
ENDBRANCH   8  12
ENDBRANCH   1   9
BRANCH   4  21
ATOM     21  C   LIG    1        9.575   5.010   4.257  0.00  0.00    +0.290 C 
BRANCH  21  22
ATOM     22  C   LIG    1        9.739   5.447   5.689  0.00  0.00    +0.500 C 
ATOM     23  N   LIG    1       10.969   5.513   6.237  0.00  0.00    -0.590 N 
ATOM     24  C   LIG    1       12.165   5.156   5.459  0.00  0.00    +0.260 C 
ATOM     25  C   LIG    1       12.998   4.163   6.270  0.00  0.00    +0.250 C 
ATOM     26  O   LIG    1       13.226   4.695   7.577  0.00  0.00    -0.360 OA
ATOM     27  C   LIG    1       12.035   4.901   8.341  0.00  0.00    +0.260 C 
ATOM     28  C   LIG    1       11.154   5.937   7.634  0.00  0.00    +0.310 C 
ATOM     29  O   LIG    1        8.765   5.740   6.349  0.00  0.00    -0.520 OA
BRANCH  27  30
ATOM     30  C   LIG    1       12.398   5.402   9.716  0.00  0.00    +0.020 A 
ATOM     31  N   LIG    1       11.885   4.972  10.818  0.00  0.00    -0.460 NA
ATOM     32  C   LIG    1       12.316   5.520  11.936  0.00  0.00    +0.220 A 
ATOM     33  C   LIG    1       13.245   6.466  11.767  0.00  0.00    -0.060 A 
ATOM     34  S   LIG    1       13.554   6.619  10.039  0.00  0.00    +0.180 S 
ENDBRANCH  27  30
ENDBRANCH  21  22
ENDBRANCH   4  21
TORSDOF 7
