REMARK  Name = ZINCrH000004rQNZ.0
REMARK                            x       y       z     vdW  Elec       q    Type
REMARK                         _______ _______ _______ _____ _____    ______ ____
ROOT
ATOM      1  N   LIG    1       -0.859   2.868  -6.053  0.00  0.00    -0.500 N 
ATOM      2  C   LIG    1        0.441   2.253  -5.753  0.00  0.00    +0.180 C 
ATOM      3  C   LIG    1        0.230   1.033  -4.851  0.00  0.00    +0.300 C 
ATOM      4  N   LIG    1       -0.546   1.451  -3.674  0.00  0.00    -0.620 N 
ATOM      5  C   LIG    1       -1.799   2.190  -3.893  0.00  0.00    +0.280 C 
ATOM      6  C   LIG    1       -0.123   1.160  -2.428  0.00  0.00    +0.520 C 
ATOM      7  O   LIG    1        0.910   0.546  -2.266  0.00  0.00    -0.540 OA
ATOM      8  C   LIG    1       -1.505   3.370  -4.833  0.00  0.00    +0.180 C 
ENDROOT
BRANCH   1  14
ATOM      9  C   LIG    1       -1.859   4.629 -10.531  0.00  0.00    +0.090 C 
ATOM     10  C   LIG    1       -1.200   4.764  -9.182  0.00  0.00    -0.080 A 
ATOM     11  C   LIG    1       -0.463   5.895  -8.884  0.00  0.00    +0.000 A 
ATOM     12  C   LIG    1        0.143   6.023  -7.648  0.00  0.00    +0.010 A 
ATOM     13  C   LIG    1        0.009   5.024  -6.704  0.00  0.00    -0.030 A 
ATOM     14  C   LIG    1       -0.726   3.883  -7.003  0.00  0.00    +0.080 A 
ATOM     15  C   LIG    1       -1.333   3.758  -8.246  0.00  0.00    -0.060 A 
ATOM     16  C   LIG    1       -2.137   2.525  -8.572  0.00  0.00    +0.100 C 
ENDBRANCH   1  14
BRANCH   6  17
ATOM     17  C   LIG    1       -0.934   1.598  -1.235  0.00  0.00    +0.070 C 
BRANCH  17  18
ATOM     18  C   LIG    1       -0.238   1.145   0.049  0.00  0.00    +0.070 C 
BRANCH  18  19
ATOM     19  C   LIG    1       -1.049   1.583   1.242  0.00  0.00    +0.400 C 
ATOM     20  O   LIG    1       -2.082   2.197   1.080  0.00  0.00    -0.450 OA
BRANCH  19  21
ATOM     21  C   LIG    1       -0.588   1.266   2.601  0.00  0.00    -0.190 A 
ATOM     22  C   LIG    1        0.601   0.552   2.791  0.00  0.00    +0.110 A 
ATOM     23  C   LIG    1        1.029   0.262   4.068  0.00  0.00    -0.030 A 
ATOM     24  C   LIG    1        0.281   0.667   5.163  0.00  0.00    +0.130 A 
ATOM     25  C   LIG    1       -0.901   1.371   4.981  0.00  0.00    -0.030 A 
ATOM     26  F   LIG    1        0.704   0.375   6.412  0.00  0.00    -0.130 F 
ATOM     27  C   LIG    1       -1.339   1.671   3.710  0.00  0.00    +0.120 A 
ENDBRANCH  19  21
ENDBRANCH  18  19
ENDBRANCH  17  18
ENDBRANCH   6  17
TORSDOF 5
