REMARK  Name = ZINCrH000004ualL.0
REMARK                            x       y       z     vdW  Elec       q    Type
REMARK                         _______ _______ _______ _____ _____    ______ ____
ROOT
ATOM      1  O   LIG    1        1.267   3.920   0.738  0.00  0.00    -0.570 OA
ATOM      2  C   LIG    1        2.248   3.218   0.584  0.00  0.00    +0.700 C 
ATOM      3  N   LIG    1        3.442   3.779   0.306  0.00  0.00    -0.690 N 
ATOM      4  H   LIG    1        4.235   3.224   0.246  0.00  0.00    +0.410 HD
ATOM      5  N   LIG    1        2.141   1.879   0.690  0.00  0.00    -0.730 N 
ATOM      6  H   LIG    1        2.923   1.318   0.567  0.00  0.00    +0.400 HD
ENDROOT
BRANCH   3   7
ATOM      7  C   LIG    1        3.536   5.161   0.106  0.00  0.00    +0.160 A 
ATOM      8  C   LIG    1        4.435   5.668  -0.825  0.00  0.00    +0.010 A 
ATOM      9  C   LIG    1        4.528   7.032  -1.030  0.00  0.00    +0.020 A 
ATOM     10  C   LIG    1        3.737   7.899  -0.306  0.00  0.00    +0.020 A 
ATOM     11  C   LIG    1        2.834   7.400   0.635  0.00  0.00    -0.110 A 
ATOM     12  C   LIG    1        2.736   6.024   0.839  0.00  0.00    +0.090 A 
BRANCH  11  13
ATOM     13  C   LIG    1        1.985   8.327   1.413  0.00  0.00    +0.570 C 
ATOM     14  N   LIG    1        2.194   9.657   1.337  0.00  0.00    -0.620 N 
ATOM     15  C   LIG    1        3.153  10.324   0.445  0.00  0.00    +0.250 C 
ATOM     16  C   LIG    1        3.061  11.839   0.724  0.00  0.00    +0.030 C 
ATOM     17  C   LIG    1        2.472  11.891   2.158  0.00  0.00    +0.040 C 
ATOM     18  C   LIG    1        1.503  10.682   2.141  0.00  0.00    +0.250 C 
ATOM     19  O   LIG    1        1.098   7.891   2.120  0.00  0.00    -0.530 OA
ENDBRANCH  11  13
ENDBRANCH   3   7
BRANCH   5  20
ATOM     20  C   LIG    1        0.843   1.269   0.992  0.00  0.00    +0.330 C 
BRANCH  20  21
ATOM     21  C   LIG    1        1.021  -0.238   1.188  0.00  0.00    -0.110 C 
ATOM     22  C   LIG    1        0.346  -1.166   0.176  0.00  0.00    +0.030 C 
ATOM     23  C   LIG    1       -0.212  -1.047   1.595  0.00  0.00    +0.050 C 
BRANCH  21  24
ATOM     24  C   LIG    1        2.352  -0.668   1.748  0.00  0.00    -0.050 A 
ATOM     25  C   LIG    1        3.215  -1.422   0.976  0.00  0.00    +0.000 A 
ATOM     26  C   LIG    1        4.439  -1.812   1.488  0.00  0.00    +0.000 A 
ATOM     27  C   LIG    1        4.794  -1.457   2.776  0.00  0.00    +0.000 A 
ATOM     28  C   LIG    1        3.928  -0.708   3.550  0.00  0.00    +0.000 A 
ATOM     29  C   LIG    1        2.707  -0.313   3.036  0.00  0.00    +0.020 A 
ENDBRANCH  21  24
ENDBRANCH  20  21
ENDBRANCH   5  20
TORSDOF 5
