REMARK  Name = ZINCrH00000tj1c1.0
REMARK                            x       y       z     vdW  Elec       q    Type
REMARK                         _______ _______ _______ _____ _____    ______ ____
ROOT
ATOM      1  O   LIG    1       -0.922   2.186   3.314  0.00  0.00    -0.510 OA
ATOM      2  C   LIG    1       -0.223   1.771   2.415  0.00  0.00    +0.550 C 
ATOM      3  N   LIG    1       -0.746   1.583   1.187  0.00  0.00    -0.610 N 
ATOM      4  C   LIG    1       -0.013   1.086   0.008  0.00  0.00    +0.250 C 
ATOM      5  C   LIG    1       -0.806   1.621  -1.210  0.00  0.00    +0.040 C 
ATOM      6  C   LIG    1       -2.269   1.504  -0.705  0.00  0.00    +0.050 C 
ATOM      7  C   LIG    1       -2.143   1.837   0.797  0.00  0.00    +0.270 C 
ENDROOT
BRANCH   7   8
ATOM      8  C   LIG    1       -3.067   0.955   1.597  0.00  0.00    -0.080 A 
ATOM      9  C   LIG    1       -2.710  -0.354   1.862  0.00  0.00    +0.020 A 
ATOM     10  C   LIG    1       -3.551  -1.168   2.601  0.00  0.00    +0.010 A 
ATOM     11  C   LIG    1       -4.756  -0.670   3.063  0.00  0.00    +0.070 A 
ATOM     12  O   LIG    1       -5.597  -1.464   3.788  0.00  0.00    -0.320 OA
ATOM     13  C   LIG    1       -5.758  -1.112   5.164  0.00  0.00    +0.220 C 
ATOM     14  C   LIG    1       -6.819  -0.034   5.324  0.00  0.00    -0.020 C 
ATOM     15  C   LIG    1       -6.415   1.277   4.668  0.00  0.00    +0.230 C 
ATOM     16  O   LIG    1       -6.309   1.123   3.251  0.00  0.00    -0.320 OA
ATOM     17  C   LIG    1       -5.117   0.642   2.791  0.00  0.00    +0.070 A 
ATOM     18  C   LIG    1       -4.271   1.456   2.058  0.00  0.00    +0.030 A 
ENDBRANCH   7   8
BRANCH   2  19
ATOM     19  C   LIG    1        1.231   1.468   2.669  0.00  0.00    -0.050 C 
ATOM     20  C   LIG    1        1.556   0.276   3.572  0.00  0.00    +0.070 C 
ATOM     21  C   LIG    1        1.764   1.703   4.084  0.00  0.00    +0.040 C 
BRANCH  21  22
ATOM     22  C   LIG    1        0.796   2.221   5.116  0.00  0.00    -0.010 A 
ATOM     23  C   LIG    1       -0.344   1.502   5.443  0.00  0.00    +0.020 A 
ATOM     24  C   LIG    1       -1.207   2.006   6.398  0.00  0.00    +0.230 A 
ATOM     25  N   LIG    1       -0.961   3.160   6.987  0.00  0.00    -0.490 NA
ATOM     26  C   LIG    1        0.109   3.873   6.697  0.00  0.00    +0.240 A 
ATOM     27  C   LIG    1        1.020   3.430   5.756  0.00  0.00    -0.030 A 
ENDBRANCH  21  22
ENDBRANCH   2  19
TORSDOF 3
