REMARK  Name = ZINCpe000000UbEY.0
REMARK                            x       y       z     vdW  Elec       q    Type
REMARK                         _______ _______ _______ _____ _____    ______ ____
ROOT
ATOM      1  C   LIG    1       -7.819   0.335   1.493  0.00  0.00    +0.270 A 
ATOM      2  N   LIG    1       -6.929  -0.618   1.407  0.00  0.00    -0.320 NA
ATOM      3  N   LIG    1       -7.444  -1.750   1.729  0.00  0.00    -0.030 NA
ATOM      4  N   LIG    1       -8.685  -1.600   2.045  0.00  0.00    -0.070 NA
ATOM      5  N   LIG    1       -8.977  -0.232   1.896  0.00  0.00    -0.340 N 
ENDROOT
BRANCH   5   6
ATOM      6  C   LIG    1      -10.205   0.407   2.123  0.00  0.00    +0.190 A 
ATOM      7  C   LIG    1      -11.383  -0.169   1.667  0.00  0.00    +0.040 A 
ATOM      8  C   LIG    1      -12.591   0.462   1.893  0.00  0.00    +0.160 A 
ATOM      9  C   LIG    1      -12.627   1.666   2.572  0.00  0.00    -0.650 A 
ATOM     10  C   LIG    1      -11.454   2.244   3.022  0.00  0.00    +0.160 A 
ATOM     11  C   LIG    1      -10.244   1.616   2.804  0.00  0.00    +0.010 A 
BRANCH   9  12
ATOM     12  S   LIG    1      -14.169   2.468   2.858  0.00  0.00    +2.500 S 
ATOM     13  O   LIG    1      -13.832   3.844   2.976  0.00  0.00    -0.930 OA
ATOM     14  O   LIG    1      -15.005   2.007   1.805  0.00  0.00    -0.930 OA
ATOM     15  C   LIG    1      -14.733   1.811   4.452  0.00  0.00    -0.250 C 
ENDBRANCH   9  12
ENDBRANCH   5   6
BRANCH   1  16
ATOM     16  C   LIG    1       -7.596   1.796   1.196  0.00  0.00    +0.310 C 
BRANCH  16  21
ATOM     17  C   LIG    1       -7.844   3.518  -0.499  0.00  0.00    +0.100 C 
ATOM     18  C   LIG    1       -7.402   3.630  -1.970  0.00  0.00    +0.040 C 
ATOM     19  C   LIG    1       -7.264   2.171  -2.462  0.00  0.00    +0.020 C 
ATOM     20  C   LIG    1       -7.075   1.377  -1.145  0.00  0.00    +0.180 C 
ATOM     21  N   LIG    1       -7.977   2.077  -0.195  0.00  0.00    -0.500 NA
BRANCH  17  23
ATOM     22  C   LIG    1       -9.020   5.723  -0.522  0.00  0.00    +0.020 C 
ATOM     23  C   LIG    1       -9.191   4.218  -0.305  0.00  0.00    +0.040 C 
ENDBRANCH  17  23
BRANCH  17  24
ATOM     24  C   LIG    1       -6.789   4.149   0.411  0.00  0.00    +0.160 C 
BRANCH  24  25
ATOM     25  O   LIG    1       -5.524   3.526   0.177  0.00  0.00    -0.570 OA
ATOM     26  H   LIG    1       -4.806   3.877   0.722  0.00  0.00    +0.380 HD
ENDBRANCH  24  25
ENDBRANCH  17  24
ENDBRANCH  16  21
ENDBRANCH   1  16
TORSDOF 7
