REMARK  Name = ZINCqH0000007XPW.0
REMARK                            x       y       z     vdW  Elec       q    Type
REMARK                         _______ _______ _______ _____ _____    ______ ____
ROOT
ATOM      1  N   LIG    1        2.401   1.105  -0.014  0.00  0.00    -0.950 N 
ENDROOT
BRANCH   1   2
ATOM      2  C   LIG    1        1.179   1.786   0.000  0.00  0.00    +0.100 A 
ATOM      3  C   LIG    1       -0.013   1.076   0.008  0.00  0.00    +0.070 A 
ATOM      4  C   LIG    1       -1.218   1.751   0.017  0.00  0.00    +0.030 A 
ATOM      5  C   LIG    1       -1.239   3.134   0.030  0.00  0.00    +0.000 A 
ATOM      6  C   LIG    1       -0.052   3.847   0.022  0.00  0.00    +0.000 A 
ATOM      7 CL   LIG    1       -2.756   3.978   0.050  0.00  0.00    -0.050 Cl
ATOM      8  C   LIG    1        1.157   3.177   0.008  0.00  0.00    +0.150 A 
ATOM      9  F   LIG    1        2.315   3.873  -0.000  0.00  0.00    -0.120 F 
ENDBRANCH   1   2
BRANCH   1  11
ATOM     10  C   LIG    1        2.656  -0.858   1.887  0.00  0.00    -0.280 C 
ATOM     11  S   LIG    1        3.199   0.805   1.406  0.00  0.00    +2.590 S 
ATOM     12  O   LIG    1        2.687   1.776   2.308  0.00  0.00    -0.940 OA
ATOM     13  O   LIG    1        4.572   0.795   1.042  0.00  0.00    -0.930 OA
ENDBRANCH   1  11
BRANCH   1  14
ATOM     14  C   LIG    1        2.976   0.658  -1.285  0.00  0.00    +0.420 C 
BRANCH  14  15
ATOM     15  C   LIG    1        3.761   1.784  -1.906  0.00  0.00    +0.060 A 
ATOM     16  N   LIG    1        3.272   2.739  -2.656  0.00  0.00    -0.270 NA
ATOM     17  N   LIG    1        4.324   3.584  -3.031  0.00  0.00    -0.320 N 
ATOM     18  C   LIG    1        5.461   3.103  -2.479  0.00  0.00    +0.230 A 
ATOM     19  C   LIG    1        5.138   1.994  -1.774  0.00  0.00    -0.070 A 
BRANCH  17  20
ATOM     20  C   LIG    1        4.217   4.727  -3.837  0.00  0.00    +0.150 A 
ATOM     21  C   LIG    1        5.346   5.480  -4.128  0.00  0.00    +0.030 A 
ATOM     22  C   LIG    1        5.240   6.602  -4.926  0.00  0.00    +0.030 A 
ATOM     23  C   LIG    1        4.006   6.983  -5.427  0.00  0.00    +0.090 A 
ATOM     24  C   LIG    1        2.878   6.236  -5.133  0.00  0.00    +0.020 A 
ATOM     25  F   LIG    1        3.904   8.084  -6.202  0.00  0.00    -0.130 F 
ATOM     26  C   LIG    1        2.981   5.110  -4.340  0.00  0.00    +0.060 A 
ENDBRANCH  17  20
ENDBRANCH  14  15
ENDBRANCH   1  14
TORSDOF 5
