REMARK  Name = ZINCqH0000003b1J.0
REMARK                            x       y       z     vdW  Elec       q    Type
REMARK                         _______ _______ _______ _____ _____    ______ ____
ROOT
ATOM      1  N   LIG    1        0.113  -4.284  -0.124  0.00  0.00    -0.630 N 
ATOM      2  H   LIG    1        0.974  -4.723  -0.209  0.00  0.00    +0.420 HD
ATOM      3  C   LIG    1        0.049  -2.942  -0.014  0.00  0.00    +0.560 C 
ATOM      4  O   LIG    1       -1.030  -2.391   0.092  0.00  0.00    -0.460 OA
ENDROOT
BRANCH   3   5
ATOM      5  C   LIG    1        1.287  -2.142  -0.022  0.00  0.00    -0.120 A 
ATOM      6  C   LIG    1        2.525  -2.762  -0.021  0.00  0.00    +0.100 A 
ATOM      7  C   LIG    1        3.702  -2.000  -0.028  0.00  0.00    -0.040 A 
ATOM      8  C   LIG    1        3.663  -0.615  -0.037  0.00  0.00    +0.150 A 
ATOM      9  C   LIG    1        2.435   0.061  -0.039  0.00  0.00    -0.070 A 
ATOM     10  C   LIG    1        2.378   1.466  -0.048  0.00  0.00    +0.040 A 
ATOM     11  C   LIG    1        1.168   2.091  -0.051  0.00  0.00    +0.020 A 
ATOM     12  C   LIG    1       -0.017   1.360  -0.043  0.00  0.00    +0.040 A 
ATOM     13  C   LIG    1        0.002  -0.004  -0.034  0.00  0.00    +0.050 A 
ATOM     14  C   LIG    1        1.227  -0.680  -0.032  0.00  0.00    +0.010 A 
BRANCH   7  15
ATOM     15  C   LIG    1        4.970  -2.667  -0.026  0.00  0.00    +0.250 C 
ATOM     16  N   LIG    1        5.975  -3.195  -0.024  0.00  0.00    -0.400 NA
ENDBRANCH   7  15
ENDBRANCH   3   5
BRANCH   1  23
ATOM     17  N   LIG    1       -5.128  -7.434   0.320  0.00  0.00    -0.520 NA
ATOM     18  C   LIG    1       -5.572  -6.214  -0.370  0.00  0.00    +0.220 C 
ATOM     19  C   LIG    1       -4.729  -5.023   0.097  0.00  0.00    +0.100 C 
ATOM     20  C   LIG    1       -3.260  -5.408  -0.018  0.00  0.00    +0.100 A 
ATOM     21  C   LIG    1       -2.873  -6.691  -0.142  0.00  0.00    -0.280 A 
ATOM     22  S   LIG    1       -1.119  -6.741  -0.248  0.00  0.00    +0.140 S 
ATOM     23  C   LIG    1       -1.054  -5.037  -0.117  0.00  0.00    +0.270 A 
ATOM     24  N   LIG    1       -2.248  -4.553  -0.004  0.00  0.00    -0.470 NA
ATOM     25  C   LIG    1       -3.814  -7.871  -0.178  0.00  0.00    +0.320 C 
BRANCH  17  27
ATOM     26  C   LIG    1       -4.877  -8.580   2.469  0.00  0.00    +0.030 C 
ATOM     27  C   LIG    1       -5.101  -7.235   1.775  0.00  0.00    +0.160 C 
ENDBRANCH  17  27
ENDBRANCH   1  23
TORSDOF 4
