REMARK  Name = ZINCvU0000000G6z.0
REMARK                            x       y       z     vdW  Elec       q    Type
REMARK                         _______ _______ _______ _____ _____    ______ ____
ROOT
ATOM      1  C   LIG    1        5.576   4.925  -2.436  0.00  0.00    +0.360 C 
ENDROOT
BRANCH   1   2
ATOM      2  C   LIG    1        4.686   6.134  -2.559  0.00  0.00    -0.080 A 
ATOM      3  C   LIG    1        4.606   7.042  -1.520  0.00  0.00    +0.060 A 
ATOM      4  C   LIG    1        3.793   8.155  -1.635  0.00  0.00    +0.020 A 
ATOM      5  C   LIG    1        3.052   8.354  -2.784  0.00  0.00    +0.030 A 
ATOM      6  C   LIG    1        3.127   7.444  -3.822  0.00  0.00    +0.020 A 
ATOM      7  C   LIG    1        3.945   6.334  -3.710  0.00  0.00    -0.020 A 
ATOM      8 CL   LIG    1        4.040   5.191  -5.013  0.00  0.00    -0.070 Cl
ENDBRANCH   1   2
BRANCH   1  14
ATOM      9  C   LIG    1        7.878   5.854  -2.792  0.00  0.00    +0.150 A 
ATOM     10  C   LIG    1        9.011   6.031  -3.573  0.00  0.00    -0.070 A 
ATOM     11  C   LIG    1        9.070   5.476  -4.837  0.00  0.00    +0.060 A 
ATOM     12  C   LIG    1        8.002   4.745  -5.323  0.00  0.00    -0.020 A 
ATOM     13  C   LIG    1        6.875   4.561  -4.544  0.00  0.00    +0.050 A 
ATOM     14  C   LIG    1        6.808   5.119  -3.282  0.00  0.00    -0.130 A 
BRANCH   9  16
ATOM     15  C   LIG    1        8.955   7.142  -1.109  0.00  0.00    +0.250 C 
ATOM     16  O   LIG    1        7.817   6.399  -1.548  0.00  0.00    -0.310 OA
ENDBRANCH   9  16
ENDBRANCH   1  14
BRANCH   1  17
ATOM     17  N   LIG    1        4.851   3.736  -2.894  0.00  0.00    -0.710 N 
ATOM     18  H   LIG    1        4.952   3.430  -3.809  0.00  0.00    +0.400 HD
ATOM     19  C   LIG    1        4.045   3.070  -2.045  0.00  0.00    +0.610 C 
ATOM     20  O   LIG    1        3.919   3.454  -0.898  0.00  0.00    -0.520 OA
BRANCH  19  21
ATOM     21  C   LIG    1        3.316   1.874  -2.506  0.00  0.00    -0.260 A 
ATOM     22  C   LIG    1        2.457   1.069  -1.798  0.00  0.00    +0.060 A 
ATOM     23  O   LIG    1        2.047   0.122  -2.645  0.00  0.00    +0.100 OA
ATOM     24  N   LIG    1        2.527   0.230  -3.746  0.00  0.00    -0.350 NA
ATOM     25  C   LIG    1        3.330   1.248  -3.837  0.00  0.00    +0.220 A 
BRANCH  22  26
ATOM     26  C   LIG    1        2.054   1.227  -0.354  0.00  0.00    +0.210 C 
BRANCH  26  27
ATOM     27  C   LIG    1        0.831   2.103  -0.268  0.00  0.00    -0.090 A 
ATOM     28  C   LIG    1       -0.429   1.538  -0.317  0.00  0.00    +0.010 A 
ATOM     29  C   LIG    1       -1.551   2.343  -0.243  0.00  0.00    +0.000 A 
ATOM     30  C   LIG    1       -1.412   3.712  -0.109  0.00  0.00    +0.010 A 
ATOM     31  C   LIG    1       -0.151   4.277  -0.059  0.00  0.00    +0.000 A 
ATOM     32  C   LIG    1        0.970   3.473  -0.138  0.00  0.00    +0.040 A 
ENDBRANCH  26  27
ENDBRANCH  22  26
ENDBRANCH  19  21
ENDBRANCH   1  17
TORSDOF 7
