REMARK  Name = ZINCrD00000F5Ltc.0
REMARK                            x       y       z     vdW  Elec       q    Type
REMARK                         _______ _______ _______ _____ _____    ______ ____
ROOT
ATOM      1  C   LIG    1        1.030   3.512   0.011  0.00  0.00    +0.530 C 
ATOM      2  N   LIG    1        2.088   4.347   0.005  0.00  0.00    -0.580 N 
ATOM      3  H   LIG    1        2.989   3.989  -0.005  0.00  0.00    +0.390 HD
ATOM      4  O   LIG    1       -0.097   3.960   0.024  0.00  0.00    -0.470 OA
ENDROOT
BRANCH   2   5
ATOM      5  N   LIG    1        1.885   5.734   0.015  0.00  0.00    -0.220 NA
ATOM      6  C   LIG    1        2.904   6.538   0.009  0.00  0.00    +0.140 C 
ATOM      7  C   LIG    1        4.304   5.981  -0.007  0.00  0.00    +0.090 C 
BRANCH   6   8
ATOM      8  C   LIG    1        2.691   7.997   0.019  0.00  0.00    -0.060 A 
ATOM      9  C   LIG    1        3.786   8.865   0.019  0.00  0.00    +0.080 A 
ATOM     10  C   LIG    1        3.583  10.228   0.022  0.00  0.00    +0.000 A 
ATOM     11  C   LIG    1        2.291  10.739   0.037  0.00  0.00    +0.150 A 
ATOM     12  C   LIG    1        1.199   9.879   0.044  0.00  0.00    +0.000 A 
ATOM     13  C   LIG    1        1.393   8.515   0.035  0.00  0.00    +0.100 A 
BRANCH  11  14
ATOM     14  N   LIG    1        2.088  12.125   0.047  0.00  0.00    -0.410 N 
ATOM     15  C   LIG    1        3.061  13.091   0.048  0.00  0.00    +0.130 A 
ATOM     16  C   LIG    1        2.430  14.281   0.056  0.00  0.00    +0.160 A 
ATOM     17  N   LIG    1        1.108  14.053   0.068  0.00  0.00    -0.480 NA
ATOM     18  C   LIG    1        0.891  12.767   0.062  0.00  0.00    +0.400 A 
ENDBRANCH  11  14
ENDBRANCH   6   8
ENDBRANCH   2   5
BRANCH   1  19
ATOM     19  C   LIG    1        1.248   2.021   0.001  0.00  0.00    +0.250 C 
BRANCH  19  20
ATOM     20  O   LIG    1       -0.016   1.355   0.009  0.00  0.00    -0.290 OA
BRANCH  20  24
ATOM     21  C   LIG    1        0.040  -2.770  -0.013  0.00  0.00    -0.120 A 
ATOM     22  C   LIG    1       -1.168  -2.096   0.002  0.00  0.00    +0.050 A 
ATOM     23  C   LIG    1       -1.189  -0.715   0.010  0.00  0.00    -0.010 A 
ATOM     24  C   LIG    1        0.002  -0.004   0.002  0.00  0.00    +0.120 A 
ATOM     25  C   LIG    1        1.212  -0.682  -0.019  0.00  0.00    -0.080 A 
ATOM     26  C   LIG    1        1.228  -2.064  -0.021  0.00  0.00    +0.050 A 
BRANCH  21  28
ATOM     27  C   LIG    1        0.053  -4.779  -1.466  0.00  0.00    +0.020 C 
ATOM     28  C   LIG    1        0.060  -4.277  -0.021  0.00  0.00    +0.060 C 
ENDBRANCH  21  28
ENDBRANCH  20  24
ENDBRANCH  19  20
ENDBRANCH   1  19
TORSDOF 7
