REMARK  Name = ZINCqH0000067Z7z.0
REMARK                            x       y       z     vdW  Elec       q    Type
REMARK                         _______ _______ _______ _____ _____    ______ ____
ROOT
ATOM      1  N   LIG    1       -2.539   5.229   0.056  0.00  0.00    -0.680 N 
ATOM      2  H   LIG    1       -1.722   5.752   0.051  0.00  0.00    +0.420 HD
ENDROOT
BRANCH   1   3
ATOM      3  C   LIG    1       -2.477   3.852   0.046  0.00  0.00    +0.480 A 
ATOM      4  N   LIG    1       -3.582   3.120   0.052  0.00  0.00    -0.580 NA
ATOM      5  C   LIG    1       -3.536   1.797   0.044  0.00  0.00    +0.300 A 
ATOM      6  N   LIG    1       -2.411   1.123   0.030  0.00  0.00    -0.520 NA
ATOM      7  C   LIG    1       -1.233   1.764   0.018  0.00  0.00    +0.190 A 
ATOM      8  C   LIG    1       -0.013   1.076   0.008  0.00  0.00    +0.040 A 
ATOM      9  C   LIG    1        1.156   1.778   0.001  0.00  0.00    +0.070 A 
ATOM     10  C   LIG    1        1.157   3.170   0.008  0.00  0.00    +0.000 A 
ATOM     11  C   LIG    1       -0.013   3.871   0.024  0.00  0.00    +0.060 A 
ATOM     12  C   LIG    1       -1.230   3.180   0.032  0.00  0.00    -0.190 A 
BRANCH   5  13
ATOM     13  C   LIG    1       -4.834   1.032   0.052  0.00  0.00    +0.490 C 
ATOM     14  F   LIG    1       -5.809   1.775   0.725  0.00  0.00    -0.180 F 
ATOM     15  F   LIG    1       -4.649  -0.193   0.702  0.00  0.00    -0.180 F 
ENDBRANCH   5  13
ENDBRANCH   1   3
BRANCH   1  16
ATOM     16  CA  LIG    1       -3.840   5.903   0.071  0.00  0.00    +0.310 C 
BRANCH  16  21
ATOM     17  C   LIG    1       -4.551   9.049  -1.900  0.00  0.00    +0.210 A 
ATOM     18  C   LIG    1       -3.430   9.815  -1.608  0.00  0.00    -0.070 A 
ATOM     19  C   LIG    1       -2.449   9.312  -0.776  0.00  0.00    +0.050 A 
ATOM     20  C   LIG    1       -2.586   8.049  -0.229  0.00  0.00    -0.030 A 
ATOM     21  C   LIG    1       -3.698   7.282  -0.522  0.00  0.00    -0.050 A 
ATOM     22  C   LIG    1       -4.683   7.779  -1.353  0.00  0.00    -0.060 A 
BRANCH  17  24
ATOM     23  C   LIG    1       -6.728   8.747  -3.047  0.00  0.00    +0.260 C 
ATOM     24  N   LIG    1       -5.545   9.556  -2.740  0.00  0.00    -0.640 N 
ATOM     25  C   LIG    1       -5.405  10.896  -3.316  0.00  0.00    +0.280 C 
ENDBRANCH  17  24
ENDBRANCH  16  21
BRANCH  16  26
ATOM     26  C   LIG    1       -4.338   6.018   1.513  0.00  0.00    +0.190 C 
BRANCH  26  27
ATOM     27  O   LIG    1       -3.461   6.870   2.254  0.00  0.00    -0.570 OA
ATOM     28  H   LIG    1       -3.717   6.988   3.179  0.00  0.00    +0.380 HD
ENDBRANCH  26  27
ENDBRANCH  16  26
ENDBRANCH   1  16
TORSDOF 7
