REMARK  Name = ZINCfA000000blq9.0
REMARK                            x       y       z     vdW  Elec       q    Type
REMARK                         _______ _______ _______ _____ _____    ______ ____
ROOT
ATOM      1  N   LIG    1        2.947   1.085  -1.405  0.00  0.00    -0.510 N 
ATOM      2  H   LIG    1        2.931   1.977  -1.876  0.00  0.00    +0.430 HD
ATOM      3  H   LIG    1        2.328   0.444  -1.879  0.00  0.00    +0.430 HD
ENDROOT
BRANCH   1   7
ATOM      4  C   LIG    1        6.629  -0.469  -4.324  0.00  0.00    +0.080 C 
ATOM      5  C   LIG    1        6.184  -0.231  -2.879  0.00  0.00    +0.160 C 
ATOM      6  C   LIG    1        4.732   0.254  -2.865  0.00  0.00    +0.020 C 
ATOM      7  C   LIG    1        4.314   0.547  -1.421  0.00  0.00    +0.160 C 
ATOM      8  C   LIG    1        5.276   1.575  -0.819  0.00  0.00    +0.020 C 
ATOM      9  C   LIG    1        6.707   1.040  -0.914  0.00  0.00    +0.250 C 
ATOM     10  O   LIG    1        7.022   0.759  -2.279  0.00  0.00    -0.370 OA
ENDBRANCH   1   7
BRANCH   1  11
ATOM     11  C   LIG    1        2.504   1.257  -0.015  0.00  0.00    +0.370 C 
BRANCH  11  12
ATOM     12  C   LIG    1        1.102   1.809   0.001  0.00  0.00    -0.290 A 
ATOM     13  C   LIG    1       -0.013   1.076   0.008  0.00  0.00    +0.110 A 
ATOM     14  C   LIG    1       -1.190   1.805   0.017  0.00  0.00    -0.140 A 
ATOM     15  C   LIG    1       -1.030   3.129   0.028  0.00  0.00    +0.060 A 
ATOM     16  I   LIG    1       -3.078   0.896   0.021  0.00  0.00    +0.020 I 
ATOM     17  S   LIG    1        0.685   3.517   0.014  0.00  0.00    +0.190 S 
ENDBRANCH  11  12
ENDBRANCH   1  11
TORSDOF 3
