REMARK  Name = ZINCpk00000e9C36.0
REMARK                            x       y       z     vdW  Elec       q    Type
REMARK                         _______ _______ _______ _____ _____    ______ ____
ROOT
ATOM      1  C   LIG    1        5.006  -0.325  -0.107  0.00  0.00    +0.360 C 
ATOM      2  C   LIG    1        5.826  -1.121   0.920  0.00  0.00    +0.040 C 
ATOM      3  C   LIG    1        5.817  -2.602   0.533  0.00  0.00    -0.010 C 
ATOM      4  C   LIG    1        4.380  -3.127   0.552  0.00  0.00    +0.020 C 
ATOM      5  C   LIG    1        3.544  -2.355  -0.473  0.00  0.00    +0.270 C 
ATOM      6  C   LIG    1        6.663  -3.394   1.532  0.00  0.00    +0.030 C 
ATOM      7  N   LIG    1        3.665  -0.917  -0.195  0.00  0.00    -0.590 N 
ATOM      8  C   LIG    1        2.565  -0.156  -0.029  0.00  0.00    +0.580 C 
ATOM      9  O   LIG    1        2.675   1.047   0.112  0.00  0.00    -0.510 OA
ENDROOT
BRANCH   8  10
ATOM     10  C   LIG    1        1.231  -0.780  -0.018  0.00  0.00    +0.000 A 
ATOM     11  C   LIG    1        0.548  -0.974  -1.186  0.00  0.00    +0.120 A 
ATOM     12  C   LIG    1       -0.787  -1.599  -1.119  0.00  0.00    +0.560 A 
ATOM     13  N   LIG    1       -1.275  -1.964   0.085  0.00  0.00    -0.650 N 
ATOM     14  H   LIG    1       -2.149  -2.379   0.144  0.00  0.00    +0.440 HD
ATOM     15  C   LIG    1       -0.563  -1.751   1.205  0.00  0.00    +0.700 A 
ATOM     16  O   LIG    1       -1.033  -2.087   2.275  0.00  0.00    -0.540 OA
ATOM     17  O   LIG    1       -1.434  -1.788  -2.131  0.00  0.00    -0.490 OA
ATOM     18  N   LIG    1        0.652  -1.179   1.178  0.00  0.00    -0.610 N 
ATOM     19  H   LIG    1        1.134  -1.044   2.009  0.00  0.00    +0.440 HD
BRANCH  11  20
ATOM     20  N   LIG    1        1.093  -0.588  -2.402  0.00  0.00    -0.830 N 
ATOM     21  H   LIG    1        0.636  -0.805  -3.229  0.00  0.00    +0.420 HD
ATOM     22  H   LIG    1        1.934  -0.104  -2.425  0.00  0.00    +0.410 HD
ENDBRANCH  11  20
ENDBRANCH   8  10
BRANCH   1  26
ATOM     23  C   LIG    1        6.331  -1.133  -3.412  0.00  0.00    -0.010 A 
ATOM     24  C   LIG    1        6.860   0.095  -3.264  0.00  0.00    -0.060 A 
ATOM     25  C   LIG    1        6.434   0.575  -2.005  0.00  0.00    -0.040 A 
ATOM     26  C   LIG    1        5.677  -0.391  -1.455  0.00  0.00    -0.030 A 
ATOM     27  O   LIG    1        5.616  -1.422  -2.313  0.00  0.00    -0.160 OA
BRANCH  23  29
ATOM     28  C   LIG    1        7.744  -2.915  -4.403  0.00  0.00    +0.040 C 
ATOM     29  C   LIG    1        6.511  -2.032  -4.608  0.00  0.00    +0.130 C 
ENDBRANCH  23  29
ENDBRANCH   1  26
TORSDOF 4
