REMARK  Name = ZINCrH000004q7DC.0
REMARK                            x       y       z     vdW  Elec       q    Type
REMARK                         _______ _______ _______ _____ _____    ______ ____
ROOT
ATOM      1  C   LIG    1        7.490   2.020  -0.073  0.00  0.00    +0.600 C 
ATOM      2  N   LIG    1        6.154   1.875   0.030  0.00  0.00    -0.610 N 
ATOM      3  C   LIG    1        5.354   1.411  -1.114  0.00  0.00    +0.290 C 
ATOM      4  C   LIG    1        4.477   0.242  -0.654  0.00  0.00    +0.190 C 
ATOM      5  N   LIG    1        3.699   0.652   0.523  0.00  0.00    -0.500 N 
ATOM      6  C   LIG    1        4.576   0.975   1.656  0.00  0.00    +0.190 C 
ATOM      7  C   LIG    1        5.457   2.174   1.290  0.00  0.00    +0.230 C 
ATOM      8  C   LIG    1        6.482   2.416   2.400  0.00  0.00    +0.060 C 
ATOM      9  O   LIG    1        8.148   2.303   0.909  0.00  0.00    -0.540 OA
ENDROOT
BRANCH   5  10
ATOM     10  C   LIG    1        2.767  -0.330   0.874  0.00  0.00    +0.050 A 
ATOM     11  C   LIG    1        3.199  -1.578   1.299  0.00  0.00    +0.010 A 
ATOM     12  C   LIG    1        2.276  -2.547   1.645  0.00  0.00    +0.010 A 
ATOM     13  C   LIG    1        0.923  -2.274   1.569  0.00  0.00    +0.040 A 
ATOM     14  C   LIG    1        0.487  -1.031   1.147  0.00  0.00    -0.010 A 
ATOM     15  C   LIG    1        1.405  -0.057   0.799  0.00  0.00    +0.130 A 
ATOM     16  F   LIG    1        0.979   1.157   0.385  0.00  0.00    -0.130 F 
ENDBRANCH   5  10
BRANCH   1  19
ATOM     17  C   LIG    1       10.393   0.890  -0.524  0.00  0.00    +0.150 C 
ATOM     18  C   LIG    1        9.424   1.342  -1.587  0.00  0.00    +0.150 A 
ATOM     19  C   LIG    1        8.153   1.836  -1.377  0.00  0.00    -0.300 A 
ATOM     20  C   LIG    1        7.608   2.139  -2.645  0.00  0.00    +0.260 A 
ATOM     21  N   LIG    1        8.498   1.837  -3.549  0.00  0.00    -0.290 NA
ATOM     22  N   LIG    1        9.639   1.335  -2.913  0.00  0.00    -0.350 N 
BRANCH  22  23
ATOM     23  C   LIG    1       10.863   0.885  -3.579  0.00  0.00    +0.260 C 
ATOM     24  C   LIG    1       11.453   2.028  -4.430  0.00  0.00    +0.020 C 
ATOM     25  C   LIG    1       12.007   1.317  -5.690  0.00  0.00    +0.020 C 
ATOM     26  C   LIG    1       10.947   0.219  -5.957  0.00  0.00    +0.020 C 
ATOM     27  C   LIG    1       10.542  -0.266  -4.549  0.00  0.00    +0.030 C 
ENDBRANCH  22  23
ENDBRANCH   1  19
TORSDOF 3
