REMARK  Name = ZINCrD0000074X6X.0
REMARK                            x       y       z     vdW  Elec       q    Type
REMARK                         _______ _______ _______ _____ _____    ______ ____
ROOT
ATOM      1  C   LIG    1        2.548  -4.191  -0.138  0.00  0.00    +0.180 A 
ATOM      2  C   LIG    1        1.386  -4.952  -0.226  0.00  0.00    -0.010 A 
ATOM      3  C   LIG    1        1.465  -6.323  -0.330  0.00  0.00    +0.090 A 
ATOM      4  C   LIG    1        2.713  -6.951  -0.338  0.00  0.00    -0.150 A 
ATOM      5  C   LIG    1        3.880  -6.184  -0.245  0.00  0.00    +0.040 A 
ATOM      6 CL   LIG    1        5.433  -6.958  -0.254  0.00  0.00    -0.020 Cl
ATOM      7  C   LIG    1        3.793  -4.812  -0.145  0.00  0.00    +0.020 A 
ENDROOT
BRANCH   1   9
ATOM      8  C   LIG    1        3.373  -2.125   0.690  0.00  0.00    +0.580 C 
ATOM      9  N   LIG    1        2.464  -2.804  -0.037  0.00  0.00    -0.650 N 
ATOM     10  H   LIG    1        1.751  -2.327  -0.490  0.00  0.00    +0.430 HD
ATOM     11  O   LIG    1        4.208  -2.728   1.335  0.00  0.00    -0.490 OA
BRANCH   8  16
ATOM     12  C   LIG    1        0.431   1.941  -1.546  0.00  0.00    +0.140 C 
ATOM     13  C   LIG    1        1.584   2.265  -0.632  0.00  0.00    -0.210 A 
ATOM     14  C   LIG    1        2.414   1.344   0.002  0.00  0.00    +0.240 A 
ATOM     15  N   LIG    1        2.446   0.010   0.002  0.00  0.00    -0.420 NA
ATOM     16  C   LIG    1        3.354  -0.644   0.703  0.00  0.00    +0.160 A 
ATOM     17  C   LIG    1        4.307   0.067   1.466  0.00  0.00    +0.000 A 
ATOM     18  C   LIG    1        4.278   1.420   1.468  0.00  0.00    +0.360 A 
ATOM     19  N   LIG    1        3.326   2.067   0.733  0.00  0.00    -0.310 N 
ATOM     20  N   LIG    1        3.043   3.424   0.537  0.00  0.00    -0.290 NA
ATOM     21  C   LIG    1        2.011   3.531  -0.272  0.00  0.00    +0.290 A 
ENDBRANCH   8  16
ENDBRANCH   1   9
BRANCH   4  22
ATOM     22  C   LIG    1        2.801  -8.420  -0.445  0.00  0.00    +0.550 C 
ATOM     23  N   LIG    1        1.677  -9.157  -0.535  0.00  0.00    -0.730 N 
ATOM     24  H   LIG    1        0.810  -8.722  -0.530  0.00  0.00    +0.400 HD
ATOM     25  O   LIG    1        3.888  -8.965  -0.451  0.00  0.00    -0.510 OA
BRANCH  23  26
ATOM     26  C   LIG    1        1.764 -10.616  -0.640  0.00  0.00    +0.260 C 
BRANCH  26  27
ATOM     27  C   LIG    1        0.355 -11.206  -0.728  0.00  0.00    -0.030 C 
ATOM     28  C   LIG    1        0.440 -12.734  -0.713  0.00  0.00    +0.030 C 
ATOM     29  C   LIG    1       -0.311 -10.745  -2.027  0.00  0.00    +0.020 C 
ENDBRANCH  26  27
ENDBRANCH  23  26
ENDBRANCH   4  22
TORSDOF 5
