REMARK  Name = ZINCrD0000073fah.0
REMARK                            x       y       z     vdW  Elec       q    Type
REMARK                         _______ _______ _______ _____ _____    ______ ____
ROOT
ATOM      1  C   LIG    1        3.748   6.183   0.124  0.00  0.00    -0.030 C 
ATOM      2  C   LIG    1        4.418   5.646   1.401  0.00  0.00    +0.020 C 
ATOM      3  C   LIG    1        4.781   6.875   2.259  0.00  0.00    +0.020 C 
ATOM      4  C   LIG    1        3.805   7.977   1.776  0.00  0.00    +0.010 C 
ATOM      5  C   LIG    1        3.727   7.720   0.251  0.00  0.00    +0.040 C 
ENDROOT
BRANCH   1   8
ATOM      6  C   LIG    1        6.632   5.679  -2.263  0.00  0.00    +0.120 A 
ATOM      7  C   LIG    1        5.897   6.058  -1.152  0.00  0.00    -0.030 A 
ATOM      8  C   LIG    1        4.545   5.775  -1.088  0.00  0.00    -0.060 A 
ATOM      9  C   LIG    1        3.922   5.125  -2.136  0.00  0.00    +0.010 A 
ATOM     10  C   LIG    1        4.648   4.749  -3.251  0.00  0.00    -0.010 A 
ATOM     11  C   LIG    1        6.004   5.024  -3.319  0.00  0.00    +0.070 A 
BRANCH   6  13
ATOM     12  C   LIG    1        8.540   6.625  -1.205  0.00  0.00    +0.250 C 
ATOM     13  O   LIG    1        7.963   5.951  -2.325  0.00  0.00    -0.310 OA
ENDBRANCH   6  13
BRANCH  11  14
ATOM     14  O   LIG    1        6.720   4.655  -4.415  0.00  0.00    -0.310 OA
BRANCH  14  15
ATOM     15  C   LIG    1        6.010   3.987  -5.459  0.00  0.00    +0.590 C 
ATOM     16  F   LIG    1        4.993   4.819  -5.938  0.00  0.00    -0.200 F 
ATOM     17  F   LIG    1        5.450   2.806  -4.961  0.00  0.00    -0.200 F 
ENDBRANCH  14  15
ENDBRANCH  11  14
ENDBRANCH   1   8
BRANCH   1  18
ATOM     18  C   LIG    1        2.319   5.646   0.017  0.00  0.00    +0.290 C 
BRANCH  18  19
ATOM     19  N   LIG    1        2.345   4.182   0.032  0.00  0.00    -0.710 N 
ATOM     20  H   LIG    1        3.193   3.711   0.030  0.00  0.00    +0.410 HD
ATOM     21  C   LIG    1        1.190   3.487   0.048  0.00  0.00    +0.580 C 
ATOM     22  O   LIG    1        0.127   4.077   0.050  0.00  0.00    -0.520 OA
BRANCH  21  23
ATOM     23  C   LIG    1        1.216   2.006   0.064  0.00  0.00    +0.020 A 
ATOM     24  C   LIG    1        0.022   1.286   0.081  0.00  0.00    +0.290 A 
ATOM     25  N   LIG    1        0.051  -0.034   0.094  0.00  0.00    -0.440 NA
ATOM     26  C   LIG    1        1.208  -0.672   0.092  0.00  0.00    +0.260 A 
ATOM     27  C   LIG    1        2.398   0.042   0.075  0.00  0.00    +0.230 A 
ATOM     28  N   LIG    1        2.378   1.359   0.061  0.00  0.00    -0.410 NA
ENDBRANCH  21  23
ENDBRANCH  18  19
ENDBRANCH   1  18
TORSDOF 7
