REMARK  Name = ZINCrg000000tyhe.0
REMARK                            x       y       z     vdW  Elec       q    Type
REMARK                         _______ _______ _______ _____ _____    ______ ____
ROOT
ATOM      1  C   LIG    1       -2.368   2.643   3.682  0.00  0.00    +0.230 A 
ATOM      2  C   LIG    1       -2.690   1.469   3.014  0.00  0.00    +0.010 A 
ATOM      3  C   LIG    1       -1.979   1.097   1.890  0.00  0.00    +0.150 A 
ATOM      4  C   LIG    1       -0.947   1.893   1.429  0.00  0.00    -0.700 A 
ATOM      5  C   LIG    1       -0.619   3.061   2.094  0.00  0.00    +0.150 A 
ATOM      6  C   LIG    1       -1.330   3.440   3.216  0.00  0.00    -0.030 A 
ENDROOT
BRANCH   1   9
ATOM      7  O   LIG    1       -3.303   0.910   5.473  0.00  0.00    -0.560 OA
ATOM      8  C   LIG    1       -3.571   2.082   5.656  0.00  0.00    +0.700 C 
ATOM      9  N   LIG    1       -3.086   3.022   4.821  0.00  0.00    -0.690 N 
ATOM     10  H   LIG    1       -3.235   3.962   5.011  0.00  0.00    +0.410 HD
ATOM     11  N   LIG    1       -4.352   2.440   6.694  0.00  0.00    -0.730 N 
ATOM     12  H   LIG    1       -4.566   3.375   6.840  0.00  0.00    +0.400 HD
BRANCH  11  13
ATOM     13  C   LIG    1       -4.879   1.417   7.601  0.00  0.00    +0.370 C 
BRANCH  13  14
ATOM     14  C   LIG    1       -5.717   2.076   8.668  0.00  0.00    -0.210 A 
ATOM     15  C   LIG    1       -5.288   2.523   9.861  0.00  0.00    +0.200 A 
ATOM     16  O   LIG    1       -6.335   3.045  10.520  0.00  0.00    -0.170 OA
ATOM     17  C   LIG    1       -7.441   2.931   9.766  0.00  0.00    +0.170 A 
ATOM     18  C   LIG    1       -7.105   2.336   8.607  0.00  0.00    -0.050 A 
ENDBRANCH  13  14
ENDBRANCH  11  13
ENDBRANCH   1   9
BRANCH   4  19
ATOM     19  S   LIG    1       -0.041   1.416  -0.005  0.00  0.00    +2.690 S 
ATOM     20  O   LIG    1        1.223   2.058   0.086  0.00  0.00    -0.950 OA
ATOM     21  O   LIG    1       -0.191   0.007  -0.123  0.00  0.00    -0.950 OA
BRANCH  19  22
ATOM     22  N   LIG    1       -0.810   2.079  -1.313  0.00  0.00    -1.100 NA
ATOM     23  H   LIG    1       -1.224   1.504  -1.976  0.00  0.00    +0.420 HD
BRANCH  22  24
ATOM     24  C   LIG    1       -0.865   3.535  -1.470  0.00  0.00    +0.270 C 
ATOM     25  C   LIG    1       -2.213   4.070  -0.956  0.00  0.00    +0.060 C 
ATOM     26  C   LIG    1       -2.383   5.524  -1.437  0.00  0.00    -0.310 C 
ATOM     27  S   LIG    1       -1.421   5.628  -2.989  0.00  0.00    +2.390 S 
ATOM     28  O   LIG    1       -2.311   5.789  -4.085  0.00  0.00    -0.930 OA
ATOM     29  O   LIG    1       -0.340   6.534  -2.813  0.00  0.00    -0.930 OA
ATOM     30  C   LIG    1       -0.782   3.910  -2.972  0.00  0.00    -0.300 C 
ENDBRANCH  22  24
ENDBRANCH  19  22
ENDBRANCH   4  19
TORSDOF 6
