REMARK  Name = ZINCnE000001NPHf.1
REMARK                            x       y       z     vdW  Elec       q    Type
REMARK                         _______ _______ _______ _____ _____    ______ ____
ROOT
ATOM      1  C   LIG    1        1.215  -0.682  -0.013  0.00  0.00    +0.380 A 
ATOM      2  N   LIG    1        1.352  -1.972  -0.016  0.00  0.00    -0.550 NA
ATOM      3  C   LIG    1        2.590  -2.445  -0.035  0.00  0.00    +0.130 A 
ATOM      4  C   LIG    1        3.563  -1.516  -0.039  0.00  0.00    -0.190 A 
ATOM      5  S   LIG    1        2.805   0.075  -0.024  0.00  0.00    -0.010 S 
ENDROOT
BRANCH   3   6
ATOM      6  C   LIG    1        2.883  -3.899  -0.044  0.00  0.00    -0.000 A 
ATOM      7  C   LIG    1        4.204  -4.345  -0.064  0.00  0.00    +0.030 A 
ATOM      8  C   LIG    1        4.473  -5.698  -0.067  0.00  0.00    -0.030 A 
ATOM      9  C   LIG    1        3.430  -6.615  -0.062  0.00  0.00    +0.090 A 
ATOM     10  C   LIG    1        2.114  -6.173  -0.049  0.00  0.00    -0.020 A 
ATOM     11  C   LIG    1        1.839  -4.822  -0.040  0.00  0.00    +0.060 A 
BRANCH   9  12
ATOM     12  O   LIG    1        3.699  -7.947  -0.071  0.00  0.00    -0.500 OA
ATOM     13  H   LIG    1        3.769  -8.328  -0.957  0.00  0.00    +0.380 HD
ENDBRANCH   9  12
ENDBRANCH   3   6
BRANCH   1  15
ATOM     14  C   LIG    1       -0.016   1.344   0.009  0.00  0.00    +0.460 C 
ATOM     15  N   LIG    1        0.002  -0.004   0.002  0.00  0.00    -0.660 NA
ATOM     16  O   LIG    1        1.026   1.964   0.003  0.00  0.00    -0.580 OA
BRANCH  14  18
ATOM     17  C   LIG    1       -2.080   1.803  -1.286  0.00  0.00    +0.030 C 
ATOM     18  C   LIG    1       -1.331   2.079   0.020  0.00  0.00    +0.180 C 
BRANCH  18  19
ATOM     19  O   LIG    1       -1.091   3.482   0.144  0.00  0.00    -0.350 OA
BRANCH  19  20
ATOM     20  C   LIG    1       -2.132   4.193   0.818  0.00  0.00    +0.200 C 
BRANCH  20  21
ATOM     21  C   LIG    1       -1.770   5.678   0.892  0.00  0.00    +0.460 C 
ATOM     22  F   LIG    1       -0.571   5.831   1.595  0.00  0.00    -0.170 F 
ATOM     23  F   LIG    1       -2.789   6.373   1.552  0.00  0.00    -0.180 F 
ATOM     24  F   LIG    1       -1.621   6.187  -0.402  0.00  0.00    -0.180 F 
ENDBRANCH  20  21
ENDBRANCH  19  20
ENDBRANCH  18  19
ENDBRANCH  14  18
ENDBRANCH   1  15
TORSDOF 7
