REMARK  Name = ZINCrD00000l0N33.0
REMARK                            x       y       z     vdW  Elec       q    Type
REMARK                         _______ _______ _______ _____ _____    ______ ____
ROOT
ATOM      1  C   LIG    1        0.656   5.526   1.389  0.00  0.00    +0.240 C 
ENDROOT
BRANCH   1   2
ATOM      2  C   LIG    1        0.196   5.941   2.762  0.00  0.00    +0.520 C 
ATOM      3  N   LIG    1       -0.108   7.230   3.010  0.00  0.00    -0.670 N 
ATOM      4  H   LIG    1        0.046   7.904   2.330  0.00  0.00    +0.430 HD
ATOM      5  O   LIG    1        0.099   5.114   3.644  0.00  0.00    -0.490 OA
BRANCH   3   6
ATOM      6  C   LIG    1       -0.646   7.597   4.250  0.00  0.00    +0.240 A 
ATOM      7  C   LIG    1       -1.344   6.666   5.007  0.00  0.00    +0.050 A 
ATOM      8  C   LIG    1       -1.873   7.030   6.230  0.00  0.00    +0.130 A 
ATOM      9  C   LIG    1       -1.707   8.321   6.701  0.00  0.00    -0.060 A 
ATOM     10  C   LIG    1       -1.012   9.250   5.947  0.00  0.00    +0.140 A 
ATOM     11 CL   LIG    1       -2.373   8.775   8.238  0.00  0.00    -0.030 Cl
ATOM     12  C   LIG    1       -0.477   8.890   4.726  0.00  0.00    -0.070 A 
BRANCH  12  13
ATOM     13  N   LIG    1        0.272   9.883   3.924  0.00  0.00    +0.040 N 
ATOM     14  O   LIG    1        0.663   9.594   2.807  0.00  0.00    -0.180 OA
ATOM     15  O   LIG    1        0.498  10.990   4.380  0.00  0.00    -0.130 OA
ENDBRANCH  12  13
ENDBRANCH   3   6
ENDBRANCH   1   2
BRANCH   1  16
ATOM     16  N   LIG    1        0.922   4.081   1.377  0.00  0.00    -0.520 NA
ATOM     17  C   LIG    1        2.061   3.748   2.242  0.00  0.00    +0.190 C 
BRANCH  16  18
ATOM     18  C   LIG    1        1.143   3.598   0.007  0.00  0.00    +0.250 C 
BRANCH  18  23
ATOM     19  C   LIG    1        0.005  -0.013   0.024  0.00  0.00    +0.110 A 
ATOM     20  C   LIG    1        1.219  -0.680  -0.002  0.00  0.00    -0.070 A 
ATOM     21  C   LIG    1        2.401   0.037  -0.025  0.00  0.00    +0.040 A 
ATOM     22  C   LIG    1        2.375   1.419  -0.022  0.00  0.00    -0.010 A 
ATOM     23  C   LIG    1        1.167   2.091   0.004  0.00  0.00    -0.060 A 
ATOM     24  C   LIG    1       -0.021   1.379   0.027  0.00  0.00    +0.090 A 
BRANCH  19  26
ATOM     25  C   LIG    1       -1.055  -2.142   0.042  0.00  0.00    +0.240 C 
ATOM     26  O   LIG    1       -1.159  -0.716   0.047  0.00  0.00    -0.310 OA
ENDBRANCH  19  26
BRANCH  24  27
ATOM     27  O   LIG    1       -1.210   2.038   0.047  0.00  0.00    -0.330 OA
ATOM     28  C   LIG    1       -1.758   2.350   1.330  0.00  0.00    +0.230 C 
ENDBRANCH  24  27
ENDBRANCH  18  23
ENDBRANCH  16  18
ENDBRANCH   1  16
TORSDOF 8
