REMARK  Name = ZINCpe000000XpK2.0
REMARK                            x       y       z     vdW  Elec       q    Type
REMARK                         _______ _______ _______ _____ _____    ______ ____
ROOT
ATOM      1  N   LIG    1       -1.117   1.980   0.018  0.00  0.00    -0.560 N 
ATOM      2  C   LIG    1       -0.014   1.210   0.009  0.00  0.00    +0.580 C 
ATOM      3  C   LIG    1        1.174   2.089   0.002  0.00  0.00    -0.090 A 
ATOM      4  C   LIG    1        2.541   1.868  -0.012  0.00  0.00    +0.130 A 
ATOM      5  C   LIG    1        3.413   2.946  -0.015  0.00  0.00    +0.160 A 
ATOM      6  C   LIG    1        2.926   4.240  -0.003  0.00  0.00    -0.030 A 
ATOM      7  C   LIG    1        1.560   4.477   0.011  0.00  0.00    +0.190 A 
ATOM      8  C   LIG    1        0.678   3.409   0.014  0.00  0.00    -0.130 A 
ATOM      9  O   LIG    1        0.002  -0.004   0.002  0.00  0.00    -0.440 OA
ATOM     10  C   LIG    1       -0.795   3.287   0.027  0.00  0.00    +0.590 C 
ATOM     11  O   LIG    1       -1.583   4.211   0.040  0.00  0.00    -0.440 OA
ENDROOT
BRANCH   6  12
ATOM     12  N   LIG    1        3.870   5.380  -0.006  0.00  0.00    +0.020 N 
ATOM     13  O   LIG    1        3.446   6.522   0.004  0.00  0.00    -0.140 OA
ATOM     14  O   LIG    1        5.071   5.176  -0.019  0.00  0.00    -0.140 OA
ENDBRANCH   6  12
BRANCH   1  15
ATOM     15  C   LIG    1       -2.489   1.465   0.020  0.00  0.00    +0.350 C 
BRANCH  15  23
ATOM     16  C   LIG    1       -4.113  -1.815   3.059  0.00  0.00    +0.020 C 
ATOM     17  C   LIG    1       -5.243  -0.793   3.193  0.00  0.00    +0.200 C 
ATOM     18  C   LIG    1       -4.669   0.624   3.069  0.00  0.00    +0.260 C 
ATOM     19  N   LIG    1       -4.193   0.812   1.690  0.00  0.00    -0.610 N 
ATOM     20  C   LIG    1       -5.112   0.481   0.589  0.00  0.00    +0.250 C 
ATOM     21  C   LIG    1       -5.662  -0.933   0.834  0.00  0.00    +0.140 C 
ATOM     22  C   LIG    1       -6.762  -1.235  -0.186  0.00  0.00    +0.070 C 
ATOM     23  C   LIG    1       -2.953   1.280   1.441  0.00  0.00    +0.500 C 
ATOM     24  O   LIG    1       -2.212   1.552   2.362  0.00  0.00    -0.520 OA
ATOM     25  O   LIG    1       -6.203  -1.004   2.155  0.00  0.00    -0.370 OA
ENDBRANCH  15  23
ENDBRANCH   1  15
TORSDOF 3
