REMARK  Name = ZINCvU00000003SS.0
REMARK                            x       y       z     vdW  Elec       q    Type
REMARK                         _______ _______ _______ _____ _____    ______ ____
ROOT
ATOM      1  C   LIG    1       -4.442   2.152   4.480  0.00  0.00    +0.080 A 
ATOM      2  C   LIG    1       -4.955   1.359   3.467  0.00  0.00    -0.040 A 
ATOM      3  C   LIG    1       -4.157   1.009   2.387  0.00  0.00    +0.070 A 
ATOM      4  C   LIG    1       -2.839   1.455   2.322  0.00  0.00    +0.140 A 
ATOM      5  C   LIG    1       -2.324   2.243   3.338  0.00  0.00    -0.010 A 
ATOM      6  C   LIG    1       -3.124   2.598   4.415  0.00  0.00    +0.160 A 
ENDROOT
BRANCH   3   7
ATOM      7  N   LIG    1       -4.676   0.207   1.362  0.00  0.00    -0.480 N 
ATOM      8  C   LIG    1       -5.777   0.889   0.666  0.00  0.00    +0.150 C 
ATOM      9  C   LIG    1       -6.274   0.004  -0.481  0.00  0.00    +0.220 C 
ATOM     10  O   LIG    1       -6.669  -1.268   0.041  0.00  0.00    -0.380 OA
ATOM     11  C   LIG    1       -5.620  -1.959   0.725  0.00  0.00    +0.220 C 
ATOM     12  C   LIG    1       -5.117  -1.095   1.884  0.00  0.00    +0.150 C 
ENDBRANCH   3   7
BRANCH   6  13
ATOM     13  N   LIG    1       -2.604   3.400   5.441  0.00  0.00    -0.660 N 
ATOM     14  H   LIG    1       -3.174   4.045   5.888  0.00  0.00    +0.420 HD
ATOM     15  C   LIG    1       -1.312   3.276   5.804  0.00  0.00    +0.550 C 
ATOM     16  O   LIG    1       -0.576   2.526   5.189  0.00  0.00    -0.520 OA
BRANCH  15  17
ATOM     17  C   LIG    1       -0.794   4.042   6.938  0.00  0.00    -0.060 C 
ATOM     18  C   LIG    1        0.499   3.917   7.302  0.00  0.00    +0.130 C 
BRANCH  18  19
ATOM     19  C   LIG    1        1.019   4.687   8.442  0.00  0.00    -0.060 A 
ATOM     20  C   LIG    1        0.177   5.550   9.151  0.00  0.00    +0.070 A 
ATOM     21  C   LIG    1        0.671   6.268  10.219  0.00  0.00    +0.040 A 
ATOM     22  C   LIG    1        2.000   6.138  10.590  0.00  0.00    -0.010 A 
ATOM     23  C   LIG    1        2.841   5.287   9.893  0.00  0.00    +0.050 A 
ATOM     24 CL   LIG    1        2.613   7.048  11.935  0.00  0.00    -0.050 Cl
ATOM     25  C   LIG    1        2.359   4.557   8.826  0.00  0.00    -0.000 A 
ATOM     26 CL   LIG    1        3.413   3.484   7.958  0.00  0.00    -0.040 Cl
ENDBRANCH  18  19
ENDBRANCH  15  17
ENDBRANCH   6  13
BRANCH   1  27
ATOM     27  O   LIG    1       -5.225   2.495   5.538  0.00  0.00    -0.320 OA
BRANCH  27  29
ATOM     28  C   LIG    1       -7.287   2.489   6.798  0.00  0.00    +0.070 C 
ATOM     29  C   LIG    1       -6.566   2.003   5.539  0.00  0.00    +0.180 C 
ENDBRANCH  27  29
ENDBRANCH   1  27
BRANCH   4  30
ATOM     30  O   LIG    1       -2.056   1.112   1.264  0.00  0.00    -0.290 OA
BRANCH  30  31
ATOM     31  C   LIG    1       -0.715   1.604   1.262  0.00  0.00    +0.170 C 
ATOM     32  C   LIG    1        0.006   1.118   0.003  0.00  0.00    +0.070 C 
ENDBRANCH  30  31
ENDBRANCH   4  30
TORSDOF 8
