REMARK  Name = ZINCrg000000tdHm.0
REMARK                            x       y       z     vdW  Elec       q    Type
REMARK                         _______ _______ _______ _____ _____    ______ ____
ROOT
ATOM      1  C   LIG    1       -2.833   7.614   2.896  0.00  0.00    -0.010 C 
ATOM      2  C   LIG    1       -3.238   8.309   4.198  0.00  0.00    +0.060 C 
ATOM      3  C   LIG    1       -3.827   9.685   3.882  0.00  0.00    +0.020 C 
ATOM      4  C   LIG    1       -2.765  10.543   3.187  0.00  0.00    +0.270 C 
ATOM      5  N   LIG    1       -2.265   9.816   2.012  0.00  0.00    -0.610 N 
ATOM      6  C   LIG    1       -2.269  10.394   0.794  0.00  0.00    +0.520 C 
ATOM      7  O   LIG    1       -1.854   9.783  -0.168  0.00  0.00    -0.530 OA
ATOM      8  C   LIG    1       -1.760   8.448   2.190  0.00  0.00    +0.300 C 
ENDROOT
BRANCH   1  11
ATOM      9  N   LIG    1       -1.860   5.447   2.206  0.00  0.00    -0.720 N 
ATOM     10  H   LIG    1       -1.910   5.753   1.287  0.00  0.00    +0.410 HD
ATOM     11  C   LIG    1       -2.283   6.245   3.206  0.00  0.00    +0.530 C 
ATOM     12  O   LIG    1       -2.222   5.863   4.355  0.00  0.00    -0.530 OA
BRANCH   9  13
ATOM     13  C   LIG    1       -1.326   4.116   2.507  0.00  0.00    +0.300 C 
BRANCH  13  15
ATOM     14  O   LIG    1       -1.075   4.001   0.164  0.00  0.00    -0.530 OA
ATOM     15  C   LIG    1       -0.927   3.433   1.225  0.00  0.00    +0.510 C 
ATOM     16  N   LIG    1       -0.406   2.190   1.257  0.00  0.00    -0.700 N 
ATOM     17  H   LIG    1       -0.289   1.736   2.106  0.00  0.00    +0.410 HD
BRANCH  16  18
ATOM     18  C   LIG    1       -0.019   1.526   0.010  0.00  0.00    +0.210 C 
ATOM     19  C   LIG    1        1.317   0.779  -0.006  0.00  0.00    +0.010 C 
ATOM     20  C   LIG    1        0.002  -0.004   0.002  0.00  0.00    +0.020 C 
ENDBRANCH  16  18
ENDBRANCH  13  15
ENDBRANCH   9  13
ENDBRANCH   1  11
BRANCH   6  21
ATOM     21  C   LIG    1       -2.790  11.798   0.628  0.00  0.00    +0.080 C 
BRANCH  21  22
ATOM     22  C   LIG    1       -2.684  12.211  -0.842  0.00  0.00    +0.210 C 
BRANCH  22  23
ATOM     23  O   LIG    1       -3.178  13.542  -0.999  0.00  0.00    -0.320 OA
BRANCH  23  24
ATOM     24  C   LIG    1       -3.154  14.065  -2.254  0.00  0.00    +0.130 A 
ATOM     25  C   LIG    1       -2.660  13.314  -3.310  0.00  0.00    -0.080 A 
ATOM     26  C   LIG    1       -2.643  13.845  -4.585  0.00  0.00    +0.050 A 
ATOM     27  C   LIG    1       -3.106  15.129  -4.807  0.00  0.00    -0.040 A 
ATOM     28  C   LIG    1       -3.594  15.881  -3.755  0.00  0.00    +0.050 A 
ATOM     29  C   LIG    1       -3.619  15.352  -2.479  0.00  0.00    -0.020 A 
ENDBRANCH  23  24
ENDBRANCH  22  23
ENDBRANCH  21  22
ENDBRANCH   6  21
TORSDOF 8
