REMARK  Name = ZINCpk00000ebfby.0
REMARK                            x       y       z     vdW  Elec       q    Type
REMARK                         _______ _______ _______ _____ _____    ______ ____
ROOT
ATOM      1  C   LIG    1        4.048   0.896  -1.475  0.00  0.00    +0.050 C 
ENDROOT
BRANCH   1   4
ATOM      2  N   LIG    1        6.214   1.024  -2.663  0.00  0.00    -0.730 N 
ATOM      3  H   LIG    1        5.721   1.002  -3.498  0.00  0.00    +0.400 HD
ATOM      4  C   LIG    1        5.553   0.980  -1.489  0.00  0.00    +0.520 C 
ATOM      5  O   LIG    1        6.168   1.008  -0.445  0.00  0.00    -0.540 OA
BRANCH   2   6
ATOM      6  C   LIG    1        7.677   1.106  -2.677  0.00  0.00    +0.260 C 
BRANCH   6   7
ATOM      7  C   LIG    1        8.172   1.142  -4.124  0.00  0.00    +0.100 C 
BRANCH   7  11
ATOM      8  C   LIG    1       12.854   2.931  -4.161  0.00  0.00    +0.360 C 
ATOM      9  N   LIG    1       11.713   2.012  -4.155  0.00  0.00    -0.370 N 
ATOM     10  C   LIG    1       10.410   2.364  -4.145  0.00  0.00    +0.230 A 
ATOM     11  C   LIG    1        9.676   1.227  -4.138  0.00  0.00    -0.240 A 
ATOM     12  C   LIG    1       10.561   0.143  -4.154  0.00  0.00    +0.240 A 
ATOM     13  N   LIG    1       11.782   0.613  -4.163  0.00  0.00    -0.290 NA
ENDBRANCH   7  11
ENDBRANCH   6   7
ENDBRANCH   2   6
ENDBRANCH   1   4
BRANCH   1  14
ATOM     14  C   LIG    1        3.553   0.859  -0.028  0.00  0.00    +0.360 C 
BRANCH  14  15
ATOM     15  N   LIG    1        2.091   0.778  -0.014  0.00  0.00    -0.390 N 
ATOM     16  N   LIG    1        1.217   1.870   0.001  0.00  0.00    -0.220 NA
ATOM     17  C   LIG    1       -0.018   1.455   0.010  0.00  0.00    +0.290 A 
ATOM     18  C   LIG    1        0.002  -0.004   0.002  0.00  0.00    -0.140 A 
ATOM     19  C   LIG    1       -0.990  -0.990   0.007  0.00  0.00    +0.130 A 
ATOM     20  C   LIG    1       -0.633  -2.308  -0.003  0.00  0.00    +0.050 A 
ATOM     21  C   LIG    1        0.706  -2.678  -0.018  0.00  0.00    +0.010 A 
ATOM     22  C   LIG    1        1.693  -1.733  -0.023  0.00  0.00    +0.090 A 
ATOM     23  C   LIG    1        1.359  -0.381  -0.013  0.00  0.00    +0.120 A 
BRANCH  21  24
ATOM     24  N   LIG    1        1.067  -4.113  -0.029  0.00  0.00    +0.020 N 
ATOM     25  O   LIG    1        0.193  -4.961  -0.025  0.00  0.00    -0.150 OA
ATOM     26  O   LIG    1        2.239  -4.446  -0.042  0.00  0.00    -0.160 OA
ENDBRANCH  21  24
ENDBRANCH  14  15
ENDBRANCH   1  14
TORSDOF 7
