REMARK  Name = ZINCrm000000OXiw.0
REMARK                            x       y       z     vdW  Elec       q    Type
REMARK                         _______ _______ _______ _____ _____    ______ ____
ROOT
ATOM      1  N   LIG    1        0.002  -0.004   0.002  0.00  0.00    -0.750 N 
ATOM      2  H   LIG    1        0.849  -0.478  -0.009  0.00  0.00    +0.400 HD
ATOM      3  C   LIG    1       -0.016   1.344   0.009  0.00  0.00    +0.710 C 
ATOM      4  N   LIG    1        1.142   2.033   0.002  0.00  0.00    -0.740 N 
ATOM      5  H   LIG    1        1.988   1.560  -0.009  0.00  0.00    +0.400 HD
ATOM      6  O   LIG    1       -1.077   1.937   0.018  0.00  0.00    -0.570 OA
ENDROOT
BRANCH   1   7
ATOM      7  C   LIG    1       -1.256  -0.754   0.010  0.00  0.00    +0.390 C 
BRANCH   7  12
ATOM      8  C   LIG    1       -0.645  -4.293   1.167  0.00  0.00    +0.320 C 
ATOM      9  C   LIG    1       -0.424  -4.903  -0.068  0.00  0.00    -0.020 C 
ATOM     10  C   LIG    1       -0.484  -4.137  -1.213  0.00  0.00    +0.390 C 
ATOM     11  N   LIG    1       -0.752  -2.846  -1.150  0.00  0.00    -0.490 NA
ATOM     12  C   LIG    1       -0.961  -2.232  -0.001  0.00  0.00    +0.170 C 
ATOM     13  H   LIG    1       -0.791  -2.333  -1.972  0.00  0.00    +0.450 HD
ATOM     14  C   LIG    1       -0.919  -2.926   1.190  0.00  0.00    +0.000 C 
BRANCH   8  15
ATOM     15  N   LIG    1       -0.594  -5.031   2.347  0.00  0.00    -0.800 NA
ATOM     16  H   LIG    1       -0.402  -5.981   2.316  0.00  0.00    +0.430 HD
ATOM     17  H   LIG    1       -0.749  -4.594   3.199  0.00  0.00    +0.430 HD
ENDBRANCH   8  15
ENDBRANCH   7  12
ENDBRANCH   1   7
BRANCH   4  18
ATOM     18  C   LIG    1        1.122   3.498   0.010  0.00  0.00    +0.300 C 
BRANCH  18  19
ATOM     19  C   LIG    1        2.557   4.028  -0.001  0.00  0.00    +0.040 C 
BRANCH  19  20
ATOM     20  C   LIG    1        2.537   5.558   0.008  0.00  0.00    +0.280 C 
BRANCH  20  21
ATOM     21  N   LIG    1        3.915   6.066  -0.003  0.00  0.00    -0.390 N 
ATOM     22  C   LIG    1        4.588   5.679   1.244  0.00  0.00    +0.270 C 
ATOM     23  C   LIG    1        6.030   6.192   1.225  0.00  0.00    +0.230 C 
ATOM     24  N   LIG    1        6.024   7.655   1.085  0.00  0.00    -0.490 N 
ATOM     25  C   LIG    1        5.331   8.059  -0.146  0.00  0.00    +0.220 C 
ATOM     26  C   LIG    1        3.895   7.530  -0.116  0.00  0.00    +0.280 C 
ATOM     27  H   LIG    1        4.411   5.675  -0.789  0.00  0.00    +0.420 HD
BRANCH  24  28
ATOM     28  C   LIG    1        7.324   8.166   1.119  0.00  0.00    +0.080 A 
ATOM     29  C   LIG    1        7.795   8.939   0.065  0.00  0.00    -0.030 A 
ATOM     30  C   LIG    1        9.079   9.447   0.103  0.00  0.00    +0.040 A 
ATOM     31  C   LIG    1        9.898   9.178   1.184  0.00  0.00    +0.010 A 
ATOM     32  C   LIG    1        9.434   8.405   2.232  0.00  0.00    +0.040 A 
ATOM     33  C   LIG    1        8.150   7.898   2.203  0.00  0.00    +0.000 A 
ENDBRANCH  24  28
ENDBRANCH  20  21
ENDBRANCH  19  20
ENDBRANCH  18  19
ENDBRANCH   4  18
TORSDOF 8
