REMARK  Name = ZINCah0000002qFk.0
REMARK                            x       y       z     vdW  Elec       q    Type
REMARK                         _______ _______ _______ _____ _____    ______ ____
ROOT
ATOM      1  C   LIG    1       -0.833   3.076   1.248  0.00  0.00    +0.020 C 
ATOM      2  C   LIG    1       -0.681   1.554   1.288  0.00  0.00    -0.030 C 
ATOM      3  C   LIG    1       -2.058   0.914   1.452  0.00  0.00    +0.280 C 
ATOM      4  N   LIG    1       -3.047   1.740   0.741  0.00  0.00    -0.720 N 
ATOM      5  H   LIG    1       -3.680   2.276   1.244  0.00  0.00    +0.400 HD
ATOM      6  C   LIG    1       -3.079   1.758  -0.593  0.00  0.00    +0.520 C 
ATOM      7  C   LIG    1       -2.091   0.931  -1.389  0.00  0.00    +0.050 C 
ATOM      8  C   LIG    1       -0.705   1.568  -1.254  0.00  0.00    -0.010 C 
ATOM      9  C   LIG    1        0.143   1.190  -2.470  0.00  0.00    +0.030 C 
ATOM     10  O   LIG    1       -3.901   2.437  -1.169  0.00  0.00    -0.550 OA
ATOM     11  C   LIG    1       -0.013   1.086   0.008  0.00  0.00    +0.030 C 
ENDROOT
TORSDOF 0
