REMARK  Name = ZINCpk00000xIac2.0
REMARK                            x       y       z     vdW  Elec       q    Type
REMARK                         _______ _______ _______ _____ _____    ______ ____
ROOT
ATOM      1  C   LIG    1       -3.029   4.134  -4.347  0.00  0.00    +0.040 C 
ATOM      2  C   LIG    1       -3.323   2.866  -3.541  0.00  0.00    +0.050 C 
ATOM      3  C   LIG    1       -4.035   3.248  -2.239  0.00  0.00    +0.300 C 
ATOM      4  N   LIG    1       -3.218   4.240  -1.527  0.00  0.00    -1.000 NA
ATOM      5  C   LIG    1       -2.807   5.458  -2.238  0.00  0.00    +0.310 C 
ATOM      6  C   LIG    1       -2.104   5.049  -3.541  0.00  0.00    +0.030 C 
ENDROOT
BRANCH   4   7
ATOM      7  S   LIG    1       -2.776   3.993   0.050  0.00  0.00    +2.690 S 
ATOM      8  O   LIG    1       -2.511   5.276   0.598  0.00  0.00    -0.950 OA
ATOM      9  O   LIG    1       -3.730   3.095   0.598  0.00  0.00    -0.950 OA
BRANCH   7  10
ATOM     10  C   LIG    1       -1.238   3.133   0.031  0.00  0.00    -0.680 A 
ATOM     11  C   LIG    1       -1.219   1.751   0.017  0.00  0.00    +0.140 A 
ATOM     12  C   LIG    1       -0.013   1.076   0.008  0.00  0.00    +0.020 A 
ATOM     13  C   LIG    1        1.176   1.784   0.000  0.00  0.00    +0.020 A 
ATOM     14  C   LIG    1        1.156   3.167   0.008  0.00  0.00    +0.020 A 
ATOM     15 CL   LIG    1        2.691   0.937  -0.018  0.00  0.00    -0.050 Cl
ATOM     16  C   LIG    1       -0.050   3.841   0.023  0.00  0.00    +0.140 A 
ENDBRANCH   7  10
ENDBRANCH   4   7
BRANCH   1  17
ATOM     17  C   LIG    1       -2.359   3.759  -5.644  0.00  0.00    +0.470 C 
ATOM     18  O   LIG    1       -2.140   2.599  -5.898  0.00  0.00    -0.500 OA
BRANCH  17  19
ATOM     19  O   LIG    1       -2.006   4.715  -6.517  0.00  0.00    -0.350 OA
BRANCH  19  20
ATOM     20  C   LIG    1       -1.365   4.282  -7.746  0.00  0.00    +0.220 C 
BRANCH  20  21
ATOM     21  C   LIG    1       -1.038   5.502  -8.609  0.00  0.00    +0.290 C 
BRANCH  21  24
ATOM     22  C   LIG    1        1.422   8.321  -7.798  0.00  0.00    +0.110 C 
ATOM     23  C   LIG    1        0.398   7.468  -8.501  0.00  0.00    +0.510 C 
ATOM     24  N   LIG    1       -0.043   6.332  -7.925  0.00  0.00    -0.730 N 
ATOM     25  H   LIG    1        0.297   6.064  -7.057  0.00  0.00    +0.400 HD
ATOM     26  O   LIG    1       -0.028   7.803  -9.586  0.00  0.00    -0.550 OA
ENDBRANCH  21  24
ENDBRANCH  20  21
ENDBRANCH  19  20
ENDBRANCH  17  19
ENDBRANCH   1  17
TORSDOF 7
