REMARK  Name = ZINCrD00000F5LHL.0
REMARK                            x       y       z     vdW  Elec       q    Type
REMARK                         _______ _______ _______ _____ _____    ______ ____
ROOT
ATOM      1  C   LIG    1       -0.715   3.072   2.300  0.00  0.00    +0.550 C 
ATOM      2  N   LIG    1       -0.792   1.899   1.640  0.00  0.00    -0.560 N 
ATOM      3  O   LIG    1       -1.486   3.309   3.210  0.00  0.00    -0.530 OA
ENDROOT
BRANCH   2   4
ATOM      4  C   LIG    1       -1.758   0.955   2.002  0.00  0.00    +0.130 A 
ATOM      5  C   LIG    1       -1.464  -0.008   2.960  0.00  0.00    +0.050 A 
ATOM      6  C   LIG    1       -2.417  -0.941   3.325  0.00  0.00    +0.000 A 
ATOM      7  C   LIG    1       -3.664  -0.928   2.733  0.00  0.00    +0.050 A 
ATOM      8  C   LIG    1       -3.967   0.032   1.766  0.00  0.00    -0.140 A 
ATOM      9  C   LIG    1       -3.007   0.976   1.401  0.00  0.00    -0.000 A 
ATOM     10  C   LIG    1       -3.327   2.016   0.359  0.00  0.00    +0.120 C 
BRANCH   8  11
ATOM     11  C   LIG    1       -5.302   0.048   1.129  0.00  0.00    +0.560 C 
ATOM     12  N   LIG    1       -6.267  -0.784   1.567  0.00  0.00    -0.730 N 
ATOM     13  H   LIG    1       -6.086  -1.394   2.300  0.00  0.00    +0.400 HD
ATOM     14  C   LIG    1       -7.590  -0.769   0.937  0.00  0.00    +0.290 C 
ATOM     15  O   LIG    1       -5.529   0.812   0.211  0.00  0.00    -0.520 OA
ENDBRANCH   8  11
ENDBRANCH   2   4
BRANCH   1  17
ATOM     16  C   LIG    1        0.377   5.222   2.570  0.00  0.00    +0.160 C 
ATOM     17  C   LIG    1        0.301   4.064   1.919  0.00  0.00    -0.090 C 
ENDBRANCH   1  17
BRANCH   2  18
ATOM     18  C   LIG    1        0.137   1.613   0.544  0.00  0.00    +0.340 C 
BRANCH  18  19
ATOM     19  C   LIG    1       -0.456   2.094  -0.755  0.00  0.00    -0.110 A 
ATOM     20  C   LIG    1       -1.241   1.245  -1.514  0.00  0.00    +0.030 A 
ATOM     21  C   LIG    1       -1.789   1.688  -2.703  0.00  0.00    +0.020 A 
ATOM     22  C   LIG    1       -1.544   2.977  -3.139  0.00  0.00    -0.110 A 
ATOM     23  C   LIG    1       -0.755   3.824  -2.384  0.00  0.00    +0.030 A 
ATOM     24  C   LIG    1       -0.211   3.383  -1.192  0.00  0.00    +0.010 A 
BRANCH  22  25
ATOM     25  C   LIG    1       -2.138   3.458  -4.438  0.00  0.00    +0.170 C 
ATOM     26  C   LIG    1       -3.509   4.082  -4.172  0.00  0.00    +0.060 C 
ATOM     27  C   LIG    1       -2.292   2.275  -5.397  0.00  0.00    +0.020 C 
BRANCH  25  28
ATOM     28  O   LIG    1       -1.274   4.435  -5.023  0.00  0.00    -0.550 OA
ATOM     29  H   LIG    1       -0.386   4.108  -5.219  0.00  0.00    +0.380 HD
ENDBRANCH  25  28
ENDBRANCH  22  25
ENDBRANCH  18  19
ENDBRANCH   2  18
TORSDOF 7
