REMARK  Name = ZINCnE00000iSQea.0
REMARK                            x       y       z     vdW  Elec       q    Type
REMARK                         _______ _______ _______ _____ _____    ______ ____
ROOT
ATOM      1  N   LIG    1       -2.889   2.143   5.417  0.00  0.00    -0.720 N 
ATOM      2  H   LIG    1       -3.578   1.807   4.822  0.00  0.00    +0.410 HD
ATOM      3  C   LIG    1       -3.014   1.985   6.750  0.00  0.00    +0.560 C 
ATOM      4  O   LIG    1       -2.150   2.406   7.496  0.00  0.00    -0.540 OA
ENDROOT
BRANCH   3   5
ATOM      5  C   LIG    1       -4.191   1.306   7.301  0.00  0.00    -0.120 C 
ATOM      6  C   LIG    1       -4.316   1.148   8.633  0.00  0.00    +0.140 C 
BRANCH   6   7
ATOM      7  C   LIG    1       -5.499   0.466   9.186  0.00  0.00    -0.100 A 
ATOM      8  C   LIG    1       -6.495  -0.013   8.329  0.00  0.00    +0.010 A 
ATOM      9  C   LIG    1       -7.597  -0.654   8.846  0.00  0.00    +0.040 A 
ATOM     10  C   LIG    1       -7.727  -0.818  10.228  0.00  0.00    -0.110 A 
ATOM     11  C   LIG    1       -6.734  -0.335  11.086  0.00  0.00    +0.040 A 
ATOM     12  C   LIG    1       -5.628   0.302  10.569  0.00  0.00    +0.010 A 
BRANCH  10  13
ATOM     13  C   LIG    1       -8.912  -1.501  10.783  0.00  0.00    +0.520 C 
ATOM     14  O   LIG    1       -9.780  -1.923  10.033  0.00  0.00    -0.680 OA
ATOM     15  O   LIG    1       -9.025  -1.644  11.992  0.00  0.00    -0.680 OA
ENDBRANCH  10  13
ENDBRANCH   6   7
ENDBRANCH   3   5
BRANCH   1  16
ATOM     16  C   LIG    1       -1.713   2.821   4.867  0.00  0.00    +0.340 C 
BRANCH  16  17
ATOM     17  C   LIG    1       -1.482   2.357   3.452  0.00  0.00    +0.030 A 
ATOM     18  N   LIG    1       -2.402   2.234   2.555  0.00  0.00    -0.460 NA
ATOM     19  C   LIG    1       -2.026   1.821   1.362  0.00  0.00    +0.210 A 
ATOM     20  C   LIG    1       -0.718   1.572   1.248  0.00  0.00    -0.220 A 
ATOM     21  C   LIG    1       -0.013   1.086   0.008  0.00  0.00    +0.150 C 
ATOM     22  S   LIG    1        0.037   1.919   2.801  0.00  0.00    +0.140 S 
ENDBRANCH  16  17
BRANCH  16  24
ATOM     23  C   LIG    1       -2.057   4.824   6.321  0.00  0.00    +0.020 C 
ATOM     24  C   LIG    1       -1.946   4.333   4.876  0.00  0.00    +0.020 C 
ENDBRANCH  16  24
ENDBRANCH   1  16
TORSDOF 6
