REMARK  Name = ZINCpk00000FbAyP.0
REMARK                            x       y       z     vdW  Elec       q    Type
REMARK                         _______ _______ _______ _____ _____    ______ ____
ROOT
ATOM      1  C   LIG    1       -3.721   2.073   0.047  0.00  0.00    +0.580 C 
ATOM      2  N   LIG    1       -4.870   1.375  -0.048  0.00  0.00    -0.610 N 
ATOM      3  C   LIG    1       -4.983  -0.095  -0.066  0.00  0.00    +0.270 C 
ATOM      4  C   LIG    1       -6.324  -0.380  -0.787  0.00  0.00    +0.090 C 
ATOM      5  C   LIG    1       -7.212   0.779  -0.261  0.00  0.00    +0.110 C 
ATOM      6  C   LIG    1       -6.218   1.953  -0.143  0.00  0.00    +0.250 C 
ATOM      7  O   LIG    1       -3.751   3.287   0.118  0.00  0.00    -0.530 OA
ENDROOT
BRANCH   1  14
ATOM      8  C   LIG    1        3.538  -0.912  -0.340  0.00  0.00    +0.130 C 
ATOM      9  C   LIG    1        2.248  -0.135  -0.392  0.00  0.00    +0.170 A 
ATOM     10  N   LIG    1        1.169  -0.655   0.141  0.00  0.00    -0.480 NA
ATOM     11  C   LIG    1        0.000  -0.006   0.120  0.00  0.00    +0.150 A 
ATOM     12  C   LIG    1       -1.151  -0.575   0.696  0.00  0.00    +0.050 A 
ATOM     13  C   LIG    1       -2.330   0.097   0.667  0.00  0.00    +0.050 A 
ATOM     14  C   LIG    1       -2.424   1.364   0.066  0.00  0.00    -0.130 A 
ATOM     15  C   LIG    1       -1.308   1.954  -0.505  0.00  0.00    +0.120 A 
ATOM     16  C   LIG    1       -0.085   1.271  -0.489  0.00  0.00    -0.120 A 
ATOM     17  C   LIG    1        1.073   1.833  -1.063  0.00  0.00    +0.100 A 
ATOM     18  C   LIG    1        2.234   1.115  -1.006  0.00  0.00    -0.030 A 
ENDBRANCH   1  14
BRANCH   5  19
ATOM     19  O   LIG    1       -7.764   0.454   1.016  0.00  0.00    -0.540 OA
ATOM     20  H   LIG    1       -8.327   1.146   1.389  0.00  0.00    +0.390 HD
ENDBRANCH   5  19
BRANCH   5  21
ATOM     21  C   LIG    1       -8.324   1.105  -1.261  0.00  0.00    +0.330 C 
BRANCH  21  22
ATOM     22  N   LIG    1       -9.071   2.276  -0.796  0.00  0.00    -0.300 N 
ATOM     23  C   LIG    1       -9.279   3.414  -1.499  0.00  0.00    +0.150 A 
ATOM     24  C   LIG    1      -10.012   4.223  -0.698  0.00  0.00    +0.140 A 
ATOM     25  N   LIG    1      -10.206   3.552   0.443  0.00  0.00    -0.260 NA
ATOM     26  N   LIG    1       -9.636   2.403   0.353  0.00  0.00    -0.100 NA
ENDBRANCH  21  22
ENDBRANCH   5  21
TORSDOF 4
