REMARK  Name = ZINCkj000005i2Bq.0
REMARK                            x       y       z     vdW  Elec       q    Type
REMARK                         _______ _______ _______ _____ _____    ______ ____
ROOT
ATOM      1  C   LIG    1        0.633  -2.108   1.011  0.00  0.00    +0.040 C 
ATOM      2  C   LIG    1       -0.824  -2.582   0.999  0.00  0.00    +0.120 C 
ATOM      3  C   LIG    1       -0.856  -4.111   0.967  0.00  0.00    +0.260 C 
ATOM      4  N   LIG    1       -0.176  -4.644   2.153  0.00  0.00    -0.500 N 
ATOM      5  C   LIG    1        1.238  -4.253   2.134  0.00  0.00    +0.270 C 
ATOM      6  H   LIG    1       -0.615  -4.276   2.984  0.00  0.00    +0.430 HD
ATOM      7  H   LIG    1       -0.246  -5.651   2.156  0.00  0.00    +0.440 HD
ATOM      8  C   LIG    1        1.352  -2.729   2.212  0.00  0.00    +0.110 C 
ENDROOT
BRANCH   1   9
ATOM      9  C   LIG    1        1.315  -2.538  -0.263  0.00  0.00    +0.150 A 
ATOM     10  N   LIG    1        0.968  -2.206  -1.481  0.00  0.00    -0.420 NA
ATOM     11  C   LIG    1        1.860  -2.818  -2.292  0.00  0.00    +0.220 A 
ATOM     12  N   LIG    1        2.683  -3.485  -1.527  0.00  0.00    -0.360 NA
ATOM     13  O   LIG    1        2.384  -3.334  -0.361  0.00  0.00    +0.080 OA
BRANCH  11  14
ATOM     14  C   LIG    1        1.894  -2.749  -3.775  0.00  0.00    +0.010 A 
ATOM     15  C   LIG    1        0.949  -2.001  -4.481  0.00  0.00    +0.020 A 
ATOM     16  C   LIG    1        1.020  -1.961  -5.859  0.00  0.00    +0.280 A 
ATOM     17  N   LIG    1        1.958  -2.624  -6.508  0.00  0.00    -0.460 NA
ATOM     18  C   LIG    1        2.865  -3.346  -5.880  0.00  0.00    +0.280 A 
ATOM     19  C   LIG    1        2.870  -3.436  -4.502  0.00  0.00    +0.000 A 
ENDBRANCH  11  14
ENDBRANCH   1   9
BRANCH   1  20
ATOM     20  C   LIG    1        0.673  -0.582   1.123  0.00  0.00    +0.220 C 
BRANCH  20  22
ATOM     21  C   LIG    1       -0.017   1.425   0.010  0.00  0.00    +0.230 C 
ATOM     22  O   LIG    1        0.002  -0.004   0.002  0.00  0.00    -0.370 OA
ENDBRANCH  20  22
ENDBRANCH   1  20
TORSDOF 4
