REMARK  Name = ZINCvU0000000GdN.0
REMARK                            x       y       z     vdW  Elec       q    Type
REMARK                         _______ _______ _______ _____ _____    ______ ____
ROOT
ATOM      1  O   LIG    1        3.415  -0.555   1.066  0.00  0.00    -0.460 OA
ATOM      2  C   LIG    1        4.244  -0.600   0.179  0.00  0.00    +0.520 C 
ENDROOT
BRANCH   2   3
ATOM      3  C   LIG    1        5.258   0.466   0.061  0.00  0.00    -0.070 A 
ATOM      4  C   LIG    1        6.614   0.144   0.026  0.00  0.00    +0.070 A 
ATOM      5  C   LIG    1        7.558   1.145  -0.083  0.00  0.00    +0.040 A 
ATOM      6  C   LIG    1        7.168   2.471  -0.159  0.00  0.00    +0.050 A 
ATOM      7  C   LIG    1        5.830   2.810  -0.131  0.00  0.00    +0.040 A 
ATOM      8  C   LIG    1        4.862   1.815  -0.016  0.00  0.00    +0.010 A 
BRANCH   8   9
ATOM      9  C   LIG    1        3.428   2.173   0.020  0.00  0.00    +0.140 A 
ATOM     10  N   LIG    1        2.456   1.325   0.002  0.00  0.00    -0.430 NA
ATOM     11  C   LIG    1        1.206   1.799   0.039  0.00  0.00    +0.090 A 
ATOM     12  C   LIG    1       -0.013   1.084   0.030  0.00  0.00    +0.070 A 
ATOM     13  C   LIG    1       -1.202   1.744   0.068  0.00  0.00    +0.030 A 
ATOM     14  C   LIG    1       -1.245   3.130   0.126  0.00  0.00    +0.050 A 
ATOM     15  C   LIG    1       -0.075   3.855   0.136  0.00  0.00    +0.050 A 
ATOM     16  C   LIG    1        1.153   3.198   0.093  0.00  0.00    -0.170 A 
ATOM     17  S   LIG    1        2.804   3.815   0.091  0.00  0.00    +0.080 S 
ENDBRANCH   8   9
ENDBRANCH   2   3
BRANCH   2  18
ATOM     18  O   LIG    1        4.237  -1.623  -0.698  0.00  0.00    -0.340 OA
BRANCH  18  19
ATOM     19  C   LIG    1        3.211  -2.636  -0.522  0.00  0.00    +0.320 C 
BRANCH  19  20
ATOM     20  C   LIG    1        3.360  -3.692  -1.587  0.00  0.00    +0.210 A 
ATOM     21  C   LIG    1        3.696  -4.984  -1.234  0.00  0.00    -0.130 A 
ATOM     22  C   LIG    1        3.828  -5.948  -2.241  0.00  0.00    +0.510 A 
ATOM     23  N   LIG    1        3.624  -5.584  -3.525  0.00  0.00    -0.430 N 
ATOM     24  C   LIG    1        3.749  -6.510  -4.516  0.00  0.00    +0.330 A 
ATOM     25  C   LIG    1        3.549  -6.170  -5.810  0.00  0.00    -0.150 A 
ATOM     26  C   LIG    1        3.209  -4.851  -6.146  0.00  0.00    +0.140 A 
ATOM     27  C   LIG    1        3.081  -3.918  -5.162  0.00  0.00    +0.060 A 
ATOM     28 BR   LIG    1        3.730  -7.473  -7.168  0.00  0.00    +0.000 Br
ATOM     29  C   LIG    1        3.293  -4.292  -3.822  0.00  0.00    +0.400 A 
ATOM     30  O   LIG    1        4.124  -7.099  -1.962  0.00  0.00    -0.520 OA
ATOM     31  N   LIG    1        3.163  -3.381  -2.858  0.00  0.00    -0.520 NA
ENDBRANCH  19  20
ENDBRANCH  18  19
ENDBRANCH   2  18
TORSDOF 5
