REMARK  Name = ZINCkj00000dDcnW.0
REMARK                            x       y       z     vdW  Elec       q    Type
REMARK                         _______ _______ _______ _____ _____    ______ ____
ROOT
ATOM      1  N   LIG    1        1.170   1.619   0.059  0.00  0.00    -0.670 N 
ATOM      2  H   LIG    1        1.274   2.408  -0.496  0.00  0.00    +0.400 HD
ATOM      3  C   LIG    1       -0.042   1.300   0.557  0.00  0.00    +0.460 C 
ATOM      4  O   LIG    1       -0.184   0.284   1.203  0.00  0.00    -0.470 OA
ENDROOT
BRANCH   1   9
ATOM      5  C   LIG    1        3.197  -1.333   0.903  0.00  0.00    -0.060 A 
ATOM      6  C   LIG    1        4.468  -0.790   0.903  0.00  0.00    +0.040 A 
ATOM      7  C   LIG    1        4.652   0.551   0.623  0.00  0.00    +0.030 A 
ATOM      8  C   LIG    1        3.560   1.356   0.342  0.00  0.00    +0.070 A 
ATOM      9  C   LIG    1        2.278   0.809   0.342  0.00  0.00    +0.100 A 
ATOM     10  C   LIG    1        2.102  -0.536   0.628  0.00  0.00    +0.050 A 
BRANCH   5  12
ATOM     11  C   LIG    1        2.807  -2.981   2.714  0.00  0.00    +0.030 C 
ATOM     12  C   LIG    1        3.004  -2.796   1.208  0.00  0.00    +0.070 C 
ENDBRANCH   5  12
BRANCH   8  13
ATOM     13  O   LIG    1        3.738   2.675   0.067  0.00  0.00    -0.500 OA
ATOM     14  H   LIG    1        3.709   3.247   0.846  0.00  0.00    +0.380 HD
ENDBRANCH   8  13
ENDBRANCH   1   9
BRANCH   3  15
ATOM     15  C   LIG    1       -1.221   2.204   0.305  0.00  0.00    +0.240 C 
BRANCH  15  16
ATOM     16  C   LIG    1       -1.094   3.461   1.168  0.00  0.00    +0.140 C 
ATOM     17  C   LIG    1       -2.352   4.318   1.010  0.00  0.00    +0.090 C 
ATOM     18  C   LIG    1       -2.220   5.574   1.875  0.00  0.00    +0.040 C 
ATOM     19  C   LIG    1       -0.949   6.328   1.473  0.00  0.00    +0.060 C 
ATOM     20  C   LIG    1        0.257   5.397   1.614  0.00  0.00    +0.260 C 
ATOM     21  N   LIG    1        0.083   4.229   0.743  0.00  0.00    -0.510 N 
ATOM     22  H   LIG    1       -0.045   4.537  -0.210  0.00  0.00    +0.430 HD
ATOM     23  H   LIG    1        0.903   3.644   0.798  0.00  0.00    +0.420 HD
ENDBRANCH  15  16
BRANCH  15  24
ATOM     24  O   LIG    1       -2.428   1.517   0.640  0.00  0.00    -0.500 OA
ATOM     25  H   LIG    1       -2.477   1.235   1.563  0.00  0.00    +0.400 HD
ENDBRANCH  15  24
ENDBRANCH   3  15
TORSDOF 6
