REMARK  Name = ZINCrH000004joGV.0
REMARK                            x       y       z     vdW  Elec       q    Type
REMARK                         _______ _______ _______ _____ _____    ______ ____
ROOT
ATOM      1  N   LIG    1       -0.020   1.094   2.454  0.00  0.00    -0.700 N 
ATOM      2  H   LIG    1        0.639   1.657   2.889  0.00  0.00    +0.420 HD
ATOM      3  C   LIG    1       -0.285  -0.134   2.941  0.00  0.00    +0.600 C 
ATOM      4  O   LIG    1       -1.111  -0.840   2.396  0.00  0.00    -0.510 OA
ENDROOT
BRANCH   3   5
ATOM      5  C   LIG    1        0.429  -0.623   4.137  0.00  0.00    +0.050 C 
ATOM      6  N   LIG    1        1.323   0.027   4.802  0.00  0.00    -0.240 NA
ATOM      7  O   LIG    1        1.834  -0.706   5.898  0.00  0.00    -0.170 OA
ATOM      8  C   LIG    1        0.911  -1.778   6.174  0.00  0.00    +0.190 C 
ATOM      9  C   LIG    1        0.233  -1.974   4.799  0.00  0.00    +0.110 C 
BRANCH   8  10
ATOM     10  C   LIG    1        1.643  -3.024   6.601  0.00  0.00    -0.100 A 
ATOM     11  C   LIG    1        2.884  -3.315   6.065  0.00  0.00    +0.040 A 
ATOM     12  C   LIG    1        3.557  -4.455   6.460  0.00  0.00    +0.010 A 
ATOM     13  C   LIG    1        2.986  -5.310   7.384  0.00  0.00    +0.020 A 
ATOM     14  C   LIG    1        1.743  -5.023   7.916  0.00  0.00    +0.010 A 
ATOM     15  C   LIG    1        1.071  -3.880   7.524  0.00  0.00    +0.030 A 
ENDBRANCH   8  10
ENDBRANCH   3   5
BRANCH   1  16
ATOM     16  C   LIG    1       -0.729   1.579   1.267  0.00  0.00    +0.340 C 
ATOM     17  C   LIG    1       -0.013   1.086   0.008  0.00  0.00    +0.060 C 
BRANCH  16  26
ATOM     18  N   LIG    1       -1.838   3.852   0.996  0.00  0.00    -0.480 N 
ATOM     19  C   LIG    1       -1.452   5.173   1.112  0.00  0.00    +0.050 A 
ATOM     20  C   LIG    1       -2.104   6.388   0.954  0.00  0.00    +0.010 A 
ATOM     21  C   LIG    1       -1.410   7.564   1.143  0.00  0.00    +0.030 A 
ATOM     22  C   LIG    1       -0.067   7.541   1.489  0.00  0.00    +0.000 A 
ATOM     23  C   LIG    1        0.591   6.354   1.649  0.00  0.00    +0.070 A 
ATOM     24  C   LIG    1       -0.091   5.149   1.462  0.00  0.00    +0.050 A 
ATOM     25  N   LIG    1        0.273   3.844   1.545  0.00  0.00    -0.480 NA
ATOM     26  C   LIG    1       -0.749   3.086   1.275  0.00  0.00    +0.270 A 
BRANCH  18  28
ATOM     27  C   LIG    1       -4.005   3.185   1.912  0.00  0.00    +0.030 C 
ATOM     28  C   LIG    1       -3.174   3.366   0.640  0.00  0.00    +0.300 C 
ENDBRANCH  18  28
ENDBRANCH  16  26
ENDBRANCH   1  16
TORSDOF 5
