REMARK  Name = ZINCnE000001Ogt1.0
REMARK                            x       y       z     vdW  Elec       q    Type
REMARK                         _______ _______ _______ _____ _____    ______ ____
ROOT
ATOM      1  C   LIG    1        2.493   0.593  -4.999  0.00  0.00    +0.030 C 
ATOM      2  C   LIG    1        1.358  -0.426  -5.116  0.00  0.00    -0.090 C 
ENDROOT
BRANCH   2   3
ATOM      3  C   LIG    1        1.193  -0.831  -6.558  0.00  0.00    -0.010 A 
ATOM      4  C   LIG    1       -0.011  -0.616  -7.202  0.00  0.00    +0.010 A 
ATOM      5  C   LIG    1       -0.162  -0.982  -8.526  0.00  0.00    +0.020 A 
ATOM      6  C   LIG    1        0.890  -1.573  -9.204  0.00  0.00    -0.050 A 
ATOM      7  C   LIG    1        2.093  -1.793  -8.557  0.00  0.00    +0.020 A 
ATOM      8 CL   LIG    1        0.700  -2.039 -10.866  0.00  0.00    -0.090 Cl
ATOM      9  C   LIG    1        2.244  -1.422  -7.234  0.00  0.00    +0.030 A 
ENDBRANCH   2   3
BRANCH   2  10
ATOM     10  C   LIG    1        1.687  -1.641  -4.287  0.00  0.00    +0.520 C 
ATOM     11  O   LIG    1        2.733  -1.688  -3.662  0.00  0.00    -0.670 OA
ATOM     12  O   LIG    1        0.908  -2.578  -4.243  0.00  0.00    -0.700 OA
ENDBRANCH   2  10
BRANCH   2  13
ATOM     13  C   LIG    1        0.057   0.199  -4.609  0.00  0.00    +0.060 C 
BRANCH  13  14
ATOM     14  C   LIG    1        0.222   0.604  -3.167  0.00  0.00    +0.520 C 
ATOM     15  N   LIG    1       -0.802   1.180  -2.507  0.00  0.00    -0.620 N 
ATOM     16  C   LIG    1       -2.159   1.490  -3.046  0.00  0.00    +0.240 C 
ATOM     17  C   LIG    1       -3.028   1.941  -1.827  0.00  0.00    +0.040 C 
ATOM     18  C   LIG    1       -2.277   1.279  -0.681  0.00  0.00    -0.040 C 
ATOM     19  C   LIG    1       -2.272   1.858   0.716  0.00  0.00    +0.030 C 
ATOM     20  C   LIG    1       -0.820   1.627   1.232  0.00  0.00    +0.020 C 
ATOM     21  C   LIG    1       -0.013   1.086   0.008  0.00  0.00    +0.030 C 
ATOM     22  C   LIG    1       -0.813   1.620  -1.149  0.00  0.00    +0.180 C 
ATOM     23  O   LIG    1        1.277   0.411  -2.600  0.00  0.00    -0.490 OA
ENDBRANCH  13  14
ENDBRANCH   2  13
TORSDOF 4
