REMARK  Name = ZINCrg00000xb53P.0
REMARK                            x       y       z     vdW  Elec       q    Type
REMARK                         _______ _______ _______ _____ _____    ______ ____
ROOT
ATOM      1  C   LIG    1        0.111   0.024  -0.242  0.00  0.00    +0.150 C 
ATOM      2  C   LIG    1        0.286  -0.758   1.087  0.00  0.00    +0.020 C 
ATOM      3  C   LIG    1       -0.265  -2.154   0.703  0.00  0.00    +0.200 C 
ATOM      4  N   LIG    1       -1.403  -1.876  -0.199  0.00  0.00    -0.500 NA
ATOM      5  C   LIG    1       -1.203  -0.550  -0.813  0.00  0.00    +0.220 C 
ENDROOT
BRANCH   1   6
ATOM      6  O   LIG    1       -0.017   1.425   0.010  0.00  0.00    -0.290 OA
BRANCH   6   9
ATOM      7  C   LIG    1        3.510   2.314  -0.056  0.00  0.00    +0.140 A 
ATOM      8  C   LIG    1        2.370   1.536  -0.077  0.00  0.00    -0.100 A 
ATOM      9  C   LIG    1        1.127   2.155   0.027  0.00  0.00    +0.170 A 
ATOM     10  C   LIG    1        1.087   3.542   0.144  0.00  0.00    -0.050 A 
ATOM     11  C   LIG    1        2.272   4.248   0.163  0.00  0.00    +0.310 A 
ATOM     12  N   LIG    1        3.432   3.626   0.062  0.00  0.00    -0.490 NA
BRANCH   7  13
ATOM     13  C   LIG    1        4.861   1.656  -0.168  0.00  0.00    +0.340 C 
BRANCH  13  16
ATOM     14  C   LIG    1        6.932   1.148  -3.348  0.00  0.00    +0.110 C 
ATOM     15  C   LIG    1        6.484   1.133  -1.909  0.00  0.00    +0.510 C 
ATOM     16  N   LIG    1        5.296   1.671  -1.567  0.00  0.00    -0.720 N 
ATOM     17  H   LIG    1        4.730   2.067  -2.247  0.00  0.00    +0.400 HD
ATOM     18  O   LIG    1        7.193   0.637  -1.058  0.00  0.00    -0.540 OA
ENDBRANCH  13  16
ENDBRANCH   7  13
ENDBRANCH   6   9
ENDBRANCH   1   6
BRANCH   4  19
ATOM     19  C   LIG    1       -1.528  -2.918  -1.227  0.00  0.00    +0.210 C 
BRANCH  19  20
ATOM     20  C   LIG    1       -1.973  -4.206  -0.584  0.00  0.00    +0.520 C 
ATOM     21  N   LIG    1       -2.156  -5.308  -1.338  0.00  0.00    -0.730 N 
ATOM     22  H   LIG    1       -2.000  -5.272  -2.295  0.00  0.00    +0.400 HD
ATOM     23  O   LIG    1       -2.167  -4.252   0.613  0.00  0.00    -0.510 OA
BRANCH  21  24
ATOM     24  C   LIG    1       -2.588  -6.561  -0.713  0.00  0.00    +0.400 C 
BRANCH  24  25
ATOM     25  C   LIG    1       -2.716  -7.630  -1.768  0.00  0.00    -0.040 A 
ATOM     26  C   LIG    1       -1.741  -8.469  -2.159  0.00  0.00    -0.030 A 
ATOM     27  C   LIG    1       -2.293  -9.300  -3.161  0.00  0.00    -0.070 A 
ATOM     28  C   LIG    1       -3.573  -8.918  -3.322  0.00  0.00    +0.180 A 
ATOM     29  O   LIG    1       -3.825  -7.910  -2.471  0.00  0.00    -0.170 OA
ENDBRANCH  24  25
ENDBRANCH  21  24
ENDBRANCH  19  20
ENDBRANCH   4  19
TORSDOF 8
