REMARK  Name = ZINCpe000000YeKb.0
REMARK                            x       y       z     vdW  Elec       q    Type
REMARK                         _______ _______ _______ _____ _____    ______ ____
ROOT
ATOM      1  N   LIG    1        1.206  -2.052  -0.021  0.00  0.00    -0.700 N 
ATOM      2  H   LIG    1        2.050  -2.525   0.050  0.00  0.00    +0.430 HD
ENDROOT
BRANCH   1   7
ATOM      3  C   LIG    1        1.125   3.524   0.026  0.00  0.00    +0.360 C 
ATOM      4  N   LIG    1        1.147   2.060  -0.018  0.00  0.00    -0.550 N 
ATOM      5  C   LIG    1        1.159   1.431  -1.210  0.00  0.00    +0.570 A 
ATOM      6  C   LIG    1        1.180   0.011  -1.246  0.00  0.00    -0.200 A 
ATOM      7  C   LIG    1        1.187  -0.687  -0.034  0.00  0.00    +0.510 A 
ATOM      8  N   LIG    1        1.174   0.018   1.140  0.00  0.00    -0.530 N 
ATOM      9  C   LIG    1        1.181  -0.699   2.417  0.00  0.00    +0.360 C 
ATOM     10  O   LIG    1        1.153   2.073  -2.244  0.00  0.00    -0.490 OA
ATOM     11  C   LIG    1        1.154   1.362   1.131  0.00  0.00    +0.700 A 
ATOM     12  O   LIG    1        1.137   1.962   2.188  0.00  0.00    -0.520 OA
BRANCH   6  13
ATOM     13  C   LIG    1        1.193  -0.690  -2.495  0.00  0.00    +0.280 C 
ATOM     14  N   LIG    1        1.204  -1.245  -3.486  0.00  0.00    -0.390 NA
ENDBRANCH   6  13
ENDBRANCH   1   7
BRANCH   1  15
ATOM     15  C   LIG    1        0.007  -2.769  -0.111  0.00  0.00    +0.160 A 
ATOM     16  C   LIG    1       -1.192  -2.097  -0.307  0.00  0.00    -0.020 A 
ATOM     17  C   LIG    1       -2.373  -2.805  -0.402  0.00  0.00    +0.050 A 
ATOM     18  C   LIG    1       -2.364  -4.189  -0.289  0.00  0.00    +0.140 A 
ATOM     19  C   LIG    1       -1.165  -4.861  -0.087  0.00  0.00    +0.020 A 
ATOM     20  C   LIG    1        0.017  -4.154   0.002  0.00  0.00    +0.000 A 
BRANCH  18  21
ATOM     21  N   LIG    1       -3.563  -4.907  -0.379  0.00  0.00    -0.560 N 
ATOM     22  C   LIG    1       -3.652  -6.372  -0.395  0.00  0.00    +0.260 C 
ATOM     23  C   LIG    1       -5.064  -6.693  -0.934  0.00  0.00    +0.060 C 
ATOM     24  C   LIG    1       -5.845  -5.414  -0.555  0.00  0.00    +0.070 C 
ATOM     25  C   LIG    1       -4.781  -4.343  -0.456  0.00  0.00    +0.510 C 
ATOM     26  O   LIG    1       -4.995  -3.149  -0.450  0.00  0.00    -0.510 OA
ENDBRANCH  18  21
ENDBRANCH   1  15
TORSDOF 4
