REMARK  Name = ZINCbu00000003uO.1
REMARK                            x       y       z     vdW  Elec       q    Type
REMARK                         _______ _______ _______ _____ _____    ______ ____
ROOT
ATOM      1  N   LIG    1       -2.251   2.238   2.648  0.00  0.00    -0.410 N 
ATOM      2  C   LIG    1       -1.054   2.236   3.273  0.00  0.00    +0.540 C 
ATOM      3  N   LIG    1       -0.142   1.836   2.430  0.00  0.00    -0.470 N 
ATOM      4  C   LIG    1       -0.718   1.572   1.248  0.00  0.00    +0.030 C 
ATOM      5  C   LIG    1       -0.013   1.086   0.008  0.00  0.00    +0.200 C 
ATOM      6  H   LIG    1        0.803   1.745   2.627  0.00  0.00    +0.460 HD
ATOM      7  C   LIG    1       -2.036   1.822   1.362  0.00  0.00    +0.060 C 
ATOM      8  C   LIG    1       -3.076   1.671   0.281  0.00  0.00    +0.200 C 
ENDROOT
BRANCH   1   9
ATOM      9  C   LIG    1       -3.538   2.620   3.235  0.00  0.00    +0.410 C 
BRANCH   9  11
ATOM     10  C   LIG    1       -4.138   1.029   4.988  0.00  0.00    +0.190 C 
ATOM     11  C   LIG    1       -4.249   1.388   3.732  0.00  0.00    -0.200 C 
ATOM     12 BR   LIG    1       -5.302   0.360   2.544  0.00  0.00    -0.030 Br
ENDBRANCH   9  11
ENDBRANCH   1   9
TORSDOF 2
