REMARK  Name = ZINCpe000000XxgH.0
REMARK                            x       y       z     vdW  Elec       q    Type
REMARK                         _______ _______ _______ _____ _____    ______ ____
ROOT
ATOM      1  N   LIG    1        0.002  -0.004   0.002  0.00  0.00    -0.600 N 
ATOM      2  C   LIG    1       -1.023  -0.874  -0.588  0.00  0.00    +0.410 C 
ATOM      3  C   LIG    1       -0.561  -2.289  -0.346  0.00  0.00    +0.080 A 
ATOM      4  C   LIG    1        0.639  -2.201   0.333  0.00  0.00    -0.300 A 
ATOM      5  C   LIG    1        1.079  -3.525   0.564  0.00  0.00    +0.330 A 
ATOM      6  N   LIG    1        0.196  -4.340   0.055  0.00  0.00    -0.280 NA
ATOM      7  N   LIG    1       -0.837  -3.590  -0.519  0.00  0.00    -0.280 N 
ATOM      8  C   LIG    1        0.965  -0.781   0.529  0.00  0.00    +0.600 C 
ATOM      9  O   LIG    1        1.962  -0.368   1.090  0.00  0.00    -0.520 OA
ENDROOT
BRANCH   7  10
ATOM     10  C   LIG    1       -1.968  -4.109  -1.164  0.00  0.00    +0.130 A 
ATOM     11  C   LIG    1       -3.192  -3.464  -1.049  0.00  0.00    +0.010 A 
ATOM     12  C   LIG    1       -4.304  -3.976  -1.689  0.00  0.00    +0.040 A 
ATOM     13  C   LIG    1       -4.200  -5.136  -2.436  0.00  0.00    +0.020 A 
ATOM     14  C   LIG    1       -2.984  -5.783  -2.547  0.00  0.00    +0.040 A 
ATOM     15  C   LIG    1       -1.868  -5.273  -1.914  0.00  0.00    +0.040 A 
ENDBRANCH   7  10
BRANCH   1  16
ATOM     16  C   LIG    1       -0.018   1.461   0.010  0.00  0.00    +0.370 C 
BRANCH  16  22
ATOM     17  C   LIG    1       -2.774   6.061   2.896  0.00  0.00    +0.040 C 
ATOM     18  C   LIG    1       -1.465   5.408   2.446  0.00  0.00    +0.120 C 
ATOM     19  C   LIG    1       -1.273   5.563   0.914  0.00  0.00    +0.020 C 
ATOM     20  C   LIG    1       -0.369   4.344   0.592  0.00  0.00    +0.260 C 
ATOM     21  N   LIG    1       -0.862   3.269   1.472  0.00  0.00    -0.620 N 
ATOM     22  C   LIG    1       -0.723   1.947   1.250  0.00  0.00    +0.510 C 
ATOM     23  O   LIG    1       -1.166   1.148   2.048  0.00  0.00    -0.520 OA
ATOM     24  C   LIG    1       -1.525   3.878   2.634  0.00  0.00    +0.280 C 
BRANCH  18  25
ATOM     25  O   LIG    1       -0.354   5.961   3.154  0.00  0.00    -0.550 OA
ATOM     26  H   LIG    1       -0.271   6.921   3.068  0.00  0.00    +0.380 HD
ENDBRANCH  18  25
ENDBRANCH  16  22
ENDBRANCH   1  16
TORSDOF 4
