REMARK  Name = ZINCqH0000000qLv.0
REMARK                            x       y       z     vdW  Elec       q    Type
REMARK                         _______ _______ _______ _____ _____    ______ ____
ROOT
ATOM      1  C   LIG    1       -0.066   6.649   1.896  0.00  0.00    +0.060 C 
ENDROOT
BRANCH   1   2
ATOM      2  C   LIG    1        0.053   8.136   1.683  0.00  0.00    +0.520 C 
ATOM      3  N   LIG    1        0.001   8.973   2.738  0.00  0.00    -0.730 N 
ATOM      4  H   LIG    1       -0.113   8.619   3.633  0.00  0.00    +0.400 HD
ATOM      5  O   LIG    1        0.195   8.579   0.563  0.00  0.00    -0.540 OA
BRANCH   3   6
ATOM      6  C   LIG    1        0.116  10.419   2.531  0.00  0.00    +0.310 C 
BRANCH   6   7
ATOM      7  C   LIG    1       -0.094  11.143   3.862  0.00  0.00    -0.110 C 
ATOM      8  C   LIG    1        0.939  12.199   4.263  0.00  0.00    +0.050 C 
ATOM      9  C   LIG    1        0.900  10.852   4.989  0.00  0.00    +0.030 C 
BRANCH   7  10
ATOM     10  C   LIG    1       -1.529  11.392   4.248  0.00  0.00    -0.050 A 
ATOM     11  C   LIG    1       -1.902  11.369   5.579  0.00  0.00    +0.000 A 
ATOM     12  C   LIG    1       -3.217  11.602   5.933  0.00  0.00    +0.000 A 
ATOM     13  C   LIG    1       -4.163  11.848   4.955  0.00  0.00    +0.000 A 
ATOM     14  C   LIG    1       -3.792  11.865   3.623  0.00  0.00    +0.000 A 
ATOM     15  C   LIG    1       -2.475  11.637   3.270  0.00  0.00    +0.010 A 
ENDBRANCH   7  10
ENDBRANCH   6   7
ENDBRANCH   3   6
ENDBRANCH   1   2
BRANCH   1  16
ATOM     16  C   LIG    1        0.024   5.932   0.547  0.00  0.00    +0.320 C 
BRANCH  16  17
ATOM     17  C   LIG    1        0.029   4.441   0.770  0.00  0.00    -0.080 A 
ATOM     18  C   LIG    1       -0.447   3.594  -0.214  0.00  0.00    +0.040 A 
ATOM     19  C   LIG    1       -0.443   2.227  -0.010  0.00  0.00    +0.020 A 
ATOM     20  C   LIG    1        0.038   1.706   1.178  0.00  0.00    -0.040 A 
ATOM     21  C   LIG    1        0.509   2.555   2.164  0.00  0.00    +0.020 A 
ATOM     22 CL   LIG    1        0.044  -0.011   1.434  0.00  0.00    -0.070 Cl
ATOM     23  C   LIG    1        0.510   3.921   1.957  0.00  0.00    +0.030 A 
ENDBRANCH  16  17
BRANCH  16  26
ATOM     24  C   LIG    1       -3.543   6.205  -0.809  0.00  0.00    +0.090 C 
ATOM     25  C   LIG    1       -2.371   5.935   0.099  0.00  0.00    +0.510 C 
ATOM     26  N   LIG    1       -1.129   6.298  -0.279  0.00  0.00    -0.720 N 
ATOM     27  H   LIG    1       -0.999   6.803  -1.097  0.00  0.00    +0.410 HD
ATOM     28  O   LIG    1       -2.545   5.392   1.169  0.00  0.00    -0.540 OA
ENDBRANCH  16  26
ENDBRANCH   1  16
TORSDOF 7
