REMARK  Name = ZINCpe00000MJHYx.0
REMARK                            x       y       z     vdW  Elec       q    Type
REMARK                         _______ _______ _______ _____ _____    ______ ____
ROOT
ATOM      1  N   LIG    1       -6.558  -1.563  -1.364  0.00  0.00    -0.480 NA
ATOM      2  C   LIG    1       -7.098  -0.324  -1.979  0.00  0.00    +0.180 C 
ATOM      3  C   LIG    1       -7.968  -0.820  -3.154  0.00  0.00    +0.190 C 
ATOM      4  C   LIG    1       -8.359  -2.264  -2.781  0.00  0.00    +0.050 C 
ATOM      5  F   LIG    1       -9.111  -0.024  -3.282  0.00  0.00    -0.200 F 
ATOM      6  C   LIG    1       -7.694  -2.519  -1.412  0.00  0.00    +0.130 C 
ENDROOT
BRANCH   6   7
ATOM      7  C   LIG    1       -7.190  -3.938  -1.328  0.00  0.00    +0.530 C 
ATOM      8  N   LIG    1       -8.062  -4.965  -1.355  0.00  0.00    -0.620 N 
ATOM      9  C   LIG    1       -9.511  -4.726  -1.460  0.00  0.00    +0.240 C 
ATOM     10  C   LIG    1      -10.059  -5.598  -2.601  0.00  0.00    +0.220 C 
ATOM     11  O   LIG    1       -9.653  -6.953  -2.393  0.00  0.00    -0.380 OA
ATOM     12  C   LIG    1       -8.237  -7.150  -2.420  0.00  0.00    +0.220 C 
ATOM     13  C   LIG    1       -7.595  -6.358  -1.275  0.00  0.00    +0.260 C 
ATOM     14  O   LIG    1       -6.001  -4.154  -1.237  0.00  0.00    -0.510 OA
ENDBRANCH   6   7
BRANCH   1  15
ATOM     15  C   LIG    1       -6.131  -1.321   0.021  0.00  0.00    +0.220 C 
BRANCH  15  19
ATOM     16  C   LIG    1       -2.458   0.867   0.018  0.00  0.00    -0.140 A 
ATOM     17  C   LIG    1       -2.442  -0.528   0.005  0.00  0.00    +0.040 A 
ATOM     18  C   LIG    1       -3.631  -1.228   0.011  0.00  0.00    +0.030 A 
ATOM     19  C   LIG    1       -4.837  -0.550   0.021  0.00  0.00    -0.050 A 
ATOM     20  C   LIG    1       -4.859   0.834   0.029  0.00  0.00    +0.010 A 
ATOM     21  C   LIG    1       -3.677   1.546   0.028  0.00  0.00    +0.080 A 
BRANCH  16  25
ATOM     22  C   LIG    1        1.248   1.716  -0.001  0.00  0.00    +0.290 C 
ATOM     23  N   LIG    1       -0.011   0.966   0.007  0.00  0.00    -0.730 N 
ATOM     24  H   LIG    1        0.002  -0.004   0.002  0.00  0.00    +0.400 HD
ATOM     25  C   LIG    1       -1.187   1.624   0.017  0.00  0.00    +0.560 C 
ATOM     26  O   LIG    1       -1.204   2.839   0.023  0.00  0.00    -0.540 OA
ENDBRANCH  16  25
ENDBRANCH  15  19
ENDBRANCH   1  15
TORSDOF 4
