REMARK  Name = ZINCqH000000736D.0
REMARK                            x       y       z     vdW  Elec       q    Type
REMARK                         _______ _______ _______ _____ _____    ______ ____
ROOT
ATOM      1  C   LIG    1       -4.701  -0.869   1.829  0.00  0.00    +0.570 C 
ATOM      2  N   LIG    1       -4.279   0.230   1.173  0.00  0.00    -0.600 N 
ATOM      3  C   LIG    1       -5.176   0.945   0.255  0.00  0.00    +0.270 C 
ATOM      4  C   LIG    1       -5.222   2.421   0.660  0.00  0.00    +0.030 C 
ATOM      5  C   LIG    1       -3.797   2.978   0.707  0.00  0.00    +0.040 C 
ATOM      6  C   LIG    1       -2.984   2.215   1.755  0.00  0.00    +0.090 C 
ATOM      7  C   LIG    1       -2.913   0.736   1.362  0.00  0.00    +0.290 C 
ATOM      8  O   LIG    1       -3.927  -1.495   2.527  0.00  0.00    -0.520 OA
ENDROOT
BRANCH   6   9
ATOM      9  C   LIG    1       -1.591   2.785   1.823  0.00  0.00    +0.290 A 
ATOM     10  N   LIG    1       -1.196   3.687   2.674  0.00  0.00    -0.480 NA
ATOM     11  C   LIG    1        0.112   3.979   2.455  0.00  0.00    +0.050 A 
ATOM     12  C   LIG    1        1.018   4.856   3.058  0.00  0.00    +0.070 A 
ATOM     13  C   LIG    1        2.303   4.927   2.601  0.00  0.00    +0.000 A 
ATOM     14  C   LIG    1        2.723   4.135   1.542  0.00  0.00    +0.030 A 
ATOM     15  C   LIG    1        1.847   3.261   0.933  0.00  0.00    +0.010 A 
ATOM     16  C   LIG    1        0.537   3.176   1.383  0.00  0.00    +0.050 A 
ATOM     17  N   LIG    1       -0.562   2.429   1.008  0.00  0.00    -0.600 N 
ATOM     18  H   LIG    1       -0.596   1.775   0.292  0.00  0.00    +0.420 HD
ENDBRANCH   6   9
BRANCH   1  22
ATOM     19  C   LIG    1       -8.736  -2.144   1.460  0.00  0.00    +0.180 A 
ATOM     20  C   LIG    1       -7.962  -1.947   0.321  0.00  0.00    -0.010 A 
ATOM     21  C   LIG    1       -6.654  -1.534   0.437  0.00  0.00    +0.130 A 
ATOM     22  C   LIG    1       -6.102  -1.311   1.701  0.00  0.00    -0.210 A 
ATOM     23  C   LIG    1       -6.882  -1.515   2.846  0.00  0.00    +0.190 A 
ATOM     24  F   LIG    1       -6.353  -1.306   4.072  0.00  0.00    -0.120 F 
ATOM     25  C   LIG    1       -8.194  -1.925   2.720  0.00  0.00    -0.100 A 
BRANCH  19  27
ATOM     26  C   LIG    1      -10.763  -2.734   2.549  0.00  0.00    +0.250 C 
ATOM     27  O   LIG    1      -10.024  -2.551   1.339  0.00  0.00    -0.300 OA
ENDBRANCH  19  27
ENDBRANCH   1  22
TORSDOF 3
