REMARK  Name = ZINCqH0000032TMk.0
REMARK                            x       y       z     vdW  Elec       q    Type
REMARK                         _______ _______ _______ _____ _____    ______ ____
ROOT
ATOM      1  C   LIG    1       -0.853  -1.304   0.061  0.00  0.00    +0.530 C 
ENDROOT
BRANCH   1   2
ATOM      2  N   LIG    1        0.491  -0.724   0.103  0.00  0.00    -0.380 N 
ATOM      3  N   LIG    1        0.816   0.614   0.372  0.00  0.00    -0.270 NA
ATOM      4  C   LIG    1        2.112   0.727   0.316  0.00  0.00    +0.300 A 
ATOM      5  O   LIG    1        2.648  -0.478   0.022  0.00  0.00    -0.210 OA
ATOM      6  C   LIG    1        1.655  -1.374  -0.111  0.00  0.00    +0.420 A 
ATOM      7  S   LIG    1        1.833  -3.036  -0.482  0.00  0.00    -0.450 S 
BRANCH   4   8
ATOM      8  C   LIG    1        2.875   1.974   0.538  0.00  0.00    -0.040 A 
ATOM      9  C   LIG    1        2.204   3.163   0.831  0.00  0.00    +0.100 A 
ATOM     10  C   LIG    1        2.922   4.322   1.043  0.00  0.00    +0.040 A 
ATOM     11  C   LIG    1        4.304   4.310   0.955  0.00  0.00    -0.000 A 
ATOM     12  C   LIG    1        4.974   3.135   0.659  0.00  0.00    +0.040 A 
ATOM     13 CL   LIG    1        5.199   5.774   1.215  0.00  0.00    -0.050 Cl
ATOM     14  C   LIG    1        4.268   1.968   0.451  0.00  0.00    +0.090 A 
ENDBRANCH   4   8
ENDBRANCH   1   2
BRANCH   1  15
ATOM     15  N   LIG    1       -1.516  -0.916  -1.192  0.00  0.00    -0.530 NA
BRANCH  15  16
ATOM     16  C   LIG    1       -2.104   0.426  -1.082  0.00  0.00    +0.190 C 
ATOM     17  C   LIG    1       -2.104   1.115  -2.458  0.00  0.00    +0.090 C 
ATOM     18  C   LIG    1       -3.018   2.354  -2.390  0.00  0.00    -0.310 C 
ATOM     19  S   LIG    1       -4.258   1.962  -1.104  0.00  0.00    +2.390 S 
ATOM     20  O   LIG    1       -5.531   1.796  -1.713  0.00  0.00    -0.930 OA
ATOM     21  O   LIG    1       -4.106   2.860  -0.014  0.00  0.00    -0.930 OA
ATOM     22  C   LIG    1       -3.585   0.322  -0.637  0.00  0.00    -0.350 C 
ENDBRANCH  15  16
BRANCH  15  23
ATOM     23  C   LIG    1       -2.530  -1.905  -1.579  0.00  0.00    +0.200 C 
BRANCH  23  24
ATOM     24  C   LIG    1       -3.045  -1.583  -2.984  0.00  0.00    +0.020 C 
BRANCH  24  26
ATOM     25  C   LIG    1       -4.485  -2.385  -4.861  0.00  0.00    +0.020 C 
ATOM     26  C   LIG    1       -3.970  -2.707  -3.457  0.00  0.00    +0.000 C 
ENDBRANCH  24  26
ENDBRANCH  23  24
ENDBRANCH  15  23
ENDBRANCH   1  15
TORSDOF 7
