REMARK  Name = ZINCkj00000kKxmD.1
REMARK                            x       y       z     vdW  Elec       q    Type
REMARK                         _______ _______ _______ _____ _____    ______ ____
ROOT
ATOM      1  C   LIG    1       -1.241   2.226   0.020  0.00  0.00    +0.350 C 
ENDROOT
BRANCH   1   2
ATOM      2  C   LIG    1       -0.016   1.347   0.009  0.00  0.00    +0.150 A 
ATOM      3  N   LIG    1        1.227   1.749  -0.000  0.00  0.00    -0.260 NA
ATOM      4  N   LIG    1        2.013   0.729  -0.008  0.00  0.00    -0.290 NA
ATOM      5  C   LIG    1        1.307  -0.365   0.002  0.00  0.00    +0.200 A 
ATOM      6  C   LIG    1        1.821  -1.781   0.020  0.00  0.00    +0.170 C 
ATOM      7  C   LIG    1        1.061  -2.603  -1.025  0.00  0.00    +0.030 C 
ATOM      8  C   LIG    1       -0.201  -3.187  -0.398  0.00  0.00    +0.020 C 
ATOM      9  C   LIG    1       -0.770  -2.231   0.650  0.00  0.00    +0.030 C 
ATOM     10  C   LIG    1       -1.151  -0.905  -0.015  0.00  0.00    +0.280 C 
ATOM     11  N   LIG    1        0.002  -0.004   0.002  0.00  0.00    -0.470 N 
ENDBRANCH   1   2
BRANCH   1  15
ATOM     12  N   LIG    1       -3.478   2.618   3.585  0.00  0.00    -0.380 N 
ATOM     13  C   LIG    1       -3.006   3.844   2.928  0.00  0.00    +0.280 C 
ATOM     14  C   LIG    1       -2.670   3.542   1.466  0.00  0.00    +0.220 C 
ATOM     15  N   LIG    1       -1.632   2.503   1.409  0.00  0.00    -0.530 NA
ATOM     16  C   LIG    1       -2.081   1.278   2.085  0.00  0.00    +0.200 C 
ATOM     17  C   LIG    1       -2.421   1.599   3.542  0.00  0.00    +0.280 C 
ATOM     18  H   LIG    1       -4.297   2.273   3.106  0.00  0.00    +0.420 HD
BRANCH  12  19
ATOM     19  C   LIG    1       -3.817   2.912   4.984  0.00  0.00    +0.300 C 
BRANCH  19  21
ATOM     20  C   LIG    1       -3.558   1.289   6.789  0.00  0.00    +0.130 C 
ATOM     21  C   LIG    1       -4.185   1.633   5.691  0.00  0.00    -0.110 C 
ENDBRANCH  19  21
ENDBRANCH  12  19
ENDBRANCH   1  15
TORSDOF 4
