REMARK  Name = ZINCrH00000tj0IS.0
REMARK                            x       y       z     vdW  Elec       q    Type
REMARK                         _______ _______ _______ _____ _____    ______ ____
ROOT
ATOM      1  N   LIG    1       -0.424  -6.894  -2.420  0.00  0.00    -0.990 NA
ATOM      2  C   LIG    1       -1.726  -7.591  -2.482  0.00  0.00    +0.280 C 
ATOM      3  C   LIG    1       -2.024  -8.006  -1.020  0.00  0.00    +0.040 C 
ATOM      4  C   LIG    1       -1.473  -6.788  -0.232  0.00  0.00    +0.050 C 
ATOM      5  C   LIG    1       -0.239  -6.371  -1.059  0.00  0.00    +0.240 C 
ENDROOT
BRANCH   5   6
ATOM      6  C   LIG    1       -0.133  -4.868  -1.098  0.00  0.00    +0.490 C 
ATOM      7  N   LIG    1        0.035  -4.174   0.045  0.00  0.00    -0.670 N 
ATOM      8  H   LIG    1        0.137  -4.644   0.887  0.00  0.00    +0.410 HD
ATOM      9  O   LIG    1       -0.198  -4.283  -2.158  0.00  0.00    -0.480 OA
BRANCH   7  10
ATOM     10  C   LIG    1        0.062  -2.775   0.017  0.00  0.00    +0.130 A 
ATOM     11  C   LIG    1       -0.894  -2.075  -0.708  0.00  0.00    -0.070 A 
ATOM     12  C   LIG    1       -0.864  -0.695  -0.734  0.00  0.00    +0.010 A 
ATOM     13  C   LIG    1        0.115  -0.009  -0.039  0.00  0.00    -0.090 A 
ATOM     14  C   LIG    1        1.071  -0.704   0.680  0.00  0.00    +0.010 A 
ATOM     15  C   LIG    1        0.145   1.497  -0.070  0.00  0.00    +0.100 C 
ATOM     16  C   LIG    1       -1.962  -2.821  -1.465  0.00  0.00    +0.100 C 
ATOM     17  C   LIG    1        1.044  -2.084   0.714  0.00  0.00    -0.090 A 
ATOM     18  C   LIG    1        2.083  -2.840   1.502  0.00  0.00    +0.090 C 
ENDBRANCH   7  10
ENDBRANCH   5   6
BRANCH   1  19
ATOM     19  S   LIG    1        0.647  -6.729  -3.672  0.00  0.00    +2.710 S 
ATOM     20  O   LIG    1        1.438  -5.586  -3.375  0.00  0.00    -0.930 OA
ATOM     21  O   LIG    1       -0.110  -6.861  -4.868  0.00  0.00    -0.950 OA
BRANCH  19  26
ATOM     22  C   LIG    1        4.371 -11.472  -3.478  0.00  0.00    +0.090 C 
ATOM     23  C   LIG    1        3.441 -10.287  -3.527  0.00  0.00    -0.030 A 
ATOM     24  C   LIG    1        2.273 -10.355  -4.263  0.00  0.00    -0.010 A 
ATOM     25  C   LIG    1        1.420  -9.268  -4.308  0.00  0.00    +0.120 A 
ATOM     26  C   LIG    1        1.734  -8.114  -3.615  0.00  0.00    -0.690 A 
ATOM     27  C   LIG    1        2.905  -8.044  -2.883  0.00  0.00    +0.120 A 
ATOM     28  C   LIG    1        3.755  -9.133  -2.834  0.00  0.00    -0.010 A 
ENDBRANCH  19  26
ENDBRANCH   1  19
TORSDOF 4
