REMARK  Name = ZINCtV000002K7pN.0
REMARK                            x       y       z     vdW  Elec       q    Type
REMARK                         _______ _______ _______ _____ _____    ______ ____
ROOT
ATOM      1  C   LIG    1        3.146  -1.086  -2.938  0.00  0.00    +0.190 C 
ATOM      2  C   LIG    1        1.951  -0.266  -3.350  0.00  0.00    +0.350 A 
ATOM      3  N   LIG    1        1.188   0.265  -2.413  0.00  0.00    -0.530 NA
ATOM      4  C   LIG    1        0.122   0.990  -2.724  0.00  0.00    +0.200 A 
ATOM      5  C   LIG    1       -0.189   1.202  -4.094  0.00  0.00    -0.170 A 
ATOM      6  C   LIG    1       -1.270   1.944  -4.705  0.00  0.00    +0.070 A 
ATOM      7  C   LIG    1       -1.263   1.937  -6.038  0.00  0.00    -0.120 A 
ATOM      8  S   LIG    1        0.087   1.010  -6.662  0.00  0.00    +0.200 S 
ATOM      9  C   LIG    1        0.656   0.621  -5.045  0.00  0.00    +0.100 A 
ATOM     10  N   LIG    1        1.706  -0.099  -4.630  0.00  0.00    -0.490 NA
ENDROOT
BRANCH   7  11
ATOM     11  C   LIG    1       -2.265   2.624  -6.882  0.00  0.00    -0.030 A 
ATOM     12  C   LIG    1       -3.310   3.336  -6.290  0.00  0.00    +0.030 A 
ATOM     13  C   LIG    1       -4.238   3.979  -7.083  0.00  0.00    +0.020 A 
ATOM     14  C   LIG    1       -4.140   3.911  -8.461  0.00  0.00    +0.020 A 
ATOM     15  C   LIG    1       -3.110   3.203  -9.054  0.00  0.00    +0.020 A 
ATOM     16  C   LIG    1       -2.172   2.559  -8.273  0.00  0.00    +0.010 A 
ENDBRANCH   7  11
BRANCH   4  17
ATOM     17  S   LIG    1       -0.888   1.685  -1.458  0.00  0.00    +0.070 S 
BRANCH  17  18
ATOM     18  C   LIG    1       -0.013   1.086   0.008  0.00  0.00    +0.110 C 
BRANCH  18  19
ATOM     19  C   LIG    1       -0.718   1.572   1.248  0.00  0.00    +0.520 C 
ATOM     20  N   LIG    1       -0.242   1.246   2.466  0.00  0.00    -0.650 N 
ATOM     21  H   LIG    1        0.555   0.699   2.544  0.00  0.00    +0.420 HD
ATOM     22  O   LIG    1       -1.714   2.256   1.150  0.00  0.00    -0.450 OA
BRANCH  20  23
ATOM     23  C   LIG    1       -0.894   1.696   3.614  0.00  0.00    +0.380 A 
ATOM     24  N   LIG    1       -1.978   2.447   3.499  0.00  0.00    -0.450 NA
ATOM     25  C   LIG    1       -2.629   2.889   4.559  0.00  0.00    +0.340 A 
ATOM     26  C   LIG    1       -2.192   2.590   5.835  0.00  0.00    -0.110 A 
ATOM     27  C   LIG    1       -1.055   1.809   5.998  0.00  0.00    +0.130 A 
ATOM     28 CL   LIG    1       -3.055   3.183   7.219  0.00  0.00    -0.040 Cl
ATOM     29  C   LIG    1       -0.397   1.356   4.867  0.00  0.00    -0.120 A 
ATOM     30 CL   LIG    1        1.029   0.377   5.012  0.00  0.00    -0.040 Cl
ENDBRANCH  20  23
ENDBRANCH  18  19
ENDBRANCH  17  18
ENDBRANCH   4  17
TORSDOF 5
