REMARK  Name = ZINCrD000000CGGu.0
REMARK                            x       y       z     vdW  Elec       q    Type
REMARK                         _______ _______ _______ _____ _____    ______ ____
ROOT
ATOM      1  C   LIG    1        2.380   3.125   4.213  0.00  0.00    +0.520 C 
ATOM      2  N   LIG    1        2.261   1.927   3.607  0.00  0.00    -0.550 N 
ATOM      3  C   LIG    1        1.503   1.798   2.356  0.00  0.00    +0.290 C 
ATOM      4  C   LIG    1        0.618   0.550   2.471  0.00  0.00    +0.030 C 
ATOM      5  C   LIG    1        1.512  -0.682   2.610  0.00  0.00    +0.090 C 
ATOM      6  C   LIG    1        2.520  -0.481   3.711  0.00  0.00    -0.160 A 
ATOM      7  C   LIG    1        3.122  -1.593   4.281  0.00  0.00    +0.150 A 
ATOM      8  C   LIG    1        4.054  -1.441   5.291  0.00  0.00    -0.060 A 
ATOM      9  C   LIG    1        4.393  -0.175   5.739  0.00  0.00    +0.150 A 
ATOM     10  C   LIG    1        3.796   0.938   5.175  0.00  0.00    -0.020 A 
ATOM     11  F   LIG    1        5.305  -0.027   6.724  0.00  0.00    -0.130 F 
ATOM     12  F   LIG    1        2.795  -2.830   3.848  0.00  0.00    -0.130 F 
ATOM     13  C   LIG    1        2.857   0.786   4.161  0.00  0.00    +0.210 A 
ATOM     14  O   LIG    1        2.909   3.204   5.302  0.00  0.00    -0.500 OA
ENDROOT
BRANCH   1  20
ATOM     15  O   LIG    1        2.136   9.143   3.735  0.00  0.00    -0.530 OA
ATOM     16  C   LIG    1        2.397   8.376   2.828  0.00  0.00    +0.590 C 
ATOM     17  N   LIG    1        1.932   7.111   2.860  0.00  0.00    -0.610 N 
ATOM     18  C   LIG    1        0.998   6.683   3.909  0.00  0.00    +0.280 C 
ATOM     19  C   LIG    1        1.563   5.436   4.595  0.00  0.00    +0.040 C 
ATOM     20  C   LIG    1        1.855   4.367   3.539  0.00  0.00    +0.000 C 
ATOM     21  C   LIG    1        2.901   4.893   2.554  0.00  0.00    +0.030 C 
ATOM     22  C   LIG    1        2.350   6.134   1.845  0.00  0.00    +0.280 C 
BRANCH  16  23
ATOM     23  C   LIG    1        3.221   8.830   1.693  0.00  0.00    -0.230 A 
ATOM     24  C   LIG    1        3.089   8.473   0.383  0.00  0.00    +0.220 A 
ATOM     25  O   LIG    1        4.029   9.107  -0.324  0.00  0.00    -0.170 OA
ATOM     26  C   LIG    1        4.793   9.871   0.473  0.00  0.00    +0.180 A 
ATOM     27  C   LIG    1        4.361   9.757   1.738  0.00  0.00    -0.010 A 
ENDBRANCH  16  23
ENDBRANCH   1  20
TORSDOF 2
