REMARK  Name = ZINCrH000004n4nj.0
REMARK                            x       y       z     vdW  Elec       q    Type
REMARK                         _______ _______ _______ _____ _____    ______ ____
ROOT
ATOM      1  N   LIG    1       -3.573  -0.987  -0.185  0.00  0.00    -0.730 N 
ATOM      2  H   LIG    1       -4.417  -0.510  -0.178  0.00  0.00    +0.400 HD
ATOM      3  C   LIG    1       -2.413  -0.306  -0.087  0.00  0.00    +0.710 C 
ATOM      4  N   LIG    1       -2.428   1.038   0.021  0.00  0.00    -0.680 N 
ATOM      5  H   LIG    1       -3.272   1.509   0.095  0.00  0.00    +0.410 HD
ATOM      6  O   LIG    1       -1.355  -0.904  -0.095  0.00  0.00    -0.570 OA
ENDROOT
BRANCH   4   7
ATOM      7  C   LIG    1       -1.223   1.753   0.025  0.00  0.00    +0.160 A 
ATOM      8  C   LIG    1       -0.096   1.211   0.627  0.00  0.00    +0.040 A 
ATOM      9  C   LIG    1        1.092   1.916   0.627  0.00  0.00    +0.040 A 
ATOM     10  C   LIG    1        1.164   3.168   0.033  0.00  0.00    +0.070 A 
ATOM     11  O   LIG    1        2.350   3.838   0.060  0.00  0.00    -0.310 OA
ATOM     12  C   LIG    1        2.478   4.954  -0.827  0.00  0.00    +0.260 C 
ATOM     13  C   LIG    1        1.195   5.788  -0.724  0.00  0.00    +0.170 C 
ATOM     14  N   LIG    1        0.067   4.971  -1.187  0.00  0.00    -0.490 N 
ATOM     15  C   LIG    1       -1.207   5.679  -1.002  0.00  0.00    +0.220 C 
ATOM     16  C   LIG    1        0.037   3.716  -0.570  0.00  0.00    +0.060 A 
ATOM     17  C   LIG    1       -1.158   3.005  -0.567  0.00  0.00    -0.020 A 
ENDBRANCH   4   7
BRANCH   1  18
ATOM     18  C   LIG    1       -3.557  -2.447  -0.302  0.00  0.00    +0.340 C 
BRANCH  18  22
ATOM     19  C   LIG    1       -7.254  -4.031   1.142  0.00  0.00    +0.130 A 
ATOM     20  C   LIG    1       -6.061  -4.679   1.429  0.00  0.00    -0.020 A 
ATOM     21  C   LIG    1       -4.867  -4.165   0.961  0.00  0.00    +0.070 A 
ATOM     22  C   LIG    1       -4.860  -3.006   0.207  0.00  0.00    -0.130 A 
ATOM     23  C   LIG    1       -6.047  -2.355  -0.075  0.00  0.00    +0.050 A 
ATOM     24  C   LIG    1       -7.244  -2.869   0.386  0.00  0.00    -0.070 A 
BRANCH  19  26
ATOM     25  C   LIG    1       -9.618  -3.815   1.268  0.00  0.00    +0.250 C 
ATOM     26  O   LIG    1       -8.429  -4.535   1.602  0.00  0.00    -0.320 OA
ENDBRANCH  19  26
ENDBRANCH  18  22
BRANCH  18  27
ATOM     27  C   LIG    1       -3.372  -2.839  -1.769  0.00  0.00    -0.070 C 
ATOM     28  C   LIG    1       -2.261  -3.838  -2.099  0.00  0.00    +0.020 C 
ATOM     29  C   LIG    1       -2.099  -2.363  -2.473  0.00  0.00    +0.030 C 
ENDBRANCH  18  27
ENDBRANCH   1  18
TORSDOF 5
