REMARK  Name = ZINCuk00000008n7.1
REMARK                            x       y       z     vdW  Elec       q    Type
REMARK                         _______ _______ _______ _____ _____    ______ ____
ROOT
ATOM      1  N   LIG    1        2.899   0.865   1.357  0.00  0.00    -0.510 N 
ATOM      2  H   LIG    1        2.194   0.268   1.763  0.00  0.00    +0.440 HD
ATOM      3  H   LIG    1        2.984   1.706   1.907  0.00  0.00    +0.420 HD
ENDROOT
BRANCH   1   4
ATOM      4  C   LIG    1        4.188   0.160   1.340  0.00  0.00    +0.190 C 
ATOM      5  C   LIG    1        4.591  -0.262   2.777  0.00  0.00    +0.110 C 
ATOM      6  C   LIG    1        5.871   0.531   3.052  0.00  0.00    +0.120 C 
ATOM      7  C   LIG    1        6.900  -0.200   3.901  0.00  0.00    +0.300 C 
ATOM      8  N   LIG    1        8.080   0.677   4.022  0.00  0.00    -0.380 N 
ATOM      9  C   LIG    1        8.638   1.008   2.708  0.00  0.00    +0.270 C 
ATOM     10  C   LIG    1        7.578   1.649   1.799  0.00  0.00    +0.240 C 
ATOM     11  H   LIG    1        7.811   1.529   4.490  0.00  0.00    +0.420 HD
ATOM     12  N   LIG    1        6.466   0.714   1.699  0.00  0.00    -0.520 NA
ATOM     13  C   LIG    1        5.320   1.114   0.872  0.00  0.00    +0.230 C 
BRANCH   8  14
ATOM     14  C   LIG    1        9.106  -0.006   4.821  0.00  0.00    +0.330 C 
BRANCH  14  15
ATOM     15  C   LIG    1       10.244   0.943   5.094  0.00  0.00    -0.170 A 
ATOM     16  C   LIG    1       11.311   1.013   4.218  0.00  0.00    +0.030 A 
ATOM     17  C   LIG    1       12.353   1.887   4.466  0.00  0.00    +0.030 A 
ATOM     18  C   LIG    1       12.333   2.683   5.595  0.00  0.00    +0.060 A 
ATOM     19  C   LIG    1       11.269   2.610   6.474  0.00  0.00    +0.030 A 
ATOM     20  C   LIG    1       10.224   1.740   6.224  0.00  0.00    +0.040 A 
ENDBRANCH  14  15
ENDBRANCH   8  14
ENDBRANCH   1   4
BRANCH   1  21
ATOM     21  C   LIG    1        2.514   1.214  -0.016  0.00  0.00    +0.360 C 
BRANCH  21  29
ATOM     22  C   LIG    1       -1.631   5.651  -1.794  0.00  0.00    +0.330 C 
ATOM     23  N   LIG    1       -1.401   5.984  -0.382  0.00  0.00    -0.390 N 
ATOM     24  C   LIG    1       -2.448   5.366   0.447  0.00  0.00    +0.300 C 
ATOM     25  C   LIG    1       -2.588   3.900   0.035  0.00  0.00    +0.150 C 
ATOM     26  C   LIG    1       -1.233   3.237   0.028  0.00  0.00    +0.230 A 
ATOM     27  C   LIG    1       -0.092   3.958   0.025  0.00  0.00    -0.250 A 
ATOM     28  C   LIG    1        1.150   3.298   0.010  0.00  0.00    +0.220 A 
ATOM     29  C   LIG    1        1.192   1.937   0.001  0.00  0.00    -0.280 A 
ATOM     30  C   LIG    1       -0.015   1.216   0.009  0.00  0.00    +0.530 A 
ATOM     31  O   LIG    1        0.002  -0.004   0.002  0.00  0.00    -0.510 OA
ATOM     32  N   LIG    1       -1.187   1.874   0.018  0.00  0.00    -0.590 N 
ATOM     33  H   LIG    1       -2.015   1.370   0.021  0.00  0.00    +0.440 HD
ATOM     34  C   LIG    1       -0.097   5.464   0.039  0.00  0.00    +0.350 C 
ATOM     35  H   LIG    1       -1.420   6.986  -0.263  0.00  0.00    +0.450 HD
ENDBRANCH  21  29
ENDBRANCH   1  21
TORSDOF 5
