REMARK  Name = ZINCuk00000008n7.0
REMARK                            x       y       z     vdW  Elec       q    Type
REMARK                         _______ _______ _______ _____ _____    ______ ____
ROOT
ATOM      1  N   LIG    1       -5.377  -4.190  -0.560  0.00  0.00    -0.510 N 
ATOM      2  H   LIG    1       -4.856  -3.797  -1.329  0.00  0.00    +0.420 HD
ATOM      3  H   LIG    1       -6.365  -4.091  -0.737  0.00  0.00    +0.440 HD
ENDROOT
BRANCH   1   4
ATOM      4  C   LIG    1       -5.028  -3.482   0.679  0.00  0.00    +0.190 C 
ATOM      5  C   LIG    1       -5.486  -2.002   0.602  0.00  0.00    +0.110 C 
ATOM      6  C   LIG    1       -4.179  -1.206   0.656  0.00  0.00    +0.110 C 
ATOM      7  C   LIG    1       -4.273   0.117   1.401  0.00  0.00    +0.300 C 
ATOM      8  N   LIG    1       -2.928   0.721   1.405  0.00  0.00    -0.380 N 
ATOM      9  C   LIG    1       -1.946  -0.160   2.042  0.00  0.00    +0.280 C 
ATOM     10  C   LIG    1       -1.917  -1.540   1.367  0.00  0.00    +0.240 C 
ATOM     11  H   LIG    1       -2.962   1.596   1.907  0.00  0.00    +0.440 HD
ATOM     12  N   LIG    1       -3.265  -2.087   1.435  0.00  0.00    -0.520 NA
ATOM     13  C   LIG    1       -3.486  -3.415   0.848  0.00  0.00    +0.230 C 
BRANCH   8  14
ATOM     14  C   LIG    1       -2.514   0.980   0.019  0.00  0.00    +0.300 C 
BRANCH  14  15
ATOM     15  C   LIG    1       -1.219   1.751   0.017  0.00  0.00    -0.170 A 
ATOM     16  C   LIG    1       -0.013   1.076   0.008  0.00  0.00    +0.020 A 
ATOM     17  C   LIG    1        1.175   1.783   0.000  0.00  0.00    +0.030 A 
ATOM     18  C   LIG    1        1.156   3.165   0.008  0.00  0.00    +0.060 A 
ATOM     19  C   LIG    1       -0.050   3.840   0.023  0.00  0.00    +0.030 A 
ATOM     20  C   LIG    1       -1.238   3.133   0.029  0.00  0.00    +0.040 A 
ENDBRANCH  14  15
ENDBRANCH   8  14
ENDBRANCH   1   4
BRANCH   1  21
ATOM     21  C   LIG    1       -5.044  -5.614  -0.420  0.00  0.00    +0.360 C 
BRANCH  21  29
ATOM     22  C   LIG    1       -4.169  -9.793  -5.089  0.00  0.00    +0.330 C 
ATOM     23  N   LIG    1       -4.127  -8.510  -5.804  0.00  0.00    -0.390 N 
ATOM     24  C   LIG    1       -5.459  -8.207  -6.351  0.00  0.00    +0.300 C 
ATOM     25  C   LIG    1       -6.495  -8.416  -5.247  0.00  0.00    +0.150 C 
ATOM     26  C   LIG    1       -6.076  -7.673  -4.002  0.00  0.00    +0.230 A 
ATOM     27  C   LIG    1       -4.810  -7.233  -3.833  0.00  0.00    -0.250 A 
ATOM     28  C   LIG    1       -4.461  -6.551  -2.653  0.00  0.00    +0.220 A 
ATOM     29  C   LIG    1       -5.401  -6.340  -1.692  0.00  0.00    -0.280 A 
ATOM     30  C   LIG    1       -6.708  -6.814  -1.898  0.00  0.00    +0.530 A 
ATOM     31  O   LIG    1       -7.565  -6.638  -1.046  0.00  0.00    -0.510 OA
ATOM     32  N   LIG    1       -7.015  -7.455  -3.038  0.00  0.00    -0.590 N 
ATOM     33  H   LIG    1       -7.921  -7.774  -3.176  0.00  0.00    +0.440 HD
ATOM     34  C   LIG    1       -3.744  -7.443  -4.876  0.00  0.00    +0.350 C 
ATOM     35  H   LIG    1       -3.455  -8.563  -6.554  0.00  0.00    +0.450 HD
ENDBRANCH  21  29
ENDBRANCH   1  21
TORSDOF 5
