REMARK  Name = ZINCwl0000000By0.0
REMARK                            x       y       z     vdW  Elec       q    Type
REMARK                         _______ _______ _______ _____ _____    ______ ____
ROOT
ATOM      1  C   LIG    1        8.456   2.748  -0.064  0.00  0.00    -0.100 A 
ATOM      2  C   LIG    1        8.936   3.240  -1.263  0.00  0.00    +0.070 A 
ATOM      3  C   LIG    1        9.908   4.223  -1.267  0.00  0.00    +0.030 A 
ATOM      4  C   LIG    1       10.407   4.707  -0.072  0.00  0.00    +0.050 A 
ATOM      5  C   LIG    1        9.931   4.210   1.127  0.00  0.00    -0.160 A 
ATOM      6  C   LIG    1        8.955   3.232   1.131  0.00  0.00    +0.050 A 
ENDROOT
BRANCH   1   7
ATOM      7  C   LIG    1        7.392   1.681  -0.060  0.00  0.00    +0.330 C 
BRANCH   7   9
ATOM      8  C   LIG    1        4.959   1.544  -0.037  0.00  0.00    +0.570 C 
ATOM      9  N   LIG    1        6.069   2.309  -0.044  0.00  0.00    -0.730 N 
ATOM     10  H   LIG    1        5.991   3.276  -0.038  0.00  0.00    +0.400 HD
ATOM     11  O   LIG    1        5.056   0.332  -0.045  0.00  0.00    -0.520 OA
BRANCH   8  19
ATOM     12  C   LIG    1       -2.452   1.173   0.020  0.00  0.00    +0.340 C 
ATOM     13  N   LIG    1       -1.180   1.900   0.018  0.00  0.00    -0.550 N 
ATOM     14  C   LIG    1       -1.182   3.258   0.030  0.00  0.00    +0.600 A 
ATOM     15  N   LIG    1       -0.098   3.975   0.023  0.00  0.00    -0.530 NA
ATOM     16  C   LIG    1        1.131   3.406   0.009  0.00  0.00    +0.190 A 
ATOM     17  C   LIG    1        2.295   4.181   0.002  0.00  0.00    +0.030 A 
ATOM     18  C   LIG    1        3.517   3.576  -0.013  0.00  0.00    +0.090 A 
ATOM     19  C   LIG    1        3.626   2.178  -0.021  0.00  0.00    -0.170 A 
ATOM     20  C   LIG    1        2.480   1.385  -0.014  0.00  0.00    +0.180 A 
ATOM     21  C   LIG    1        1.232   1.994   0.001  0.00  0.00    -0.210 A 
ATOM     22  C   LIG    1       -0.014   1.213   0.009  0.00  0.00    +0.550 A 
ATOM     23  O   LIG    1        0.002  -0.004   0.002  0.00  0.00    -0.500 OA
ENDBRANCH   8  19
ENDBRANCH   7   9
ENDBRANCH   1   7
BRANCH   5  24
ATOM     24  C   LIG    1       10.475   4.737   2.430  0.00  0.00    +0.320 C 
BRANCH  24  25
ATOM     25  N   LIG    1       11.632   3.931   2.839  0.00  0.00    -0.380 N 
ATOM     26  C   LIG    1       11.195   2.560   3.126  0.00  0.00    +0.240 C 
ATOM     27  C   LIG    1       12.408   1.695   3.474  0.00  0.00    +0.050 C 
ATOM     28  C   LIG    1       13.107   2.278   4.705  0.00  0.00    +0.070 C 
ATOM     29  C   LIG    1       13.493   3.732   4.420  0.00  0.00    +0.010 C 
ATOM     30  C   LIG    1       12.239   4.521   4.037  0.00  0.00    +0.290 C 
ATOM     31  H   LIG    1       12.312   3.917   2.092  0.00  0.00    +0.430 HD
BRANCH  29  32
ATOM     32  C   LIG    1       14.482   3.777   3.285  0.00  0.00    +0.520 C 
ATOM     33  O   LIG    1       14.213   4.384   2.270  0.00  0.00    -0.560 OA
ATOM     34  N   LIG    1       15.666   3.143   3.397  0.00  0.00    -0.830 N 
ATOM     35  H   LIG    1       16.303   3.171   2.666  0.00  0.00    +0.420 HD
ATOM     36  H   LIG    1       15.881   2.657   4.208  0.00  0.00    +0.410 HD
ENDBRANCH  29  32
ENDBRANCH  24  25
ENDBRANCH   5  24
TORSDOF 6
