REMARK  Name = ZINCwl0000000By0.1
REMARK                            x       y       z     vdW  Elec       q    Type
REMARK                         _______ _______ _______ _____ _____    ______ ____
ROOT
ATOM      1  C   LIG    1       -6.086   1.901   0.040  0.00  0.00    -0.100 A 
ATOM      2  C   LIG    1       -6.613   2.334   1.242  0.00  0.00    +0.070 A 
ATOM      3  C   LIG    1       -7.670   3.226   1.252  0.00  0.00    +0.030 A 
ATOM      4  C   LIG    1       -8.204   3.678   0.060  0.00  0.00    +0.040 A 
ATOM      5  C   LIG    1       -7.679   3.241  -1.142  0.00  0.00    -0.160 A 
ATOM      6  C   LIG    1       -6.620   2.353  -1.152  0.00  0.00    +0.050 A 
ENDROOT
BRANCH   1   7
ATOM      7  C   LIG    1       -4.931   0.933   0.029  0.00  0.00    +0.330 C 
BRANCH   7   9
ATOM      8  C   LIG    1       -2.496   1.014   0.019  0.00  0.00    +0.570 C 
ATOM      9  N   LIG    1       -3.669   1.677   0.028  0.00  0.00    -0.730 N 
ATOM     10  H   LIG    1       -3.678   2.647   0.034  0.00  0.00    +0.400 HD
ATOM     11  O   LIG    1       -2.485  -0.202   0.012  0.00  0.00    -0.520 OA
BRANCH   8  19
ATOM     12  C   LIG    1        4.919   1.304  -0.036  0.00  0.00    +0.340 C 
ATOM     13  N   LIG    1        3.587   1.916  -0.021  0.00  0.00    -0.550 N 
ATOM     14  C   LIG    1        3.468   3.268  -0.013  0.00  0.00    +0.600 A 
ATOM     15  N   LIG    1        2.325   3.885   0.001  0.00  0.00    -0.530 NA
ATOM     16  C   LIG    1        1.151   3.209   0.008  0.00  0.00    +0.190 A 
ATOM     17  C   LIG    1       -0.077   3.877   0.024  0.00  0.00    +0.030 A 
ATOM     18  C   LIG    1       -1.240   3.166   0.030  0.00  0.00    +0.090 A 
ATOM     19  C   LIG    1       -1.224   1.764   0.017  0.00  0.00    -0.170 A 
ATOM     20  C   LIG    1       -0.013   1.076   0.008  0.00  0.00    +0.180 A 
ATOM     21  C   LIG    1        1.176   1.794   0.001  0.00  0.00    -0.210 A 
ATOM     22  C   LIG    1        2.488   1.127  -0.015  0.00  0.00    +0.550 A 
ATOM     23  O   LIG    1        2.579  -0.087  -0.022  0.00  0.00    -0.490 OA
ENDBRANCH   8  19
ENDBRANCH   7   9
ENDBRANCH   1   7
BRANCH   5  24
ATOM     24  C   LIG    1       -8.262   3.733  -2.442  0.00  0.00    +0.320 C 
BRANCH  24  25
ATOM     25  N   LIG    1       -9.342   2.832  -2.867  0.00  0.00    -0.380 N 
ATOM     26  C   LIG    1      -10.438   2.891  -1.893  0.00  0.00    +0.240 C 
ATOM     27  C   LIG    1      -11.530   1.895  -2.288  0.00  0.00    +0.070 C 
ATOM     28  C   LIG    1      -12.061   2.252  -3.679  0.00  0.00    +0.060 C 
ATOM     29  C   LIG    1      -10.896   2.260  -4.673  0.00  0.00    -0.010 C 
ATOM     30  C   LIG    1       -9.828   3.243  -4.190  0.00  0.00    +0.290 C 
ATOM     31  H   LIG    1       -8.990   1.888  -2.917  0.00  0.00    +0.420 HD
BRANCH  29  32
ATOM     32  C   LIG    1      -11.395   2.686  -6.029  0.00  0.00    +0.530 C 
ATOM     33  O   LIG    1      -10.941   3.678  -6.559  0.00  0.00    -0.530 OA
ATOM     34  N   LIG    1      -12.346   1.964  -6.655  0.00  0.00    -0.840 N 
ATOM     35  H   LIG    1      -12.667   2.238  -7.528  0.00  0.00    +0.420 HD
ATOM     36  H   LIG    1      -12.710   1.170  -6.231  0.00  0.00    +0.410 HD
ENDBRANCH  29  32
ENDBRANCH  24  25
ENDBRANCH   5  24
TORSDOF 6
