REMARK  Name = ZINCrg000000rVuS.1
REMARK                            x       y       z     vdW  Elec       q    Type
REMARK                         _______ _______ _______ _____ _____    ______ ____
ROOT
ATOM      1  C   LIG    1       -0.047   1.107  -2.471  0.00  0.00    +0.510 C 
ATOM      2  N   LIG    1       -0.524   1.433  -3.689  0.00  0.00    -0.610 N 
ATOM      3  C   LIG    1        0.192   0.947  -4.885  0.00  0.00    +0.270 C 
ATOM      4  C   LIG    1       -0.796   0.461  -5.964  0.00  0.00    +0.040 C 
ATOM      5  C   LIG    1       -1.939  -0.285  -5.313  0.00  0.00    +0.220 C 
ATOM      6  N   LIG    1       -3.029   0.651  -5.042  0.00  0.00    -0.510 N 
ATOM      7  C   LIG    1       -2.970   1.345  -3.811  0.00  0.00    +0.200 C 
ATOM      8  C   LIG    1       -1.716   2.251  -3.775  0.00  0.00    +0.290 C 
ATOM      9  O   LIG    1        0.949   0.422  -2.373  0.00  0.00    -0.540 OA
ENDROOT
BRANCH   6  10
ATOM     10  C   LIG    1       -4.260   0.040  -5.209  0.00  0.00    +0.430 A 
ATOM     11  C   LIG    1       -4.748  -0.866  -4.253  0.00  0.00    -0.080 A 
ATOM     12  N   LIG    1       -4.287  -1.347  -3.073  0.00  0.00    -0.470 NA
ATOM     13  C   LIG    1       -5.157  -2.175  -2.572  0.00  0.00    +0.510 A 
ATOM     14  N   LIG    1       -6.237  -2.272  -3.400  0.00  0.00    -0.580 N 
ATOM     15  H   LIG    1       -7.023  -2.822  -3.256  0.00  0.00    +0.430 HD
ATOM     16  C   LIG    1       -6.007  -1.449  -4.473  0.00  0.00    +0.280 A 
ATOM     17  N   LIG    1       -6.681  -1.134  -5.575  0.00  0.00    -0.520 NA
ATOM     18  C   LIG    1       -6.181  -0.284  -6.447  0.00  0.00    +0.540 A 
ATOM     19  N   LIG    1       -5.005   0.294  -6.280  0.00  0.00    -0.510 NA
ENDBRANCH   6  10
BRANCH   1  20
ATOM     20  C   LIG    1       -0.753   1.593  -1.232  0.00  0.00    +0.050 C 
BRANCH  20  21
ATOM     21  C   LIG    1       -0.013   1.086   0.008  0.00  0.00    +0.130 C 
BRANCH  21  24
ATOM     22  C   LIG    1       -2.450  -0.294   1.401  0.00  0.00    +0.150 C 
ATOM     23  C   LIG    1       -1.773   0.975   1.850  0.00  0.00    +0.090 A 
ATOM     24  C   LIG    1       -0.718   1.572   1.248  0.00  0.00    -0.240 A 
ATOM     25  C   LIG    1       -0.395   2.717   1.983  0.00  0.00    +0.230 A 
ATOM     26  N   LIG    1       -1.231   2.809   2.985  0.00  0.00    -0.300 NA
ATOM     27  N   LIG    1       -2.108   1.718   2.925  0.00  0.00    -0.370 N 
ATOM     28  C   LIG    1       -3.198   1.436   3.862  0.00  0.00    +0.350 C 
ENDBRANCH  21  24
ENDBRANCH  20  21
ENDBRANCH   1  20
TORSDOF 4
