REMARK  Name = ZINCrg000000rVuS.2
REMARK                            x       y       z     vdW  Elec       q    Type
REMARK                         _______ _______ _______ _____ _____    ______ ____
ROOT
ATOM      1  C   LIG    1       -0.047   1.107  -2.471  0.00  0.00    +0.510 C 
ATOM      2  N   LIG    1       -0.524   1.433  -3.689  0.00  0.00    -0.610 N 
ATOM      3  C   LIG    1        0.203   0.939  -4.859  0.00  0.00    +0.290 C 
ATOM      4  C   LIG    1       -0.503  -0.316  -5.347  0.00  0.00    +0.010 C 
ATOM      5  C   LIG    1       -1.637   0.051  -6.308  0.00  0.00    +0.270 C 
ATOM      6  N   LIG    1       -2.398   1.227  -5.861  0.00  0.00    -0.540 N 
ATOM      7  C   LIG    1       -2.805   1.436  -4.482  0.00  0.00    +0.300 C 
ATOM      8  C   LIG    1       -1.694   2.237  -3.748  0.00  0.00    +0.280 C 
ATOM      9  O   LIG    1        0.949   0.422  -2.373  0.00  0.00    -0.530 OA
ENDROOT
BRANCH   6  10
ATOM     10  C   LIG    1       -2.741   2.175  -6.793  0.00  0.00    +0.520 A 
ATOM     11  C   LIG    1       -3.473   3.313  -6.414  0.00  0.00    -0.110 A 
ATOM     12  N   LIG    1       -3.975   3.784  -5.260  0.00  0.00    -0.510 NA
ATOM     13  C   LIG    1       -4.573   4.929  -5.509  0.00  0.00    +0.400 A 
ATOM     14  N   LIG    1       -4.472   5.228  -6.800  0.00  0.00    -0.540 NA
ATOM     15  C   LIG    1       -3.798   4.263  -7.407  0.00  0.00    +0.220 A 
ATOM     16  N   LIG    1       -3.392   4.023  -8.700  0.00  0.00    -0.540 N 
ATOM     17  H   LIG    1       -3.605   4.657  -9.402  0.00  0.00    +0.430 HD
ATOM     18  C   LIG    1       -2.699   2.908  -8.985  0.00  0.00    +0.650 A 
ATOM     19  N   LIG    1       -2.388   2.024  -8.073  0.00  0.00    -0.580 NA
ENDBRANCH   6  10
BRANCH   1  20
ATOM     20  C   LIG    1       -0.753   1.593  -1.232  0.00  0.00    +0.050 C 
BRANCH  20  21
ATOM     21  C   LIG    1       -0.013   1.086   0.008  0.00  0.00    +0.130 C 
BRANCH  21  24
ATOM     22  C   LIG    1       -2.450  -0.294   1.401  0.00  0.00    +0.140 C 
ATOM     23  C   LIG    1       -1.773   0.975   1.850  0.00  0.00    +0.090 A 
ATOM     24  C   LIG    1       -0.718   1.572   1.248  0.00  0.00    -0.240 A 
ATOM     25  C   LIG    1       -0.395   2.717   1.983  0.00  0.00    +0.240 A 
ATOM     26  N   LIG    1       -1.231   2.809   2.985  0.00  0.00    -0.300 NA
ATOM     27  N   LIG    1       -2.108   1.718   2.925  0.00  0.00    -0.370 N 
ATOM     28  C   LIG    1       -3.198   1.436   3.862  0.00  0.00    +0.350 C 
ENDBRANCH  21  24
ENDBRANCH  20  21
ENDBRANCH   1  20
TORSDOF 4
