REMARK  Name = ZINCrg000000rVuS.0
REMARK                            x       y       z     vdW  Elec       q    Type
REMARK                         _______ _______ _______ _____ _____    ______ ____
ROOT
ATOM      1  C   LIG    1       -2.969   2.564  -1.502  0.00  0.00    +0.510 C 
ATOM      2  N   LIG    1       -2.222   1.531  -1.065  0.00  0.00    -0.600 N 
ATOM      3  C   LIG    1       -2.890   0.409  -0.444  0.00  0.00    +0.270 C 
ATOM      4  C   LIG    1       -2.980   0.641   1.086  0.00  0.00    +0.040 C 
ATOM      5  C   LIG    1       -1.634   0.547   1.684  0.00  0.00    +0.210 C 
ATOM      6  N   LIG    1       -0.689   1.552   1.200  0.00  0.00    -0.460 N 
ATOM      7  C   LIG    1       -0.013   1.086   0.008  0.00  0.00    +0.190 C 
ATOM      8  C   LIG    1       -0.756   1.595  -1.241  0.00  0.00    +0.280 C 
ATOM      9  O   LIG    1       -4.174   2.540  -1.370  0.00  0.00    -0.530 OA
ENDROOT
BRANCH   6  10
ATOM     10  C   LIG    1        0.223   1.889   2.188  0.00  0.00    +0.400 A 
ATOM     11  C   LIG    1        1.227   2.827   1.942  0.00  0.00    -0.090 A 
ATOM     12  N   LIG    1        1.605   3.598   0.862  0.00  0.00    -0.570 N 
ATOM     13  H   LIG    1        1.180   3.615  -0.010  0.00  0.00    +0.430 HD
ATOM     14  C   LIG    1        2.678   4.325   1.247  0.00  0.00    +0.540 A 
ATOM     15  N   LIG    1        2.983   4.054   2.485  0.00  0.00    -0.490 NA
ATOM     16  C   LIG    1        2.127   3.136   2.975  0.00  0.00    +0.310 A 
ATOM     17  N   LIG    1        1.987   2.520   4.153  0.00  0.00    -0.500 NA
ATOM     18  C   LIG    1        1.026   1.643   4.338  0.00  0.00    +0.540 A 
ATOM     19  N   LIG    1        0.157   1.331   3.394  0.00  0.00    -0.550 NA
ENDBRANCH   6  10
BRANCH   1  20
ATOM     20  C   LIG    1       -2.306   3.751  -2.154  0.00  0.00    +0.050 C 
BRANCH  20  21
ATOM     21  C   LIG    1       -3.371   4.773  -2.554  0.00  0.00    +0.130 C 
BRANCH  21  24
ATOM     22  C   LIG    1       -2.588   5.015  -5.573  0.00  0.00    +0.140 C 
ATOM     23  C   LIG    1       -2.370   6.063  -4.513  0.00  0.00    +0.090 A 
ATOM     24  C   LIG    1       -2.709   5.959  -3.207  0.00  0.00    -0.240 A 
ATOM     25  C   LIG    1       -2.341   7.149  -2.571  0.00  0.00    +0.230 A 
ATOM     26  N   LIG    1       -1.792   7.936  -3.461  0.00  0.00    -0.300 NA
ATOM     27  N   LIG    1       -1.802   7.274  -4.695  0.00  0.00    -0.370 N 
ATOM     28  C   LIG    1       -1.288   7.803  -5.961  0.00  0.00    +0.360 C 
ENDBRANCH  21  24
ENDBRANCH  20  21
ENDBRANCH   1  20
TORSDOF 4
