REMARK  Name = ZINCvU0000000Bk0.0
REMARK                            x       y       z     vdW  Elec       q    Type
REMARK                         _______ _______ _______ _____ _____    ______ ____
ROOT
ATOM      1  S   LIG    1        0.894   8.051  -0.160  0.00  0.00    +0.040 S 
ENDROOT
BRANCH   1   2
ATOM      2  C   LIG    1        1.044   6.298  -0.060  0.00  0.00    +0.070 A 
ATOM      3  C   LIG    1        2.040   5.707   0.753  0.00  0.00    -0.060 A 
ATOM      4  C   LIG    1        2.944   6.461   1.507  0.00  0.00    +0.050 A 
ATOM      5  C   LIG    1        3.878   5.820   2.268  0.00  0.00    +0.050 A 
ATOM      6  C   LIG    1        3.943   4.430   2.304  0.00  0.00    +0.050 A 
ATOM      7  C   LIG    1        3.075   3.667   1.580  0.00  0.00    +0.050 A 
ATOM      8  C   LIG    1        2.103   4.291   0.794  0.00  0.00    -0.050 A 
ATOM      9  C   LIG    1        1.171   3.567   0.009  0.00  0.00    +0.150 A 
ATOM     10  N   LIG    1        0.286   4.235  -0.711  0.00  0.00    -0.240 NA
ATOM     11  N   LIG    1        0.226   5.514  -0.744  0.00  0.00    -0.270 NA
BRANCH   9  12
ATOM     12  C   LIG    1        1.184   2.087   0.002  0.00  0.00    -0.050 A 
ATOM     13  C   LIG    1        1.317   1.381   1.198  0.00  0.00    +0.030 A 
ATOM     14  C   LIG    1        1.328   0.002   1.185  0.00  0.00    +0.010 A 
ATOM     15  C   LIG    1        1.207  -0.682  -0.012  0.00  0.00    +0.030 A 
ATOM     16  C   LIG    1        1.075   0.011  -1.202  0.00  0.00    +0.010 A 
ATOM     17  C   LIG    1        1.062   1.391  -1.201  0.00  0.00    +0.050 A 
ENDBRANCH   9  12
ENDBRANCH   1   2
BRANCH   1  18
ATOM     18  C   LIG    1       -0.500   8.182  -1.306  0.00  0.00    +0.080 C 
BRANCH  18  19
ATOM     19  C   LIG    1       -0.817   9.636  -1.548  0.00  0.00    +0.420 C 
ATOM     20  O   LIG    1       -0.164  10.498  -0.999  0.00  0.00    -0.440 OA
BRANCH  19  27
ATOM     21  O   LIG    1       -6.016  12.615  -6.238  0.00  0.00    -0.520 OA
ATOM     22  C   LIG    1       -5.094  12.317  -5.508  0.00  0.00    +0.520 C 
ATOM     23  C   LIG    1       -4.037  13.340  -5.191  0.00  0.00    +0.080 C 
ATOM     24  C   LIG    1       -3.552  13.157  -3.752  0.00  0.00    +0.110 C 
ATOM     25  C   LIG    1       -3.234  11.704  -3.510  0.00  0.00    -0.140 A 
ATOM     26  C   LIG    1       -2.216  11.358  -2.669  0.00  0.00    +0.120 A 
ATOM     27  C   LIG    1       -1.916  10.008  -2.448  0.00  0.00    -0.190 A 
ATOM     28  C   LIG    1       -2.671   9.015  -3.083  0.00  0.00    +0.110 A 
ATOM     29  C   LIG    1       -3.700   9.372  -3.925  0.00  0.00    -0.030 A 
ATOM     30  C   LIG    1       -3.987  10.717  -4.142  0.00  0.00    +0.200 A 
ATOM     31  N   LIG    1       -5.029  11.076  -4.993  0.00  0.00    -0.660 N 
ATOM     32  H   LIG    1       -5.713  10.426  -5.217  0.00  0.00    +0.410 HD
ENDBRANCH  19  27
ENDBRANCH  18  19
ENDBRANCH   1  18
TORSDOF 5
