REMARK  Name = ZINCrg00000J1sVl.0
REMARK                            x       y       z     vdW  Elec       q    Type
REMARK                         _______ _______ _______ _____ _____    ______ ____
ROOT
ATOM      1  C   LIG    1        1.609   0.485  -5.152  0.00  0.00    +0.270 C 
ATOM      2  C   LIG    1        1.818   1.468  -4.000  0.00  0.00    +0.300 C 
ATOM      3  N   LIG    1        0.911   1.102  -2.900  0.00  0.00    -0.610 N 
ATOM      4  C   LIG    1        0.897  -0.299  -2.453  0.00  0.00    +0.250 C 
ATOM      5  C   LIG    1        0.729  -1.198  -3.684  0.00  0.00    +0.240 C 
ATOM      6  C   LIG    1        0.114   2.023  -2.323  0.00  0.00    +0.530 C 
ATOM      7  O   LIG    1        0.140   3.174  -2.706  0.00  0.00    -0.520 OA
ATOM      8  O   LIG    1        1.717  -0.852  -4.657  0.00  0.00    -0.380 OA
ENDROOT
BRANCH   1  13
ATOM      9  C   LIG    1        5.365  -0.165  -8.468  0.00  0.00    +0.200 C 
ATOM     10  C   LIG    1        4.266   0.438  -7.631  0.00  0.00    +0.180 A 
ATOM     11  N   LIG    1        3.867   1.680  -7.657  0.00  0.00    -0.290 NA
ATOM     12  N   LIG    1        2.907   1.844  -6.817  0.00  0.00    -0.270 NA
ATOM     13  C   LIG    1        2.657   0.716  -6.210  0.00  0.00    +0.180 A 
ATOM     14  N   LIG    1        3.509  -0.210  -6.712  0.00  0.00    -0.560 N 
ATOM     15  H   LIG    1        3.566  -1.146  -6.464  0.00  0.00    +0.430 HD
ENDBRANCH   1  13
BRANCH   6  16
ATOM     16  C   LIG    1       -0.811   1.623  -1.203  0.00  0.00    +0.000 C 
ATOM     17  C   LIG    1       -0.013   1.086   0.008  0.00  0.00    +0.070 C 
ATOM     18  C   LIG    1       -0.771   1.598   1.213  0.00  0.00    +0.520 C 
ATOM     19  N   LIG    1       -1.608   2.586   0.844  0.00  0.00    -0.610 N 
ATOM     20  O   LIG    1       -0.643   1.179   2.344  0.00  0.00    -0.520 OA
ATOM     21  C   LIG    1       -1.511   2.859  -0.595  0.00  0.00    +0.300 C 
BRANCH  19  22
ATOM     22  C   LIG    1       -2.501   3.299   1.761  0.00  0.00    +0.350 C 
BRANCH  22  23
ATOM     23  C   LIG    1       -3.827   2.587   1.825  0.00  0.00    -0.110 A 
ATOM     24  C   LIG    1       -4.840   2.932   0.950  0.00  0.00    +0.010 A 
ATOM     25  C   LIG    1       -6.055   2.276   1.006  0.00  0.00    +0.000 A 
ATOM     26  C   LIG    1       -6.262   1.282   1.944  0.00  0.00    +0.010 A 
ATOM     27  C   LIG    1       -5.251   0.941   2.823  0.00  0.00    +0.000 A 
ATOM     28  C   LIG    1       -4.034   1.593   2.764  0.00  0.00    +0.030 A 
ENDBRANCH  22  23
ENDBRANCH  19  22
ENDBRANCH   6  16
TORSDOF 4
