REMARK  Name = ZINCrg00000J1sVl.1
REMARK                            x       y       z     vdW  Elec       q    Type
REMARK                         _______ _______ _______ _____ _____    ______ ____
ROOT
ATOM      1  C   LIG    1        0.002  -0.004   0.002  0.00  0.00    +0.280 C 
ATOM      2  C   LIG    1       -0.019   1.529   0.010  0.00  0.00    +0.280 C 
ATOM      3  N   LIG    1        1.371   2.012  -0.000  0.00  0.00    -0.610 N 
ATOM      4  C   LIG    1        2.286   1.464  -1.015  0.00  0.00    +0.250 C 
ATOM      5  C   LIG    1        2.194  -0.065  -0.973  0.00  0.00    +0.230 C 
ATOM      6  C   LIG    1        1.794   2.929   0.892  0.00  0.00    +0.530 C 
ATOM      7  O   LIG    1        1.025   3.368   1.721  0.00  0.00    -0.520 OA
ATOM      8  O   LIG    1        0.824  -0.458  -1.076  0.00  0.00    -0.360 OA
ENDROOT
BRANCH   1  12
ATOM      9  C   LIG    1       -4.445  -2.054   1.049  0.00  0.00    +0.210 C 
ATOM     10  C   LIG    1       -3.316  -1.412   0.285  0.00  0.00    +0.290 A 
ATOM     11  N   LIG    1       -2.153  -1.069   0.777  0.00  0.00    -0.530 NA
ATOM     12  C   LIG    1       -1.400  -0.525  -0.178  0.00  0.00    +0.230 A 
ATOM     13  N   LIG    1       -2.073  -0.523  -1.299  0.00  0.00    -0.280 NA
ATOM     14  N   LIG    1       -3.325  -1.096  -1.022  0.00  0.00    -0.480 N 
ATOM     15  H   LIG    1       -4.052  -1.236  -1.648  0.00  0.00    +0.440 HD
ENDBRANCH   1  12
BRANCH   6  16
ATOM     16  C   LIG    1        3.222   3.408   0.862  0.00  0.00    +0.000 C 
ATOM     17  C   LIG    1        3.524   4.164  -0.453  0.00  0.00    +0.070 C 
ATOM     18  C   LIG    1        4.450   5.284  -0.033  0.00  0.00    +0.520 C 
ATOM     19  N   LIG    1        4.398   5.452   1.300  0.00  0.00    -0.610 N 
ATOM     20  O   LIG    1        5.139   5.936  -0.789  0.00  0.00    -0.520 OA
ATOM     21  C   LIG    1        3.459   4.508   1.920  0.00  0.00    +0.300 C 
BRANCH  19  22
ATOM     22  C   LIG    1        5.178   6.447   2.039  0.00  0.00    +0.350 C 
BRANCH  22  23
ATOM     23  C   LIG    1        4.394   7.731   2.132  0.00  0.00    -0.120 A 
ATOM     24  C   LIG    1        4.531   8.697   1.153  0.00  0.00    +0.030 A 
ATOM     25  C   LIG    1        3.809   9.873   1.236  0.00  0.00    +0.000 A 
ATOM     26  C   LIG    1        2.957  10.086   2.304  0.00  0.00    +0.010 A 
ATOM     27  C   LIG    1        2.824   9.123   3.286  0.00  0.00    +0.000 A 
ATOM     28  C   LIG    1        3.542   7.945   3.200  0.00  0.00    +0.020 A 
ENDBRANCH  22  23
ENDBRANCH  19  22
ENDBRANCH   6  16
TORSDOF 4
