REMARK  Name = ZINCvU00000006gB.0
REMARK                            x       y       z     vdW  Elec       q    Type
REMARK                         _______ _______ _______ _____ _____    ______ ____
ROOT
ATOM      1  C   LIG    1       -9.214   1.951   1.152  0.00  0.00    +0.290 A 
ATOM      2  N   LIG    1      -10.268   2.626   0.797  0.00  0.00    -0.480 NA
ATOM      3  C   LIG    1      -10.343   2.676  -0.558  0.00  0.00    +0.050 A 
ATOM      4  C   LIG    1      -11.250   3.250  -1.453  0.00  0.00    +0.070 A 
ATOM      5  C   LIG    1      -11.050   3.126  -2.799  0.00  0.00    +0.000 A 
ATOM      6  C   LIG    1       -9.953   2.433  -3.290  0.00  0.00    +0.030 A 
ATOM      7  C   LIG    1       -9.045   1.858  -2.426  0.00  0.00    +0.010 A 
ATOM      8  C   LIG    1       -9.232   1.974  -1.056  0.00  0.00    +0.050 A 
ATOM      9  N   LIG    1       -8.535   1.531   0.051  0.00  0.00    -0.480 N 
ENDROOT
BRANCH   1  12
ATOM     10  N   LIG    1       -9.867   1.583   4.722  0.00  0.00    -0.610 N 
ATOM     11  C   LIG    1       -9.955   1.023   3.369  0.00  0.00    +0.290 C 
ATOM     12  C   LIG    1       -8.803   1.679   2.576  0.00  0.00    +0.090 C 
ATOM     13  C   LIG    1       -8.596   2.999   3.354  0.00  0.00    +0.090 C 
ATOM     14  C   LIG    1       -9.114   2.696   4.743  0.00  0.00    +0.520 C 
ATOM     15  O   LIG    1       -8.884   3.361   5.730  0.00  0.00    -0.520 OA
BRANCH  10  16
ATOM     16  C   LIG    1      -10.516   1.002   5.901  0.00  0.00    +0.330 C 
BRANCH  16  18
ATOM     17  C   LIG    1      -12.939   0.800   6.126  0.00  0.00    +0.030 C 
ATOM     18  C   LIG    1      -11.895   1.589   6.055  0.00  0.00    -0.070 C 
ENDBRANCH  16  18
ENDBRANCH  10  16
ENDBRANCH   1  12
BRANCH   9  19
ATOM     19  C   LIG    1       -7.297   0.748   0.041  0.00  0.00    +0.310 C 
BRANCH  19  20
ATOM     20  C   LIG    1       -6.095   1.695   0.040  0.00  0.00    +0.020 C 
BRANCH  20  21
ATOM     21  C   LIG    1       -4.801   0.877   0.029  0.00  0.00    +0.040 C 
BRANCH  21  22
ATOM     22  C   LIG    1       -3.600   1.824   0.029  0.00  0.00    +0.180 C 
BRANCH  22  23
ATOM     23  O   LIG    1       -2.392   1.060   0.019  0.00  0.00    -0.320 OA
BRANCH  23  24
ATOM     24  C   LIG    1       -1.223   1.754   0.017  0.00  0.00    +0.130 A 
ATOM     25  C   LIG    1       -1.239   3.141   0.030  0.00  0.00    -0.080 A 
ATOM     26  C   LIG    1       -0.049   3.844   0.023  0.00  0.00    +0.040 A 
ATOM     27  C   LIG    1        1.156   3.166   0.008  0.00  0.00    -0.120 A 
ATOM     28  C   LIG    1        1.174   1.783   0.000  0.00  0.00    -0.050 A 
ATOM     29  C   LIG    1        2.489   1.048  -0.017  0.00  0.00    +0.090 C 
ATOM     30  C   LIG    1        2.451   3.935  -0.001  0.00  0.00    +0.090 C 
ATOM     31  C   LIG    1       -0.013   1.076   0.008  0.00  0.00    -0.020 A 
ENDBRANCH  23  24
ENDBRANCH  22  23
ENDBRANCH  21  22
ENDBRANCH  20  21
ENDBRANCH  19  20
ENDBRANCH   9  19
TORSDOF 9
