REMARK  Name = ZINCqH0000051r0S.0
REMARK                            x       y       z     vdW  Elec       q    Type
REMARK                         _______ _______ _______ _____ _____    ______ ____
ROOT
ATOM      1  C   LIG    1       -2.264   3.990   0.047  0.00  0.00    +0.170 A 
ATOM      2  C   LIG    1       -1.671   5.088  -0.541  0.00  0.00    +0.110 A 
ATOM      3  N   LIG    1       -0.346   5.011  -0.325  0.00  0.00    -0.470 NA
ATOM      4  C   LIG    1       -0.080   3.917   0.371  0.00  0.00    +0.240 A 
ATOM      5  C   LIG    1        1.132   3.378   0.853  0.00  0.00    +0.080 A 
ATOM      6  C   LIG    1        1.112   2.214   1.555  0.00  0.00    +0.060 A 
ATOM      7  C   LIG    1       -0.112   1.563   1.793  0.00  0.00    +0.010 A 
ATOM      8  C   LIG    1       -1.263   2.084   1.323  0.00  0.00    +0.230 A 
ATOM      9  N   LIG    1       -1.261   3.257   0.619  0.00  0.00    -0.350 N 
ENDROOT
BRANCH   2  10
ATOM     10  C   LIG    1       -2.371   6.163  -1.281  0.00  0.00    +0.030 A 
ATOM     11  C   LIG    1       -3.492   5.881  -2.069  0.00  0.00    -0.020 A 
ATOM     12  C   LIG    1       -4.116   6.913  -2.738  0.00  0.00    +0.260 A 
ATOM     13  N   LIG    1       -3.663   8.149  -2.649  0.00  0.00    -0.480 NA
ATOM     14  C   LIG    1       -2.606   8.457  -1.921  0.00  0.00    +0.260 A 
ATOM     15  C   LIG    1       -1.925   7.488  -1.216  0.00  0.00    +0.000 A 
ENDBRANCH   2  10
BRANCH   1  18
ATOM     16  O   LIG    1       -3.297   1.854  -1.153  0.00  0.00    -0.510 OA
ATOM     17  C   LIG    1       -4.080   2.608  -0.614  0.00  0.00    +0.550 C 
ATOM     18  N   LIG    1       -3.625   3.685   0.057  0.00  0.00    -0.640 N 
ATOM     19  H   LIG    1       -4.245   4.248   0.547  0.00  0.00    +0.420 HD
BRANCH  17  20
ATOM     20  C   LIG    1       -5.561   2.341  -0.696  0.00  0.00    -0.040 C 
ATOM     21  C   LIG    1       -6.101   1.123   0.055  0.00  0.00    +0.100 C 
ATOM     22  C   LIG    1       -6.013   1.103  -1.472  0.00  0.00    +0.110 C 
BRANCH  22  23
ATOM     23  C   LIG    1       -7.303   1.199  -2.245  0.00  0.00    +0.000 A 
ATOM     24  C   LIG    1       -7.439   1.035  -3.573  0.00  0.00    -0.040 A 
ATOM     25  C   LIG    1       -8.810   1.211  -3.870  0.00  0.00    -0.060 A 
ATOM     26  C   LIG    1       -9.430   1.472  -2.705  0.00  0.00    +0.170 A 
ATOM     27  O   LIG    1       -8.514   1.458  -1.724  0.00  0.00    -0.180 OA
ENDBRANCH  22  23
ENDBRANCH  17  20
ENDBRANCH   1  18
TORSDOF 4
