REMARK  Name = ZINCnE000008Jbtv.0
REMARK                            x       y       z     vdW  Elec       q    Type
REMARK                         _______ _______ _______ _____ _____    ______ ____
ROOT
ATOM      1  C   LIG    1       -0.194   1.207  -2.360  0.00  0.00    +0.060 A 
ATOM      2  C   LIG    1        0.951   0.428  -2.430  0.00  0.00    +0.000 A 
ATOM      3  C   LIG    1        1.466   0.066  -3.660  0.00  0.00    -0.070 A 
ATOM      4  C   LIG    1        0.845   0.491  -4.824  0.00  0.00    +0.200 A 
ATOM      5  C   LIG    1       -0.297   1.276  -4.754  0.00  0.00    -0.620 A 
ATOM      6  C   LIG    1       -0.815   1.633  -3.525  0.00  0.00    +0.130 A 
ENDROOT
BRANCH   5   7
ATOM      7  S   LIG    1       -1.087   1.816  -6.234  0.00  0.00    +2.610 S 
ATOM      8  O   LIG    1       -2.190   2.616  -5.831  0.00  0.00    -1.030 OA
ATOM      9  O   LIG    1       -1.221   0.667  -7.060  0.00  0.00    -1.010 OA
BRANCH   7  10
ATOM     10  N   LIG    1       -0.033   2.830  -7.010  0.00  0.00    -1.080 NA
BRANCH  10  11
ATOM     11  C   LIG    1       -0.395   3.417  -8.226  0.00  0.00    +0.280 A 
ATOM     12  C   LIG    1       -1.636   3.145  -8.787  0.00  0.00    -0.140 A 
ATOM     13  C   LIG    1       -1.994   3.730  -9.987  0.00  0.00    +0.020 A 
ATOM     14  C   LIG    1       -1.112   4.578 -10.635  0.00  0.00    -0.030 A 
ATOM     15  C   LIG    1        0.129   4.846 -10.080  0.00  0.00    +0.010 A 
ATOM     16  F   LIG    1       -1.461   5.145 -11.810  0.00  0.00    -0.170 F 
ATOM     17  C   LIG    1        0.488   4.267  -8.879  0.00  0.00    -0.040 A 
ENDBRANCH  10  11
ENDBRANCH   7  10
ENDBRANCH   5   7
BRANCH   1  18
ATOM     18  O   LIG    1       -0.704   1.559  -1.150  0.00  0.00    -0.320 OA
BRANCH  18  20
ATOM     19  C   LIG    1       -0.729   1.579   1.267  0.00  0.00    +0.070 C 
ATOM     20  C   LIG    1       -0.013   1.086   0.008  0.00  0.00    +0.170 C 
ENDBRANCH  18  20
ENDBRANCH   1  18
BRANCH   4  21
ATOM     21  O   LIG    1        1.355   0.139  -6.035  0.00  0.00    -0.290 OA
BRANCH  21  22
ATOM     22  C   LIG    1        2.533  -0.670  -6.032  0.00  0.00    +0.170 C 
ATOM     23  C   LIG    1        2.954  -0.962  -7.473  0.00  0.00    +0.060 C 
ENDBRANCH  21  22
ENDBRANCH   4  21
TORSDOF 7
