REMARK  Name = ZINCpk00000xI4Jm.0
REMARK                            x       y       z     vdW  Elec       q    Type
REMARK                         _______ _______ _______ _____ _____    ______ ____
ROOT
ATOM      1  C   LIG    1       -4.098   1.508   4.129  0.00  0.00    +0.160 C 
ATOM      2  C   LIG    1       -4.812   2.345   5.218  0.00  0.00    +0.070 C 
ATOM      3  C   LIG    1       -4.140   3.698   5.147  0.00  0.00    +0.520 C 
ATOM      4  N   LIG    1       -3.459   3.817   3.994  0.00  0.00    -0.610 N 
ATOM      5  C   LIG    1       -2.686   5.000   3.609  0.00  0.00    +0.310 C 
ATOM      6  O   LIG    1       -4.206   4.552   6.006  0.00  0.00    -0.530 OA
ATOM      7  C   LIG    1       -3.590   2.609   3.171  0.00  0.00    +0.310 C 
ENDROOT
BRANCH   7   8
ATOM      8  C   LIG    1       -2.252   2.222   2.596  0.00  0.00    -0.270 A 
ATOM      9  C   LIG    1       -2.019   1.810   1.328  0.00  0.00    +0.110 A 
ATOM     10  N   LIG    1       -0.698   1.558   1.213  0.00  0.00    -0.370 N 
ATOM     11  N   LIG    1       -0.098   1.835   2.448  0.00  0.00    -0.290 NA
ATOM     12  C   LIG    1       -0.013   1.086   0.008  0.00  0.00    +0.360 C 
ATOM     13  C   LIG    1       -3.051   1.654   0.241  0.00  0.00    +0.160 C 
ATOM     14  C   LIG    1       -1.030   2.233   3.276  0.00  0.00    +0.100 A 
ATOM     15  C   LIG    1       -0.822   2.633   4.714  0.00  0.00    +0.150 C 
ENDBRANCH   7   8
BRANCH   1  16
ATOM     16  N   LIG    1       -5.043   0.613   3.447  0.00  0.00    -0.670 NA
ATOM     17  H   LIG    1       -4.822   0.533   2.466  0.00  0.00    +0.350 HD
BRANCH  16  18
ATOM     18  C   LIG    1       -5.073  -0.708   4.089  0.00  0.00    +0.350 C 
BRANCH  18  22
ATOM     19  C   LIG    1       -6.953  -2.975   2.037  0.00  0.00    +0.170 A 
ATOM     20  N   LIG    1       -7.851  -2.525   2.861  0.00  0.00    -0.380 NA
ATOM     21  O   LIG    1       -7.352  -1.735   3.635  0.00  0.00    +0.090 OA
ATOM     22  C   LIG    1       -6.051  -1.596   3.364  0.00  0.00    +0.180 A 
ATOM     23  N   LIG    1       -5.787  -2.384   2.350  0.00  0.00    -0.480 NA
BRANCH  19  24
ATOM     24  C   LIG    1       -7.178  -3.977   0.933  0.00  0.00    +0.160 C 
BRANCH  24  26
ATOM     25  C   LIG    1       -7.183  -6.407   0.354  0.00  0.00    +0.030 C 
ATOM     26  C   LIG    1       -6.955  -5.390   1.474  0.00  0.00    +0.020 C 
ENDBRANCH  24  26
ENDBRANCH  19  24
ENDBRANCH  18  22
ENDBRANCH  16  18
ENDBRANCH   1  16
TORSDOF 6
