REMARK  Name = ZINCnE000001EdTg.0
REMARK                            x       y       z     vdW  Elec       q    Type
REMARK                         _______ _______ _______ _____ _____    ______ ____
ROOT
ATOM      1  N   LIG    1       -2.103   1.072   1.277  0.00  0.00    -0.400 N 
ATOM      2  N   LIG    1       -2.469  -0.277   1.267  0.00  0.00    -0.250 NA
ATOM      3  C   LIG    1       -3.766  -0.390   1.284  0.00  0.00    +0.250 A 
ATOM      4  C   LIG    1       -4.328   0.956   1.297  0.00  0.00    -0.170 A 
ATOM      5  C   LIG    1       -5.630   1.470   1.311  0.00  0.00    +0.040 A 
ATOM      6  C   LIG    1       -5.786   2.847   1.320  0.00  0.00    +0.200 A 
ATOM      7  C   LIG    1       -4.656   3.663   1.315  0.00  0.00    +0.180 A 
ATOM      8  N   LIG    1       -3.443   3.156   1.301  0.00  0.00    -0.470 NA
ATOM      9  C   LIG    1       -3.235   1.845   1.292  0.00  0.00    +0.230 A 
ENDROOT
BRANCH   1  11
ATOM     10  C   LIG    1       -0.013   1.086   0.008  0.00  0.00    +0.030 C 
ATOM     11  C   LIG    1       -0.729   1.579   1.267  0.00  0.00    +0.270 C 
ATOM     12  C   LIG    1        0.011   1.072   2.506  0.00  0.00    +0.030 C 
ENDBRANCH   1  11
BRANCH   6  13
ATOM     13  N   LIG    1       -7.067   3.413   1.335  0.00  0.00    -1.070 NA
BRANCH  13  14
ATOM     14  S   LIG    1       -7.244   5.059   1.346  0.00  0.00    +2.600 S 
ATOM     15  O   LIG    1       -6.757   5.524   0.095  0.00  0.00    -1.010 OA
ATOM     16  O   LIG    1       -6.735   5.509   2.594  0.00  0.00    -1.030 OA
BRANCH  14  17
ATOM     17  C   LIG    1       -8.973   5.397   1.363  0.00  0.00    -0.610 A 
ATOM     18  C   LIG    1       -9.545   6.019   2.457  0.00  0.00    +0.130 A 
ATOM     19  C   LIG    1      -10.902   6.285   2.471  0.00  0.00    -0.020 A 
ATOM     20  C   LIG    1      -11.688   5.927   1.391  0.00  0.00    +0.060 A 
ATOM     21  C   LIG    1      -11.117   5.304   0.297  0.00  0.00    +0.000 A 
ATOM     22  C   LIG    1       -9.758   5.045   0.280  0.00  0.00    +0.060 A 
ATOM     23 CL   LIG    1       -9.040   4.269  -1.097  0.00  0.00    -0.030 Cl
ENDBRANCH  14  17
ENDBRANCH  13  14
ENDBRANCH   6  13
TORSDOF 4
