REMARK  Name = ZINCrD000000B8uG.0
REMARK                            x       y       z     vdW  Elec       q    Type
REMARK                         _______ _______ _______ _____ _____    ______ ____
ROOT
ATOM      1  O   LIG    1        0.728   0.574  -2.534  0.00  0.00    -0.510 OA
ATOM      2  C   LIG    1       -0.268   1.258  -2.409  0.00  0.00    +0.550 C 
ATOM      3  N   LIG    1       -0.721   1.571  -1.179  0.00  0.00    -0.710 N 
ATOM      4  H   LIG    1       -1.516   2.118  -1.079  0.00  0.00    +0.410 HD
ENDROOT
BRANCH   2   5
ATOM      5  C   LIG    1       -0.983   1.748  -3.607  0.00  0.00    -0.070 A 
ATOM      6  C   LIG    1       -2.131   2.530  -3.467  0.00  0.00    +0.110 A 
ATOM      7  C   LIG    1       -2.791   2.989  -4.590  0.00  0.00    -0.000 A 
ATOM      8  C   LIG    1       -2.323   2.667  -5.852  0.00  0.00    +0.110 A 
ATOM      9  C   LIG    1       -1.188   1.886  -5.997  0.00  0.00    +0.000 A 
ATOM     10 CL   LIG    1       -0.609   1.487  -7.584  0.00  0.00    -0.000 Cl
ATOM     11 CL   LIG    1       -4.214   3.968  -4.417  0.00  0.00    -0.010 Cl
ATOM     12  C   LIG    1       -0.516   1.426  -4.882  0.00  0.00    +0.030 A 
BRANCH  12  13
ATOM     13  N   LIG    1        0.696   0.592  -5.039  0.00  0.00    +0.030 N 
ATOM     14  O   LIG    1        1.793   1.118  -5.105  0.00  0.00    -0.110 OA
ATOM     15  O   LIG    1        0.598  -0.620  -5.103  0.00  0.00    -0.110 OA
ENDBRANCH  12  13
ENDBRANCH   2   5
BRANCH   3  16
ATOM     16  C   LIG    1       -0.013   1.086   0.008  0.00  0.00    +0.270 C 
BRANCH  16  17
ATOM     17  C   LIG    1       -0.729   1.579   1.267  0.00  0.00    +0.220 C 
BRANCH  17  18
ATOM     18  O   LIG    1       -2.030   0.991   1.336  0.00  0.00    -0.550 OA
ATOM     19  H   LIG    1       -2.023   0.025   1.372  0.00  0.00    +0.380 HD
ENDBRANCH  17  18
BRANCH  17  20
ATOM     20  C   LIG    1        0.079   1.179   2.503  0.00  0.00    +0.190 C 
BRANCH  20  21
ATOM     21  O   LIG    1       -0.527   1.738   3.670  0.00  0.00    -0.290 OA
BRANCH  21  22
ATOM     22  C   LIG    1        0.070   1.476   4.862  0.00  0.00    +0.150 A 
ATOM     23  C   LIG    1        1.213   0.691   4.908  0.00  0.00    -0.040 A 
ATOM     24  C   LIG    1        1.824   0.429   6.119  0.00  0.00    +0.070 A 
ATOM     25  C   LIG    1        1.290   0.940   7.289  0.00  0.00    +0.030 A 
ATOM     26  C   LIG    1        0.144   1.720   7.247  0.00  0.00    +0.110 A 
ATOM     27  F   LIG    1       -0.376   2.219   8.390  0.00  0.00    -0.120 F 
ATOM     28  F   LIG    1        1.885   0.678   8.474  0.00  0.00    -0.130 F 
ATOM     29  C   LIG    1       -0.465   1.988   6.035  0.00  0.00    +0.000 A 
ENDBRANCH  21  22
ENDBRANCH  20  21
ENDBRANCH  17  20
ENDBRANCH  16  17
ENDBRANCH   3  16
TORSDOF 8
