REMARK  Name = ZINCpe000000TC68.0
REMARK                            x       y       z     vdW  Elec       q    Type
REMARK                         _______ _______ _______ _____ _____    ______ ____
ROOT
ATOM      1  C   LIG    1       -0.021   1.546  -0.586  0.00  0.00    +0.550 C 
ATOM      2  N   LIG    1       -1.212   2.087  -0.261  0.00  0.00    -0.710 N 
ATOM      3  H   LIG    1       -1.294   3.047  -0.147  0.00  0.00    +0.410 HD
ATOM      4  O   LIG    1        0.081   0.343  -0.729  0.00  0.00    -0.530 OA
ENDROOT
BRANCH   1   8
ATOM      5  C   LIG    1        3.371   4.045  -1.125  0.00  0.00    -0.660 A 
ATOM      6  C   LIG    1        3.490   2.676  -1.289  0.00  0.00    +0.130 A 
ATOM      7  C   LIG    1        2.393   1.859  -1.115  0.00  0.00    +0.070 A 
ATOM      8  C   LIG    1        1.159   2.416  -0.773  0.00  0.00    -0.080 A 
ATOM      9  C   LIG    1        1.044   3.798  -0.616  0.00  0.00    +0.030 A 
ATOM     10  C   LIG    1        2.151   4.603  -0.787  0.00  0.00    +0.120 A 
BRANCH   5  11
ATOM     11  S   LIG    1        4.778   5.081  -1.348  0.00  0.00    +2.700 S 
ATOM     12  O   LIG    1        5.918   4.261  -1.133  0.00  0.00    -0.950 OA
ATOM     13  O   LIG    1        4.524   6.268  -0.610  0.00  0.00    -0.950 OA
BRANCH  11  14
ATOM     14  N   LIG    1        4.814   5.523  -2.944  0.00  0.00    -1.120 NA
ATOM     15  H   LIG    1        5.543   5.230  -3.512  0.00  0.00    +0.420 HD
BRANCH  14  17
ATOM     16  C   LIG    1        4.185   6.923  -4.848  0.00  0.00    +0.040 C 
ATOM     17  C   LIG    1        3.743   6.355  -3.498  0.00  0.00    +0.260 C 
ENDBRANCH  14  17
ENDBRANCH  11  14
ENDBRANCH   5  11
ENDBRANCH   1   8
BRANCH   2  18
ATOM     18  C   LIG    1       -2.384   1.226  -0.081  0.00  0.00    +0.280 C 
BRANCH  18  19
ATOM     19  C   LIG    1       -3.622   2.092   0.156  0.00  0.00    +0.090 C 
ATOM     20  C   LIG    1       -4.819   1.195   0.478  0.00  0.00    +0.020 C 
ATOM     21  C   LIG    1       -3.921   2.909  -1.102  0.00  0.00    +0.050 C 
BRANCH  19  22
ATOM     22  N   LIG    1       -3.375   3.002   1.283  0.00  0.00    -0.530 NA
ATOM     23  C   LIG    1       -3.031   2.252   2.500  0.00  0.00    +0.150 C 
ATOM     24  C   LIG    1       -2.724   3.238   3.631  0.00  0.00    +0.220 C 
ATOM     25  O   LIG    1       -3.850   4.098   3.825  0.00  0.00    -0.380 OA
ATOM     26  C   LIG    1       -4.213   4.844   2.660  0.00  0.00    +0.220 C 
ATOM     27  C   LIG    1       -4.535   3.875   1.520  0.00  0.00    +0.150 C 
ENDBRANCH  19  22
ENDBRANCH  18  19
ENDBRANCH   2  18
TORSDOF 7
