REMARK  Name = ZINCpk000000pJA3.0
REMARK                            x       y       z     vdW  Elec       q    Type
REMARK                         _______ _______ _______ _____ _____    ______ ____
ROOT
ATOM      1  C   LIG    1        3.708   0.212   2.525  0.00  0.00    +0.500 C 
ATOM      2  N   LIG    1        4.896   0.313   3.153  0.00  0.00    -0.620 N 
ATOM      3  C   LIG    1        6.027   1.011   2.522  0.00  0.00    +0.280 C 
ATOM      4  C   LIG    1        6.580   2.036   3.524  0.00  0.00    +0.180 C 
ATOM      5  N   LIG    1        6.897   1.357   4.787  0.00  0.00    -0.530 NA
ATOM      6  C   LIG    1        5.690   0.793   5.407  0.00  0.00    +0.170 C 
ATOM      7  C   LIG    1        5.099  -0.278   4.484  0.00  0.00    +0.300 C 
ATOM      8  O   LIG    1        2.762  -0.289   3.094  0.00  0.00    -0.510 OA
ENDROOT
BRANCH   1   9
ATOM      9  C   LIG    1        3.555   0.723   1.115  0.00  0.00    +0.260 C 
BRANCH   9  10
ATOM     10  N   LIG    1        2.139   0.976   0.839  0.00  0.00    -0.610 N 
ATOM     11  C   LIG    1        1.589   2.285   0.467  0.00  0.00    +0.240 C 
ATOM     12  C   LIG    1        0.067   2.176   0.705  0.00  0.00    +0.040 C 
ATOM     13  C   LIG    1       -0.166   0.654   0.561  0.00  0.00    +0.040 C 
ATOM     14  C   LIG    1        1.176   0.040   0.894  0.00  0.00    +0.520 C 
ATOM     15  O   LIG    1        1.356  -1.127   1.171  0.00  0.00    -0.500 OA
ENDBRANCH   9  10
BRANCH   9  17
ATOM     16  C   LIG    1        4.071   0.252  -1.284  0.00  0.00    +0.030 C 
ATOM     17  C   LIG    1        4.087  -0.324   0.134  0.00  0.00    +0.040 C 
ENDBRANCH   9  17
ENDBRANCH   1   9
BRANCH   5  18
ATOM     18  C   LIG    1        7.590   2.263   5.713  0.00  0.00    +0.230 C 
BRANCH  18  19
ATOM     19  C   LIG    1        8.673   3.005   4.972  0.00  0.00    -0.070 A 
ATOM     20  C   LIG    1        8.390   4.215   4.366  0.00  0.00    -0.010 A 
ATOM     21  C   LIG    1        9.380   4.899   3.686  0.00  0.00    +0.030 A 
ATOM     22  C   LIG    1       10.656   4.375   3.612  0.00  0.00    -0.010 A 
ATOM     23  C   LIG    1       10.943   3.161   4.220  0.00  0.00    +0.110 A 
ATOM     24  C   LIG    1        9.949   2.479   4.905  0.00  0.00    +0.010 A 
BRANCH  23  25
ATOM     25  O   LIG    1       12.198   2.644   4.149  0.00  0.00    -0.500 OA
ATOM     26  H   LIG    1       12.778   2.919   4.872  0.00  0.00    +0.390 HD
ENDBRANCH  23  25
ENDBRANCH  18  19
ENDBRANCH   5  18
TORSDOF 6
