REMARK  Name = ZINCpe000000YAur.0
REMARK                            x       y       z     vdW  Elec       q    Type
REMARK                         _______ _______ _______ _____ _____    ______ ____
ROOT
ATOM      1  C   LIG    1       -0.359   5.748   1.965  0.00  0.00    +0.610 C 
ATOM      2  N   LIG    1       -0.914   4.587   1.565  0.00  0.00    -0.710 N 
ATOM      3  H   LIG    1       -1.598   4.164   2.107  0.00  0.00    +0.410 HD
ATOM      4  O   LIG    1        0.499   6.278   1.286  0.00  0.00    -0.540 OA
ENDROOT
BRANCH   1   7
ATOM      5  N   LIG    1       -0.970   7.762   4.900  0.00  0.00    -0.360 N 
ATOM      6  C   LIG    1       -0.309   7.544   3.746  0.00  0.00    +0.310 A 
ATOM      7  C   LIG    1       -0.793   6.377   3.227  0.00  0.00    -0.100 A 
ATOM      8  N   LIG    1       -1.727   5.894   4.064  0.00  0.00    -0.210 NA
ATOM      9  N   LIG    1       -1.858   6.691   5.068  0.00  0.00    -0.030 NA
BRANCH   5  10
ATOM     10  C   LIG    1       -0.789   8.898   5.809  0.00  0.00    +0.370 C 
BRANCH  10  14
ATOM     11  N   LIG    1       -2.195  10.647   6.848  0.00  0.00    -0.850 N 
ATOM     12  H   LIG    1       -3.050  11.081   6.997  0.00  0.00    +0.410 HD
ATOM     13  H   LIG    1       -1.396  10.988   7.280  0.00  0.00    +0.410 HD
ATOM     14  C   LIG    1       -2.117   9.571   6.040  0.00  0.00    +0.500 C 
ATOM     15  O   LIG    1       -3.116   9.145   5.500  0.00  0.00    -0.510 OA
ENDBRANCH  10  14
ENDBRANCH   5  10
ENDBRANCH   1   7
BRANCH   2  16
ATOM     16  C   LIG    1       -0.482   3.962   0.312  0.00  0.00    +0.310 C 
BRANCH  16  17
ATOM     17  C   LIG    1       -1.350   2.734   0.029  0.00  0.00    -0.060 C 
ATOM     18  C   LIG    1       -0.896   1.929  -1.200  0.00  0.00    +0.050 C 
ATOM     19  C   LIG    1        0.010   1.133  -0.245  0.00  0.00    +0.010 C 
ATOM     20  C   LIG    1       -0.974   1.505   0.877  0.00  0.00    +0.050 C 
BRANCH  17  21
ATOM     21  C   LIG    1       -2.825   3.046   0.035  0.00  0.00    -0.140 A 
ATOM     22  C   LIG    1       -3.406   3.668  -1.056  0.00  0.00    +0.140 A 
ATOM     23  C   LIG    1       -4.761   3.950  -1.050  0.00  0.00    -0.020 A 
ATOM     24  C   LIG    1       -5.533   3.618   0.048  0.00  0.00    +0.080 A 
ATOM     25  C   LIG    1       -4.952   3.001   1.139  0.00  0.00    -0.020 A 
ATOM     26  F   LIG    1       -2.651   3.998  -2.127  0.00  0.00    -0.130 F 
ATOM     27  C   LIG    1       -3.598   2.714   1.135  0.00  0.00    +0.130 A 
ATOM     28  F   LIG    1       -3.031   2.111   2.202  0.00  0.00    -0.120 F 
ENDBRANCH  17  21
ENDBRANCH  16  17
ENDBRANCH   2  16
TORSDOF 6
