REMARK  Name = ZINCrH000004l1ju.0
REMARK                            x       y       z     vdW  Elec       q    Type
REMARK                         _______ _______ _______ _____ _____    ______ ____
ROOT
ATOM      1  C   LIG    1       -1.575   6.527   1.689  0.00  0.00    +0.560 C 
ATOM      2  N   LIG    1       -1.478   5.701   0.628  0.00  0.00    -0.590 N 
ATOM      3  C   LIG    1       -2.689   5.162   0.006  0.00  0.00    +0.300 C 
ATOM      4  O   LIG    1       -0.579   7.060   2.137  0.00  0.00    -0.530 OA
ENDROOT
BRANCH   1   9
ATOM      5  C   LIG    1       -5.088   6.024   2.948  0.00  0.00    -0.140 A 
ATOM      6  C   LIG    1       -5.366   7.289   3.471  0.00  0.00    +0.100 A 
ATOM      7  C   LIG    1       -4.415   8.288   3.411  0.00  0.00    +0.000 A 
ATOM      8  C   LIG    1       -3.183   8.044   2.838  0.00  0.00    +0.110 A 
ATOM      9  C   LIG    1       -2.894   6.785   2.306  0.00  0.00    -0.140 A 
ATOM     10  C   LIG    1       -3.848   5.772   2.364  0.00  0.00    +0.130 A 
BRANCH   5  11
ATOM     11  C   LIG    1       -6.106   4.955   3.013  0.00  0.00    +0.510 C 
ATOM     12  O   LIG    1       -5.863   3.856   2.557  0.00  0.00    -0.500 OA
BRANCH  11  14
ATOM     13  C   LIG    1       -8.256   4.104   3.607  0.00  0.00    +0.290 C 
ATOM     14  O   LIG    1       -7.304   5.200   3.578  0.00  0.00    -0.350 OA
ENDBRANCH  11  14
ENDBRANCH   5  11
ENDBRANCH   1   9
BRANCH   2  15
ATOM     15  C   LIG    1       -0.160   5.342   0.098  0.00  0.00    +0.370 C 
BRANCH  15  16
ATOM     16  C   LIG    1       -0.021   3.842   0.070  0.00  0.00    +0.120 A 
ATOM     17  C   LIG    1        1.236   3.271   0.117  0.00  0.00    -0.020 A 
ATOM     18  C   LIG    1        1.353   1.889   0.091  0.00  0.00    +0.070 A 
ATOM     19  C   LIG    1        0.195   1.131   0.018  0.00  0.00    -0.030 A 
ATOM     20  C   LIG    1       -1.028   1.772  -0.030  0.00  0.00    +0.260 A 
ATOM     21  N   LIG    1       -1.102   3.088   0.002  0.00  0.00    -0.470 NA
ENDBRANCH  15  16
BRANCH  15  22
ATOM     22  C   LIG    1       -0.016   5.886  -1.300  0.00  0.00    -0.090 A 
ATOM     23  C   LIG    1        0.780   5.228  -2.219  0.00  0.00    +0.010 A 
ATOM     24  C   LIG    1        0.908   5.724  -3.503  0.00  0.00    +0.000 A 
ATOM     25  C   LIG    1        0.249   6.884  -3.865  0.00  0.00    +0.000 A 
ATOM     26  C   LIG    1       -0.543   7.544  -2.944  0.00  0.00    +0.000 A 
ATOM     27  C   LIG    1       -0.675   7.045  -1.662  0.00  0.00    +0.020 A 
ENDBRANCH  15  22
ENDBRANCH   2  15
TORSDOF 6
