REMARK  Name = ZINCpk00000KfKVG.0
REMARK                            x       y       z     vdW  Elec       q    Type
REMARK                         _______ _______ _______ _____ _____    ______ ____
ROOT
ATOM      1  N   LIG    1        4.783   0.032   1.500  0.00  0.00    -0.530 NA
ATOM      2  C   LIG    1        3.494  -0.631   1.744  0.00  0.00    +0.200 C 
ATOM      3  C   LIG    1        2.367   0.399   1.641  0.00  0.00    +0.190 C 
ATOM      4  N   LIG    1        2.393   1.020   0.310  0.00  0.00    -0.520 NA
ATOM      5  C   LIG    1        3.682   1.683   0.066  0.00  0.00    +0.200 C 
ATOM      6  C   LIG    1        4.809   0.652   0.168  0.00  0.00    +0.140 C 
ATOM      7  C   LIG    1        6.156   1.347  -0.045  0.00  0.00    +0.030 C 
ENDROOT
BRANCH   1   8
ATOM      8  C   LIG    1        5.899  -0.910   1.664  0.00  0.00    +0.300 C 
BRANCH   8  13
ATOM      9  N   LIG    1        6.166  -1.360   4.152  0.00  0.00    -0.450 N 
ATOM     10  C   LIG    1        5.774  -2.340   5.023  0.00  0.00    +0.110 A 
ATOM     11  C   LIG    1        5.094  -3.252   4.303  0.00  0.00    +0.140 A 
ATOM     12  N   LIG    1        5.067  -2.837   3.027  0.00  0.00    -0.490 NA
ATOM     13  C   LIG    1        5.705  -1.703   2.930  0.00  0.00    +0.210 A 
BRANCH   9  15
ATOM     14  C   LIG    1        5.986   1.007   4.740  0.00  0.00    +0.040 C 
ATOM     15  C   LIG    1        6.940  -0.161   4.484  0.00  0.00    +0.280 C 
ENDBRANCH   9  15
ENDBRANCH   8  13
ENDBRANCH   1   8
BRANCH   4  16
ATOM     16  C   LIG    1        1.278   1.962   0.146  0.00  0.00    +0.220 C 
BRANCH  16  17
ATOM     17  C   LIG    1       -0.025   1.205   0.159  0.00  0.00    +0.510 C 
ATOM     18  N   LIG    1       -1.191   1.867   0.018  0.00  0.00    -0.680 N 
ATOM     19  H   LIG    1       -1.197   2.836  -0.012  0.00  0.00    +0.410 HD
ATOM     20  O   LIG    1       -0.025  -0.001   0.292  0.00  0.00    -0.490 OA
BRANCH  18  21
ATOM     21  C   LIG    1       -2.388   1.157  -0.086  0.00  0.00    +0.190 A 
ATOM     22  C   LIG    1       -2.427  -0.092  -0.703  0.00  0.00    -0.030 A 
ATOM     23  C   LIG    1       -3.630  -0.764  -0.780  0.00  0.00    +0.280 A 
ATOM     24  N   LIG    1       -4.734  -0.233  -0.289  0.00  0.00    -0.500 NA
ATOM     25  C   LIG    1       -4.738   0.949   0.297  0.00  0.00    +0.280 A 
ATOM     26  C   LIG    1       -3.576   1.682   0.420  0.00  0.00    -0.060 A 
ENDBRANCH  18  21
ENDBRANCH  16  17
ENDBRANCH   4  16
TORSDOF 6
