REMARK  Name = ZINCpk00000y6xla.0
REMARK                            x       y       z     vdW  Elec       q    Type
REMARK                         _______ _______ _______ _____ _____    ______ ____
ROOT
ATOM      1  C   LIG    1        1.755  -1.848  -0.025  0.00  0.00    +0.210 C 
ATOM      2  C   LIG    1        0.560  -2.829  -0.146  0.00  0.00    +0.090 C 
ATOM      3  C   LIG    1        1.134  -4.103   0.524  0.00  0.00    +0.280 C 
ATOM      4  N   LIG    1        1.960  -3.603   1.638  0.00  0.00    -0.600 N 
ATOM      5  C   LIG    1        2.279  -4.294   2.750  0.00  0.00    +0.620 C 
ATOM      6  O   LIG    1        2.970  -3.780   3.608  0.00  0.00    -0.520 OA
ATOM      7  C   LIG    1        2.377  -2.226   1.335  0.00  0.00    +0.260 C 
ENDROOT
BRANCH   5   8
ATOM      8  C   LIG    1        1.788  -5.682   2.928  0.00  0.00    -0.010 A 
ATOM      9  N   LIG    1        1.032  -6.369   2.099  0.00  0.00    -0.330 NA
ATOM     10  O   LIG    1        0.802  -7.483   2.526  0.00  0.00    +0.130 OA
ATOM     11  C   LIG    1        1.373  -7.680   3.713  0.00  0.00    -0.030 A 
ATOM     12  C   LIG    1        1.347  -8.897   4.599  0.00  0.00    +0.160 C 
ATOM     13  C   LIG    1        2.479  -8.769   5.627  0.00  0.00    +0.030 C 
ATOM     14  C   LIG    1        2.417  -7.393   6.296  0.00  0.00    +0.030 C 
ATOM     15  C   LIG    1        2.813  -6.311   5.282  0.00  0.00    +0.120 C 
ATOM     16  C   LIG    1        2.028  -6.537   4.023  0.00  0.00    -0.150 A 
ENDBRANCH   5   8
BRANCH   1  19
ATOM     17  N   LIG    1        1.187   1.742   0.000  0.00  0.00    -0.280 N 
ATOM     18  C   LIG    1        2.042   0.694  -0.014  0.00  0.00    +0.150 A 
ATOM     19  C   LIG    1        1.274  -0.420  -0.012  0.00  0.00    -0.040 A 
ATOM     20  N   LIG    1        0.002  -0.004   0.002  0.00  0.00    -0.250 NA
ATOM     21  N   LIG    1       -0.015   1.282   0.009  0.00  0.00    -0.080 NA
BRANCH  17  23
ATOM     22  C   LIG    1        1.830   3.611   1.440  0.00  0.00    +0.060 C 
ATOM     23  C   LIG    1        1.564   3.158   0.004  0.00  0.00    +0.250 C 
ATOM     24  C   LIG    1        2.829   3.351  -0.835  0.00  0.00    +0.060 C 
ENDBRANCH  17  23
ENDBRANCH   1  19
BRANCH   1  25
ATOM     25  O   LIG    1        2.688  -2.055  -1.087  0.00  0.00    -0.530 OA
ATOM     26  H   LIG    1        3.473  -1.492  -1.037  0.00  0.00    +0.380 HD
ENDBRANCH   1  25
TORSDOF 4
