REMARK  Name = ZINCvU0000000H9k.0
REMARK                            x       y       z     vdW  Elec       q    Type
REMARK                         _______ _______ _______ _____ _____    ______ ____
ROOT
ATOM      1  N   LIG    1        1.234  -2.082  -0.021  0.00  0.00    -0.560 N 
ATOM      2  C   LIG    1        0.075  -2.761   0.093  0.00  0.00    +0.580 C 
ATOM      3  C   LIG    1        0.071  -4.222  -0.101  0.00  0.00    -0.190 A 
ATOM      4  C   LIG    1       -1.052  -4.993   0.191  0.00  0.00    +0.120 A 
ATOM      5  C   LIG    1       -1.000  -6.362   0.024  0.00  0.00    -0.040 A 
ATOM      6  C   LIG    1        0.159  -6.971  -0.432  0.00  0.00    +0.080 A 
ATOM      7  C   LIG    1        1.277  -6.217  -0.733  0.00  0.00    -0.050 A 
ATOM      8  C   LIG    1        1.240  -4.842  -0.576  0.00  0.00    +0.230 A 
ATOM      9  N   LIG    1        2.334  -4.040  -0.881  0.00  0.00    -0.750 N 
ATOM     10  H   LIG    1        2.968  -4.308  -1.565  0.00  0.00    +0.420 HD
ATOM     11  O   LIG    1       -0.958  -2.172   0.351  0.00  0.00    -0.520 OA
ATOM     12  C   LIG    1        2.513  -2.781  -0.148  0.00  0.00    +0.590 C 
ENDROOT
BRANCH   1  16
ATOM     13  C   LIG    1        1.176   2.087   0.003  0.00  0.00    +0.130 A 
ATOM     14  C   LIG    1        1.534   1.405  -1.151  0.00  0.00    +0.000 A 
ATOM     15  C   LIG    1        1.554   0.025  -1.160  0.00  0.00    +0.050 A 
ATOM     16  C   LIG    1        1.214  -0.682  -0.013  0.00  0.00    +0.100 A 
ATOM     17  C   LIG    1        0.855   0.001   1.141  0.00  0.00    +0.090 A 
ATOM     18  C   LIG    1        0.837   1.382   1.149  0.00  0.00    -0.070 A 
BRANCH  13  20
ATOM     19  C   LIG    1        0.778   4.083   1.234  0.00  0.00    +0.250 C 
ATOM     20  O   LIG    1        1.157   3.446   0.011  0.00  0.00    -0.320 OA
ENDBRANCH  13  20
ENDBRANCH   1  16
BRANCH  12  21
ATOM     21  C   LIG    1        3.058  -3.076   1.225  0.00  0.00    -0.050 A 
ATOM     22  C   LIG    1        3.833  -4.124   1.562  0.00  0.00    +0.180 A 
ATOM     23  O   LIG    1        4.103  -4.015   2.878  0.00  0.00    -0.190 OA
ATOM     24  C   LIG    1        3.485  -2.911   3.332  0.00  0.00    +0.240 A 
ATOM     25  N   LIG    1        2.854  -2.345   2.330  0.00  0.00    -0.450 NA
BRANCH  24  26
ATOM     26  C   LIG    1        3.513  -2.418   4.725  0.00  0.00    -0.030 A 
ATOM     27  C   LIG    1        2.832  -1.249   5.068  0.00  0.00    +0.080 A 
ATOM     28  C   LIG    1        2.859  -0.796   6.371  0.00  0.00    +0.010 A 
ATOM     29  C   LIG    1        3.566  -1.492   7.334  0.00  0.00    -0.060 A 
ATOM     30  C   LIG    1        4.247  -2.649   7.000  0.00  0.00    +0.010 A 
ATOM     31  C   LIG    1        3.595  -0.989   8.755  0.00  0.00    +0.100 C 
ATOM     32  C   LIG    1        4.225  -3.115   5.702  0.00  0.00    +0.050 A 
ENDBRANCH  24  26
ENDBRANCH  12  21
TORSDOF 4
