REMARK  Name = ZINCAx0000000hbj.0
REMARK                            x       y       z     vdW  Elec       q    Type
REMARK                         _______ _______ _______ _____ _____    ______ ____
ROOT
ATOM      1  N   LIG    1        0.251   0.871  -0.245  0.00  0.00    -0.530 N 
ATOM      2  H   LIG    1        0.147   1.695  -0.746  0.00  0.00    +0.420 HD
ATOM      3  C   LIG    1       -0.742   0.441   0.559  0.00  0.00    +0.520 C 
ATOM      4  O   LIG    1       -0.650  -0.633   1.114  0.00  0.00    -0.500 OA
ENDROOT
BRANCH   3   5
ATOM      5  C   LIG    1       -1.968   1.293   0.765  0.00  0.00    +0.150 C 
ATOM      6  C   LIG    1       -1.815   2.113   2.046  0.00  0.00    +0.130 C 
ATOM      7  C   LIG    1       -3.122   2.779   2.390  0.00  0.00    -0.070 A 
ATOM      8  C   LIG    1       -3.111   3.831   3.292  0.00  0.00    +0.000 A 
ATOM      9  C   LIG    1       -4.287   4.468   3.637  0.00  0.00    +0.000 A 
ATOM     10  C   LIG    1       -5.482   4.053   3.079  0.00  0.00    +0.000 A 
ATOM     11  C   LIG    1       -5.494   3.006   2.180  0.00  0.00    +0.010 A 
ATOM     12  C   LIG    1       -4.313   2.367   1.831  0.00  0.00    -0.080 A 
ATOM     13  C   LIG    1       -4.376   1.236   0.838  0.00  0.00    +0.240 C 
ATOM     14  N   LIG    1       -3.152   0.431   0.900  0.00  0.00    -0.500 NA
BRANCH  14  15
ATOM     15  C   LIG    1       -3.160  -0.618  -0.129  0.00  0.00    +0.220 C 
BRANCH  15  16
ATOM     16  C   LIG    1       -4.266  -1.599   0.163  0.00  0.00    -0.080 A 
ATOM     17  C   LIG    1       -4.019  -2.706   0.953  0.00  0.00    +0.040 A 
ATOM     18  C   LIG    1       -5.035  -3.603   1.224  0.00  0.00    +0.000 A 
ATOM     19  C   LIG    1       -6.296  -3.399   0.696  0.00  0.00    +0.000 A 
ATOM     20  C   LIG    1       -6.542  -2.295  -0.099  0.00  0.00    +0.000 A 
ATOM     21  C   LIG    1       -5.527  -1.395  -0.365  0.00  0.00    +0.000 A 
ENDBRANCH  15  16
ENDBRANCH  14  15
ENDBRANCH   3   5
BRANCH   1  24
ATOM     22  O   LIG    1        3.521   0.006  -1.104  0.00  0.00    -0.570 OA
ATOM     23  C   LIG    1        2.464   0.607  -1.081  0.00  0.00    +0.720 C 
ATOM     24  N   LIG    1        1.432   0.127  -0.359  0.00  0.00    -0.520 N 
ATOM     25  H   LIG    1        1.508  -0.734   0.083  0.00  0.00    +0.450 HD
ATOM     26  N   LIG    1        2.325   1.753  -1.776  0.00  0.00    -0.540 N 
ATOM     27  H   LIG    1        1.508   2.270  -1.699  0.00  0.00    +0.420 HD
BRANCH  26  28
ATOM     28  N   LIG    1        3.360   2.196  -2.610  0.00  0.00    -0.510 N 
ATOM     29  H   LIG    1        4.145   1.643  -2.744  0.00  0.00    +0.430 HD
ATOM     30  C   LIG    1        3.264   3.392  -3.225  0.00  0.00    +0.600 C 
ATOM     31  O   LIG    1        2.323   4.126  -2.985  0.00  0.00    -0.540 OA
BRANCH  30  32
ATOM     32  C   LIG    1        4.295   3.809  -4.184  0.00  0.00    -0.230 A 
ATOM     33  C   LIG    1        5.347   3.063  -4.628  0.00  0.00    +0.300 A 
ATOM     34  N   LIG    1        6.083   3.786  -5.506  0.00  0.00    -0.570 N 
ATOM     35  H   LIG    1        6.881   3.465  -5.955  0.00  0.00    +0.420 HD
ATOM     36  C   LIG    1        5.537   5.042  -5.673  0.00  0.00    +0.080 A 
ATOM     37  C   LIG    1        5.897   6.141  -6.445  0.00  0.00    +0.000 A 
ATOM     38  C   LIG    1        5.128   7.284  -6.415  0.00  0.00    +0.030 A 
ATOM     39  C   LIG    1        4.000   7.356  -5.611  0.00  0.00    -0.010 A 
ATOM     40  C   LIG    1        3.629   6.279  -4.835  0.00  0.00    +0.060 A 
ATOM     41  C   LIG    1        4.393   5.115  -4.862  0.00  0.00    -0.060 A 
ENDBRANCH  30  32
ENDBRANCH  26  28
ENDBRANCH   1  24
TORSDOF 6
