REMARK  Name = ZINCpk00000y6yrP.0
REMARK                            x       y       z     vdW  Elec       q    Type
REMARK                         _______ _______ _______ _____ _____    ______ ____
ROOT
ATOM      1  C   LIG    1       -2.574   1.476   0.112  0.00  0.00    +0.620 C 
ATOM      2  N   LIG    1       -3.546   2.400  -0.019  0.00  0.00    -0.600 N 
ATOM      3  C   LIG    1       -3.345   3.860  -0.063  0.00  0.00    +0.280 C 
ATOM      4  C   LIG    1       -4.696   4.460   0.399  0.00  0.00    +0.040 C 
ATOM      5  C   LIG    1       -5.710   3.477  -0.243  0.00  0.00    +0.040 C 
ATOM      6  C   LIG    1       -4.984   2.118  -0.149  0.00  0.00    +0.230 C 
ATOM      7  O   LIG    1       -2.863   0.300   0.224  0.00  0.00    -0.530 OA
ENDROOT
BRANCH   1  10
ATOM      8  N   LIG    1        1.021   1.837   0.197  0.00  0.00    -0.300 N 
ATOM      9  C   LIG    1       -0.083   1.059   0.244  0.00  0.00    +0.310 A 
ATOM     10  C   LIG    1       -1.158   1.891   0.119  0.00  0.00    -0.100 A 
ATOM     11  N   LIG    1       -0.709   3.153   0.007  0.00  0.00    -0.200 NA
ATOM     12  N   LIG    1        0.578   3.158   0.046  0.00  0.00    -0.050 NA
BRANCH   8  18
ATOM     13  C   LIG    1        5.823   2.902   0.231  0.00  0.00    +0.100 C 
ATOM     14  C   LIG    1        4.698   1.901   0.301  0.00  0.00    -0.060 A 
ATOM     15  C   LIG    1        4.980   0.555   0.448  0.00  0.00    +0.020 A 
ATOM     16  C   LIG    1        3.951  -0.366   0.513  0.00  0.00    +0.050 A 
ATOM     17  C   LIG    1        2.638   0.056   0.435  0.00  0.00    +0.010 A 
ATOM     18  C   LIG    1        2.352   1.406   0.281  0.00  0.00    +0.130 A 
ATOM     19  C   LIG    1        3.388   2.328   0.217  0.00  0.00    +0.040 A 
ENDBRANCH   8  18
ENDBRANCH   1  10
BRANCH   6  20
ATOM     20  C   LIG    1       -5.241   1.299  -1.415  0.00  0.00    +0.320 C 
BRANCH  20  21
ATOM     21  N   LIG    1       -6.668   0.984  -1.512  0.00  0.00    -0.290 N 
ATOM     22  C   LIG    1       -7.478   1.281  -2.555  0.00  0.00    +0.140 A 
ATOM     23  C   LIG    1       -8.704   0.812  -2.226  0.00  0.00    +0.140 A 
ATOM     24  N   LIG    1       -8.587   0.259  -1.014  0.00  0.00    -0.270 NA
ATOM     25  N   LIG    1       -7.367   0.372  -0.620  0.00  0.00    -0.080 NA
ENDBRANCH  20  21
ENDBRANCH   6  20
TORSDOF 4
