REMARK  Name = ZINCtj0000002q3Q.1
REMARK                            x       y       z     vdW  Elec       q    Type
REMARK                         _______ _______ _______ _____ _____    ______ ____
ROOT
ATOM      1  N   LIG    1       -0.766   1.593   1.183  0.00  0.00    -0.390 N 
ATOM      2  C   LIG    1       -0.013   1.086   0.008  0.00  0.00    +0.280 C 
ATOM      3  C   LIG    1       -0.821   1.628  -1.197  0.00  0.00    +0.060 C 
ATOM      4  C   LIG    1       -1.265   3.028  -0.714  0.00  0.00    +0.280 C 
ATOM      5  C   LIG    1       -1.197   2.963   0.823  0.00  0.00    +0.270 C 
ATOM      6  H   LIG    1       -1.571   1.011   1.359  0.00  0.00    +0.430 HD
ENDROOT
BRANCH   4   7
ATOM      7  N   LIG    1       -2.634   3.308  -1.153  0.00  0.00    -0.750 N 
ATOM      8  H   LIG    1       -3.381   3.108  -0.567  0.00  0.00    +0.400 HD
ATOM      9  C   LIG    1       -2.856   3.841  -2.370  0.00  0.00    +0.710 C 
ATOM     10  N   LIG    1       -4.116   4.098  -2.774  0.00  0.00    -0.720 N 
ATOM     11  H   LIG    1       -4.863   3.899  -2.189  0.00  0.00    +0.400 HD
ATOM     12  O   LIG    1       -1.919   4.091  -3.104  0.00  0.00    -0.560 OA
BRANCH  10  13
ATOM     13  C   LIG    1       -4.357   4.678  -4.098  0.00  0.00    +0.260 C 
ATOM     14  C   LIG    1       -5.792   4.358  -4.576  0.00  0.00    +0.070 C 
ATOM     15  C   LIG    1       -6.565   5.613  -4.113  0.00  0.00    +0.270 C 
ATOM     16  N   LIG    1       -5.566   6.686  -4.045  0.00  0.00    -0.590 N 
ATOM     17  C   LIG    1       -4.313   6.189  -4.030  0.00  0.00    +0.500 C 
ATOM     18  O   LIG    1       -3.300   6.853  -3.970  0.00  0.00    -0.500 OA
BRANCH  16  19
ATOM     19  C   LIG    1       -5.888   8.114  -3.999  0.00  0.00    +0.210 C 
ATOM     20  C   LIG    1       -4.730   9.104  -4.136  0.00  0.00    +0.040 C 
ATOM     21  C   LIG    1       -5.412   8.907  -2.780  0.00  0.00    +0.000 C 
ENDBRANCH  16  19
ENDBRANCH  10  13
ENDBRANCH   4   7
BRANCH   1  22
ATOM     22  C   LIG    1        0.105   1.627   2.366  0.00  0.00    +0.330 C 
BRANCH  22  25
ATOM     23  C   LIG    1        1.952  -1.664   2.583  0.00  0.00    +0.180 A 
ATOM     24  C   LIG    1        1.608  -0.368   2.226  0.00  0.00    -0.030 A 
ATOM     25  C   LIG    1        0.476   0.219   2.757  0.00  0.00    -0.080 A 
ATOM     26  C   LIG    1       -0.314  -0.480   3.649  0.00  0.00    -0.030 A 
ATOM     27  C   LIG    1        0.023  -1.778   4.006  0.00  0.00    +0.180 A 
ATOM     28  C   LIG    1        1.158  -2.370   3.474  0.00  0.00    -0.130 A 
BRANCH  23  30
ATOM     29  C   LIG    1        3.358  -3.578   2.472  0.00  0.00    +0.250 C 
ATOM     30  O   LIG    1        3.066  -2.241   2.060  0.00  0.00    -0.310 OA
ENDBRANCH  23  30
BRANCH  27  31
ATOM     31  O   LIG    1       -0.757  -2.467   4.880  0.00  0.00    -0.310 OA
ATOM     32  C   LIG    1       -0.347  -3.797   5.207  0.00  0.00    +0.250 C 
ENDBRANCH  27  31
ENDBRANCH  22  25
ENDBRANCH   1  22
TORSDOF 7
