REMARK  Name = ZINCtj0000002q3Q.2
REMARK                            x       y       z     vdW  Elec       q    Type
REMARK                         _______ _______ _______ _____ _____    ______ ____
ROOT
ATOM      1  N   LIG    1       -6.378  -5.494  -2.631  0.00  0.00    -0.390 N 
ATOM      2  C   LIG    1       -5.691  -6.556  -1.864  0.00  0.00    +0.250 C 
ATOM      3  C   LIG    1       -4.537  -5.885  -1.096  0.00  0.00    +0.060 C 
ATOM      4  C   LIG    1       -4.597  -4.394  -1.500  0.00  0.00    +0.280 C 
ATOM      5  C   LIG    1       -5.365  -4.425  -2.845  0.00  0.00    +0.280 C 
ATOM      6  H   LIG    1       -7.157  -5.132  -2.102  0.00  0.00    +0.430 HD
ENDROOT
BRANCH   4   7
ATOM      7  N   LIG    1       -3.248  -3.853  -1.686  0.00  0.00    -0.740 N 
ATOM      8  H   LIG    1       -2.832  -3.879  -2.562  0.00  0.00    +0.400 HD
ATOM      9  C   LIG    1       -2.586  -3.318  -0.641  0.00  0.00    +0.710 C 
ATOM     10  N   LIG    1       -1.345  -2.820  -0.813  0.00  0.00    -0.720 N 
ATOM     11  H   LIG    1       -0.929  -2.847  -1.688  0.00  0.00    +0.400 HD
ATOM     12  O   LIG    1       -3.108  -3.285   0.456  0.00  0.00    -0.560 OA
BRANCH  10  13
ATOM     13  C   LIG    1       -0.626  -2.239   0.324  0.00  0.00    +0.260 C 
ATOM     14  C   LIG    1        0.896  -2.228   0.052  0.00  0.00    +0.070 C 
ATOM     15  C   LIG    1        1.099  -0.814  -0.541  0.00  0.00    +0.270 C 
ATOM     16  N   LIG    1        0.002  -0.004   0.002  0.00  0.00    -0.590 N 
ATOM     17  C   LIG    1       -0.984  -0.779   0.486  0.00  0.00    +0.500 C 
ATOM     18  O   LIG    1       -2.012  -0.366   0.981  0.00  0.00    -0.500 OA
BRANCH  16  19
ATOM     19  C   LIG    1       -0.018   1.461   0.010  0.00  0.00    +0.210 C 
ATOM     20  C   LIG    1       -1.141   2.148   0.790  0.00  0.00    +0.040 C 
ATOM     21  C   LIG    1       -1.155   2.156  -0.741  0.00  0.00    +0.000 C 
ENDBRANCH  16  19
ENDBRANCH  10  13
ENDBRANCH   4   7
BRANCH   1  22
ATOM     22  C   LIG    1       -6.841  -6.020  -3.921  0.00  0.00    +0.330 C 
BRANCH  22  25
ATOM     23  C   LIG    1      -10.235  -7.606  -3.416  0.00  0.00    +0.180 A 
ATOM     24  C   LIG    1       -9.242  -6.660  -3.631  0.00  0.00    -0.030 A 
ATOM     25  C   LIG    1       -7.917  -7.049  -3.687  0.00  0.00    -0.080 A 
ATOM     26  C   LIG    1       -7.578  -8.380  -3.534  0.00  0.00    -0.030 A 
ATOM     27  C   LIG    1       -8.567  -9.328  -3.313  0.00  0.00    +0.180 A 
ATOM     28  C   LIG    1       -9.897  -8.941  -3.257  0.00  0.00    -0.120 A 
BRANCH  23  30
ATOM     29  C   LIG    1      -12.507  -8.249  -3.138  0.00  0.00    +0.250 C 
ATOM     30  O   LIG    1      -11.538  -7.223  -3.363  0.00  0.00    -0.310 OA
ENDBRANCH  23  30
BRANCH  27  31
ATOM     31  O   LIG    1       -8.232 -10.636  -3.158  0.00  0.00    -0.310 OA
ATOM     32  C   LIG    1       -9.302 -11.558  -2.941  0.00  0.00    +0.250 C 
ENDBRANCH  27  31
ENDBRANCH  22  25
ENDBRANCH   1  22
TORSDOF 7
