REMARK  Name = ZINCpk00000y1Zrn.0
REMARK                            x       y       z     vdW  Elec       q    Type
REMARK                         _______ _______ _______ _____ _____    ______ ____
ROOT
ATOM      1  C   LIG    1        2.619   7.862   0.970  0.00  0.00    +0.190 C 
ATOM      2  N   LIG    1        1.792   8.347  -0.144  0.00  0.00    -0.530 NA
ATOM      3  C   LIG    1        2.625   8.699  -1.303  0.00  0.00    +0.150 C 
ATOM      4  C   LIG    1        1.736   9.254  -2.420  0.00  0.00    +0.230 C 
ATOM      5  O   LIG    1        0.736   8.282  -2.740  0.00  0.00    -0.380 OA
ATOM      6  C   LIG    1       -0.097   7.934  -1.633  0.00  0.00    +0.170 C 
ATOM      7  C   LIG    1       -1.146   6.911  -2.069  0.00  0.00    +0.050 C 
ATOM      8  C   LIG    1       -0.448   5.652  -2.591  0.00  0.00    +0.280 C 
ATOM      9  N   LIG    1        0.478   5.166  -1.558  0.00  0.00    -0.590 N 
ATOM     10  C   LIG    1        1.475   6.096  -1.014  0.00  0.00    +0.250 C 
ATOM     11  C   LIG    1        0.408   3.894  -1.115  0.00  0.00    +0.580 C 
ATOM     12  O   LIG    1        1.112   3.533  -0.192  0.00  0.00    -0.540 OA
ATOM     13  C   LIG    1        0.778   7.349  -0.522  0.00  0.00    +0.140 C 
ENDROOT
BRANCH  11  14
ATOM     14  C   LIG    1       -0.523   2.939  -1.753  0.00  0.00    -0.090 A 
ATOM     15  C   LIG    1       -0.500   2.756  -3.136  0.00  0.00    +0.040 A 
ATOM     16  C   LIG    1       -1.376   1.868  -3.726  0.00  0.00    +0.020 A 
ATOM     17  C   LIG    1       -2.270   1.155  -2.948  0.00  0.00    +0.030 A 
ATOM     18  C   LIG    1       -2.294   1.327  -1.575  0.00  0.00    +0.030 A 
ATOM     19  C   LIG    1       -1.424   2.212  -0.974  0.00  0.00    -0.070 A 
BRANCH  19  20
ATOM     20  C   LIG    1       -1.451   2.399   0.521  0.00  0.00    +0.380 C 
BRANCH  20  21
ATOM     21  N   LIG    1       -2.263   3.572   0.853  0.00  0.00    -0.360 N 
ATOM     22  C   LIG    1       -3.319   3.596   1.692  0.00  0.00    +0.220 A 
ATOM     23  C   LIG    1       -3.792   4.864   1.726  0.00  0.00    -0.120 A 
ATOM     24  C   LIG    1       -2.997   5.641   0.878  0.00  0.00    +0.220 A 
ATOM     25  N   LIG    1       -2.077   4.870   0.358  0.00  0.00    -0.280 NA
ENDBRANCH  20  21
ENDBRANCH  19  20
ENDBRANCH  11  14
TORSDOF 3
