REMARK  Name = ZINCpk00000eavwF.0
REMARK                            x       y       z     vdW  Elec       q    Type
REMARK                         _______ _______ _______ _____ _____    ______ ____
ROOT
ATOM      1  N   LIG    1        3.588   2.123  -0.022  0.00  0.00    -0.550 N 
ATOM      2  C   LIG    1        4.916   1.504   0.067  0.00  0.00    +0.310 C 
ATOM      3  C   LIG    1        5.878   2.648   0.458  0.00  0.00    +0.010 C 
ATOM      4  C   LIG    1        5.129   3.888  -0.082  0.00  0.00    +0.090 C 
ATOM      5  C   LIG    1        3.678   3.461  -0.118  0.00  0.00    +0.520 C 
ATOM      6  O   LIG    1        2.734   4.215  -0.217  0.00  0.00    -0.500 OA
ENDROOT
BRANCH   1  11
ATOM      7  C   LIG    1       -0.017   1.383   0.026  0.00  0.00    +0.160 A 
ATOM      8  C   LIG    1        0.002  -0.004   0.002  0.00  0.00    -0.100 A 
ATOM      9  C   LIG    1        1.207  -0.680  -0.030  0.00  0.00    +0.080 A 
ATOM     10  C   LIG    1        2.396   0.022  -0.038  0.00  0.00    -0.060 A 
ATOM     11  C   LIG    1        2.384   1.411  -0.014  0.00  0.00    +0.210 A 
ATOM     12  C   LIG    1        1.175   2.092   0.019  0.00  0.00    -0.030 A 
BRANCH   7  14
ATOM     13  C   LIG    1       -2.390   1.253   0.052  0.00  0.00    +0.250 C 
ATOM     14  O   LIG    1       -1.202   2.047   0.052  0.00  0.00    -0.310 OA
ENDBRANCH   7  14
ENDBRANCH   1  11
BRANCH   3  15
ATOM     15  C   LIG    1        6.045   2.726   1.953  0.00  0.00    +0.530 C 
ATOM     16  N   LIG    1        6.849   3.663   2.494  0.00  0.00    -0.710 N 
ATOM     17  H   LIG    1        7.320   4.287   1.921  0.00  0.00    +0.410 HD
ATOM     18  O   LIG    1        5.456   1.945   2.671  0.00  0.00    -0.530 OA
BRANCH  16  19
ATOM     19  C   LIG    1        7.011   3.739   3.948  0.00  0.00    +0.220 C 
ATOM     20  C   LIG    1        8.099   2.760   4.392  0.00  0.00    +0.040 C 
BRANCH  19  21
ATOM     21  C   LIG    1        7.412   5.161   4.343  0.00  0.00    +0.320 C 
BRANCH  21  22
ATOM     22  N   LIG    1        6.319   6.083   4.027  0.00  0.00    -0.380 N 
ATOM     23  C   LIG    1        5.721   6.932   4.889  0.00  0.00    +0.220 A 
ATOM     24  C   LIG    1        4.764   7.605   4.208  0.00  0.00    -0.120 A 
ATOM     25  C   LIG    1        4.778   7.152   2.885  0.00  0.00    +0.230 A 
ATOM     26  N   LIG    1        5.713   6.244   2.774  0.00  0.00    -0.290 NA
ENDBRANCH  21  22
ENDBRANCH  19  21
ENDBRANCH  16  19
ENDBRANCH   3  15
TORSDOF 6
