REMARK  Name = ZINCvU00000009Nv.0
REMARK                            x       y       z     vdW  Elec       q    Type
REMARK                         _______ _______ _______ _____ _____    ______ ____
ROOT
ATOM      1  C   LIG    1        0.042  -0.054   0.015  0.00  0.00    -0.220 A 
ATOM      2  C   LIG    1        1.358  -0.371  -0.224  0.00  0.00    +0.180 A 
ATOM      3  N   LIG    1        2.169   0.673  -0.185  0.00  0.00    -0.500 NA
ATOM      4  C   LIG    1        1.637   1.827   0.066  0.00  0.00    +0.240 A 
ATOM      5  S   LIG    1       -0.051   1.684   0.290  0.00  0.00    +0.280 S 
ENDROOT
BRANCH   1  11
ATOM      6  C   LIG    1       -2.955   0.690   0.300  0.00  0.00    +0.340 C 
ATOM      7  N   LIG    1       -2.406  -0.661   0.164  0.00  0.00    -0.460 N 
ATOM      8  C   LIG    1       -3.118  -1.833   0.137  0.00  0.00    +0.140 A 
ATOM      9  C   LIG    1       -2.227  -2.836   0.005  0.00  0.00    +0.160 A 
ATOM     10  N   LIG    1       -0.999  -2.307  -0.053  0.00  0.00    -0.450 NA
ATOM     11  C   LIG    1       -1.085  -0.995   0.038  0.00  0.00    +0.280 A 
ENDBRANCH   1  11
BRANCH   2  12
ATOM     12  C   LIG    1        1.823  -1.750  -0.499  0.00  0.00    -0.030 A 
ATOM     13  C   LIG    1        2.965  -2.243   0.132  0.00  0.00    +0.040 A 
ATOM     14  C   LIG    1        3.390  -3.530  -0.124  0.00  0.00    -0.020 A 
ATOM     15  C   LIG    1        2.692  -4.327  -1.014  0.00  0.00    +0.010 A 
ATOM     16  C   LIG    1        1.562  -3.842  -1.648  0.00  0.00    -0.010 A 
ATOM     17  C   LIG    1        1.124  -2.559  -1.395  0.00  0.00    +0.090 A 
ENDBRANCH   2  12
BRANCH   4  18
ATOM     18  N   LIG    1        2.343   3.019   0.142  0.00  0.00    -0.620 N 
ATOM     19  H   LIG    1        3.303   3.024   0.003  0.00  0.00    +0.430 HD
ATOM     20  C   LIG    1        1.695   4.170   0.409  0.00  0.00    +0.520 C 
ATOM     21  O   LIG    1        0.494   4.164   0.584  0.00  0.00    -0.480 OA
BRANCH  20  22
ATOM     22  C   LIG    1        2.461   5.465   0.491  0.00  0.00    +0.190 C 
BRANCH  22  23
ATOM     23  C   LIG    1        1.510   6.593   0.800  0.00  0.00    +0.080 A 
ATOM     24  C   LIG    1        1.691   7.408   1.844  0.00  0.00    -0.050 A 
ATOM     25  S   LIG    1        0.378   8.584   1.860  0.00  0.00    +0.150 S 
ATOM     26  C   LIG    1       -0.302   7.837   0.416  0.00  0.00    +0.130 A 
ATOM     27  N   LIG    1        0.457   6.839   0.056  0.00  0.00    -0.430 NA
BRANCH  26  28
ATOM     28  C   LIG    1       -1.525   8.274  -0.275  0.00  0.00    +0.040 A 
ATOM     29  C   LIG    1       -2.322   9.317   0.090  0.00  0.00    +0.000 A 
ATOM     30  C   LIG    1       -3.372   9.372  -0.846  0.00  0.00    -0.050 A 
ATOM     31  C   LIG    1       -3.170   8.372  -1.727  0.00  0.00    +0.200 A 
ATOM     32  O   LIG    1       -2.051   7.714  -1.383  0.00  0.00    -0.150 OA
ENDBRANCH  26  28
ENDBRANCH  22  23
ENDBRANCH  20  22
ENDBRANCH   4  18
TORSDOF 6
