REMARK  Name = ZINCrH000004q7oJ.0
REMARK                            x       y       z     vdW  Elec       q    Type
REMARK                         _______ _______ _______ _____ _____    ______ ____
ROOT
ATOM      1  C   LIG    1       -4.917  -0.505  -1.284  0.00  0.00    +0.570 C 
ATOM      2  N   LIG    1       -4.380  -0.283  -0.067  0.00  0.00    -0.600 N 
ATOM      3  C   LIG    1       -5.049  -0.773   1.146  0.00  0.00    +0.260 C 
ATOM      4  C   LIG    1       -5.235   0.401   2.114  0.00  0.00    +0.040 C 
ATOM      5  C   LIG    1       -3.882   1.069   2.367  0.00  0.00    +0.040 C 
ATOM      6  C   LIG    1       -3.324   1.612   1.049  0.00  0.00    +0.090 C 
ATOM      7  C   LIG    1       -3.116   0.453   0.070  0.00  0.00    +0.300 C 
ATOM      8  O   LIG    1       -4.401  -0.023  -2.273  0.00  0.00    -0.510 OA
ENDROOT
BRANCH   6   9
ATOM      9  C   LIG    1       -2.007   2.297   1.305  0.00  0.00    +0.290 A 
ATOM     10  N   LIG    1       -1.857   3.574   1.507  0.00  0.00    -0.480 NA
ATOM     11  C   LIG    1       -0.543   3.855   1.698  0.00  0.00    +0.050 A 
ATOM     12  C   LIG    1        0.164   5.034   1.945  0.00  0.00    +0.070 A 
ATOM     13  C   LIG    1        1.522   4.995   2.096  0.00  0.00    +0.000 A 
ATOM     14  C   LIG    1        2.210   3.794   2.006  0.00  0.00    +0.030 A 
ATOM     15  C   LIG    1        1.532   2.617   1.764  0.00  0.00    +0.010 A 
ATOM     16  C   LIG    1        0.153   2.638   1.608  0.00  0.00    +0.050 A 
ATOM     17  N   LIG    1       -0.801   1.670   1.362  0.00  0.00    -0.600 N 
ATOM     18  H   LIG    1       -0.640   0.721   1.248  0.00  0.00    +0.420 HD
ENDBRANCH   6   9
BRANCH   1  21
ATOM     19  C   LIG    1       -7.140   0.454  -2.868  0.00  0.00    +0.140 C 
ATOM     20  C   LIG    1       -7.212  -0.883  -2.176  0.00  0.00    +0.040 A 
ATOM     21  C   LIG    1       -6.133  -1.335  -1.415  0.00  0.00    -0.140 A 
ATOM     22  C   LIG    1       -6.211  -2.572  -0.772  0.00  0.00    +0.110 A 
ATOM     23  C   LIG    1       -7.348  -3.342  -0.899  0.00  0.00    +0.030 A 
ATOM     24  C   LIG    1       -8.412  -2.890  -1.659  0.00  0.00    +0.130 A 
ATOM     25  C   LIG    1       -8.342  -1.665  -2.298  0.00  0.00    -0.050 A 
BRANCH  25  26
ATOM     26  N   LIG    1       -9.485  -1.189  -3.110  0.00  0.00    +0.030 N 
ATOM     27  O   LIG    1       -9.376  -0.178  -3.781  0.00  0.00    -0.150 OA
ATOM     28  O   LIG    1      -10.534  -1.808  -3.106  0.00  0.00    -0.160 OA
ENDBRANCH  25  26
ENDBRANCH   1  21
TORSDOF 3
