REMARK  Name = ZINCrH00000No4LI.0
REMARK                            x       y       z     vdW  Elec       q    Type
REMARK                         _______ _______ _______ _____ _____    ______ ____
ROOT
ATOM      1  O   LIG    1        4.019  -5.749   1.048  0.00  0.00    -0.530 OA
ATOM      2  C   LIG    1        3.926  -4.656   0.521  0.00  0.00    +0.550 C 
ATOM      3  N   LIG    1        5.001  -4.100  -0.072  0.00  0.00    -0.670 N 
ATOM      4  H   LIG    1        4.911  -3.260  -0.550  0.00  0.00    +0.410 HD
ENDROOT
BRANCH   3   5
ATOM      5  C   LIG    1        6.247  -4.734   0.002  0.00  0.00    +0.120 A 
ATOM      6  C   LIG    1        7.408  -3.976   0.085  0.00  0.00    +0.010 A 
ATOM      7  C   LIG    1        8.637  -4.601   0.163  0.00  0.00    -0.020 A 
ATOM      8  C   LIG    1        8.712  -5.988   0.148  0.00  0.00    +0.090 A 
ATOM      9  C   LIG    1        7.552  -6.746   0.060  0.00  0.00    +0.010 A 
ATOM     10  C   LIG    1        6.323  -6.120  -0.013  0.00  0.00    +0.050 A 
BRANCH   8  11
ATOM     11  N   LIG    1        9.958  -6.621   0.223  0.00  0.00    -0.490 N 
ATOM     12  C   LIG    1       10.007  -7.553   1.359  0.00  0.00    +0.160 C 
ATOM     13  C   LIG    1       11.362  -8.267   1.367  0.00  0.00    +0.220 C 
ATOM     14  O   LIG    1       12.408  -7.293   1.420  0.00  0.00    -0.380 OA
ATOM     15  C   LIG    1       12.390  -6.369   0.329  0.00  0.00    +0.220 C 
ATOM     16  C   LIG    1       11.046  -5.636   0.309  0.00  0.00    +0.160 C 
ENDBRANCH   8  11
ENDBRANCH   3   5
BRANCH   2  17
ATOM     17  C   LIG    1        2.648  -3.946   0.530  0.00  0.00    -0.090 C 
ATOM     18  C   LIG    1        1.571  -4.503   1.124  0.00  0.00    +0.140 C 
BRANCH  18  19
ATOM     19  C   LIG    1        0.286  -3.789   1.134  0.00  0.00    -0.100 A 
ATOM     20  C   LIG    1        0.174  -2.533   0.529  0.00  0.00    +0.070 A 
ATOM     21  C   LIG    1       -1.034  -1.870   0.542  0.00  0.00    -0.010 A 
ATOM     22  C   LIG    1       -2.139  -2.441   1.152  0.00  0.00    +0.070 A 
ATOM     23  C   LIG    1       -2.043  -3.681   1.754  0.00  0.00    -0.050 A 
ATOM     24  C   LIG    1       -0.837  -4.364   1.750  0.00  0.00    +0.130 A 
BRANCH  24  25
ATOM     25  O   LIG    1       -0.742  -5.582   2.341  0.00  0.00    -0.320 OA
BRANCH  25  26
ATOM     26  C   LIG    1       -1.926  -6.103   2.948  0.00  0.00    +0.600 C 
ATOM     27  F   LIG    1       -2.928  -6.232   1.980  0.00  0.00    -0.200 F 
ATOM     28  F   LIG    1       -2.357  -5.231   3.953  0.00  0.00    -0.200 F 
ENDBRANCH  25  26
ENDBRANCH  24  25
ENDBRANCH  18  19
ENDBRANCH   2  17
TORSDOF 6
