REMARK  Name = ZINCqH0000051ag9.0
REMARK                            x       y       z     vdW  Elec       q    Type
REMARK                         _______ _______ _______ _____ _____    ______ ____
ROOT
ATOM      1  C   LIG    1        4.492   8.750  -0.002  0.00  0.00    +0.270 C 
ENDROOT
BRANCH   1   3
ATOM      2  O   LIG    1        6.785   9.311  -0.002  0.00  0.00    -0.490 OA
ATOM      3  C   LIG    1        5.644   9.722   0.001  0.00  0.00    +0.520 C 
ATOM      4  N   LIG    1        5.405  11.049   0.008  0.00  0.00    -0.670 N 
ATOM      5  H   LIG    1        4.495  11.379  -0.057  0.00  0.00    +0.420 HD
BRANCH   4   6
ATOM      6  C   LIG    1        6.472  11.952   0.109  0.00  0.00    +0.150 A 
ATOM      7  C   LIG    1        7.687  11.661  -0.495  0.00  0.00    +0.050 A 
ATOM      8  C   LIG    1        8.740  12.551  -0.397  0.00  0.00    +0.060 A 
ATOM      9  C   LIG    1        8.586  13.735   0.304  0.00  0.00    +0.020 A 
ATOM     10  O   LIG    1        9.453  14.763   0.545  0.00  0.00    -0.310 OA
ATOM     11  C   LIG    1        8.884  15.495   1.646  0.00  0.00    +0.430 C 
ATOM     12  O   LIG    1        7.471  15.241   1.533  0.00  0.00    -0.310 OA
ATOM     13  C   LIG    1        7.367  14.030   0.912  0.00  0.00    +0.050 A 
ATOM     14  C   LIG    1        6.311  13.141   0.808  0.00  0.00    +0.020 A 
ENDBRANCH   4   6
ENDBRANCH   1   3
BRANCH   1  15
ATOM     15  O   LIG    1        5.006   7.392  -0.009  0.00  0.00    -0.330 OA
BRANCH  15  16
ATOM     16  C   LIG    1        4.103   6.399  -0.013  0.00  0.00    +0.470 C 
ATOM     17  O   LIG    1        2.922   6.656  -0.010  0.00  0.00    -0.500 OA
BRANCH  16  18
ATOM     18  C   LIG    1        4.562   4.963  -0.021  0.00  0.00    +0.140 C 
BRANCH  18  19
ATOM     19  C   LIG    1        3.343   4.038  -0.024  0.00  0.00    +0.090 C 
BRANCH  19  20
ATOM     20  S   LIG    1        3.895   2.311  -0.033  0.00  0.00    -0.070 S 
BRANCH  20  21
ATOM     21  C   LIG    1        2.380   1.411  -0.035  0.00  0.00    -0.080 A 
ATOM     22  C   LIG    1        1.168   2.088  -0.029  0.00  0.00    +0.010 A 
ATOM     23  C   LIG    1       -0.018   1.379  -0.031  0.00  0.00    +0.040 A 
ATOM     24  C   LIG    1        0.001  -0.003  -0.038  0.00  0.00    +0.030 A 
ATOM     25  C   LIG    1        1.206  -0.682  -0.044  0.00  0.00    +0.050 A 
ATOM     26  C   LIG    1        2.396   0.020  -0.042  0.00  0.00    -0.020 A 
ATOM     27 CL   LIG    1        3.908  -0.833  -0.050  0.00  0.00    -0.050 Cl
ENDBRANCH  20  21
ENDBRANCH  19  20
ENDBRANCH  18  19
ENDBRANCH  16  18
ENDBRANCH  15  16
ENDBRANCH   1  15
TORSDOF 8
