REMARK  Name = ZINCrD00000dd3r6.0
REMARK                            x       y       z     vdW  Elec       q    Type
REMARK                         _______ _______ _______ _____ _____    ______ ____
ROOT
ATOM      1  C   LIG    1        0.412   0.706   3.504  0.00  0.00    +0.510 C 
ATOM      2  N   LIG    1        0.847   0.320   2.288  0.00  0.00    -0.610 N 
ATOM      3  C   LIG    1        2.132   0.797   1.828  0.00  0.00    +0.280 C 
ATOM      4  C   LIG    1        1.949   2.140   1.079  0.00  0.00    +0.000 C 
ATOM      5  C   LIG    1        1.291   1.916  -0.218  0.00  0.00    +0.240 C 
ATOM      6  C   LIG    1       -0.120   1.345  -0.117  0.00  0.00    +0.040 C 
ATOM      7  C   LIG    1       -0.044  -0.158  -0.001  0.00  0.00    -0.070 C 
ATOM      8  C   LIG    1        1.222  -0.657  -0.699  0.00  0.00    +0.030 C 
ATOM      9  C   LIG    1       -1.270  -0.781  -0.672  0.00  0.00    +0.040 C 
ATOM     10  C   LIG    1       -0.008  -0.573   1.482  0.00  0.00    +0.280 C 
ATOM     11  O   LIG    1       -0.662   0.320   3.914  0.00  0.00    -0.530 OA
ENDROOT
BRANCH   5  12
ATOM     12  N   LIG    1        1.226   3.192  -0.934  0.00  0.00    -0.710 N 
ATOM     13  H   LIG    1        0.403   3.707  -0.934  0.00  0.00    +0.400 HD
ATOM     14  C   LIG    1        2.308   3.652  -1.592  0.00  0.00    +0.600 C 
ATOM     15  O   LIG    1        3.309   2.966  -1.670  0.00  0.00    -0.540 OA
BRANCH  14  16
ATOM     16  C   LIG    1        2.278   4.984  -2.218  0.00  0.00    -0.040 A 
ATOM     17  C   LIG    1        1.259   5.917  -2.138  0.00  0.00    -0.030 A 
ATOM     18  C   LIG    1        1.697   7.009  -2.890  0.00  0.00    +0.020 A 
ATOM     19  N   LIG    1        2.881   6.719  -3.366  0.00  0.00    -0.270 NA
ATOM     20  C   LIG    1        0.940   8.292  -3.114  0.00  0.00    +0.160 C 
ATOM     21  N   LIG    1        3.254   5.549  -2.989  0.00  0.00    -0.260 N 
ATOM     22  C   LIG    1        4.528   4.916  -3.336  0.00  0.00    +0.390 C 
ENDBRANCH  14  16
ENDBRANCH   5  12
BRANCH   1  23
ATOM     23  C   LIG    1        1.260   1.617   4.354  0.00  0.00    +0.040 C 
BRANCH  23  24
ATOM     24  C   LIG    1        0.540   1.899   5.674  0.00  0.00    +0.000 C 
ATOM     25  C   LIG    1       -0.745   2.683   5.398  0.00  0.00    +0.030 C 
BRANCH  24  26
ATOM     26  C   LIG    1        1.452   2.721   6.587  0.00  0.00    +0.000 C 
BRANCH  26  28
ATOM     27  C   LIG    1        1.696   3.719   8.864  0.00  0.00    +0.000 C 
ATOM     28  C   LIG    1        0.784   2.897   7.952  0.00  0.00    -0.010 C 
ENDBRANCH  26  28
ENDBRANCH  24  26
ENDBRANCH  23  24
ENDBRANCH   1  23
TORSDOF 6
