REMARK  Name = ZINCrg000000opCe.0
REMARK                            x       y       z     vdW  Elec       q    Type
REMARK                         _______ _______ _______ _____ _____    ______ ____
ROOT
ATOM      1  N   LIG    1       -0.020  -1.988   4.489  0.00  0.00    -0.520 NA
ATOM      2  C   LIG    1       -1.428  -1.976   4.908  0.00  0.00    +0.200 C 
ATOM      3  C   LIG    1       -1.895  -3.412   5.162  0.00  0.00    +0.180 C 
ATOM      4  N   LIG    1       -1.047  -4.023   6.195  0.00  0.00    -0.530 NA
ATOM      5  C   LIG    1        0.362  -4.036   5.777  0.00  0.00    +0.200 C 
ATOM      6  C   LIG    1        0.828  -2.600   5.522  0.00  0.00    +0.190 C 
ENDROOT
BRANCH   1   7
ATOM      7  C   LIG    1        0.444  -0.634   4.162  0.00  0.00    +0.200 C 
BRANCH   7  10
ATOM      8  N   LIG    1       -0.020   1.094   2.454  0.00  0.00    -0.730 N 
ATOM      9  H   LIG    1        0.639   1.657   2.889  0.00  0.00    +0.400 HD
ATOM     10  C   LIG    1       -0.285  -0.134   2.941  0.00  0.00    +0.510 C 
ATOM     11  O   LIG    1       -1.109  -0.838   2.397  0.00  0.00    -0.520 OA
BRANCH   8  12
ATOM     12  C   LIG    1       -0.729   1.579   1.267  0.00  0.00    +0.230 C 
ATOM     13  C   LIG    1       -0.013   1.086   0.008  0.00  0.00    +0.030 C 
BRANCH  12  15
ATOM     14  C   LIG    1       -1.573   3.601   2.467  0.00  0.00    +0.020 C 
ATOM     15  C   LIG    1       -0.750   3.109   1.275  0.00  0.00    +0.020 C 
ENDBRANCH  12  15
ENDBRANCH   8  12
ENDBRANCH   7  10
ENDBRANCH   1   7
BRANCH   4  16
ATOM     16  C   LIG    1       -1.511  -5.378   6.522  0.00  0.00    +0.260 C 
BRANCH  16  17
ATOM     17  C   LIG    1       -3.006  -5.366   6.707  0.00  0.00    +0.220 A 
ATOM     18  C   LIG    1       -3.815  -6.062   5.830  0.00  0.00    -0.170 A 
ATOM     19  C   LIG    1       -5.201  -6.041   6.026  0.00  0.00    +0.510 A 
ATOM     20  N   LIG    1       -5.705  -5.332   7.059  0.00  0.00    -0.430 N 
ATOM     21  C   LIG    1       -7.052  -5.296   7.258  0.00  0.00    +0.270 A 
ATOM     22  C   LIG    1       -7.579  -4.594   8.286  0.00  0.00    -0.130 A 
ATOM     23  C   LIG    1       -6.741  -3.889   9.161  0.00  0.00    +0.120 A 
ATOM     24  C   LIG    1       -5.392  -3.918   8.970  0.00  0.00    +0.040 A 
ATOM     25  C   LIG    1       -9.072  -4.568   8.490  0.00  0.00    +0.130 C 
ATOM     26  C   LIG    1       -4.862  -4.655   7.895  0.00  0.00    +0.390 A 
ATOM     27  O   LIG    1       -5.943  -6.650   5.271  0.00  0.00    -0.530 OA
ATOM     28  N   LIG    1       -3.544  -4.684   7.706  0.00  0.00    -0.520 NA
ENDBRANCH  16  17
ENDBRANCH   4  16
TORSDOF 6
