REMARK  Name = ZINCvU00000005io.0
REMARK                            x       y       z     vdW  Elec       q    Type
REMARK                         _______ _______ _______ _____ _____    ______ ____
ROOT
ATOM      1  C   LIG    1        6.050   2.795   0.119  0.00  0.00    +0.350 C 
ATOM      2  N   LIG    1        4.963   1.819   0.011  0.00  0.00    -0.490 N 
ATOM      3  C   LIG    1        5.165   0.725  -0.734  0.00  0.00    +0.540 C 
ATOM      4  N   LIG    1        4.223  -0.225  -0.890  0.00  0.00    -0.540 N 
ATOM      5  C   LIG    1        2.927  -0.054  -0.213  0.00  0.00    +0.330 C 
ATOM      6  C   LIG    1        2.743   1.203   0.614  0.00  0.00    -0.240 C 
ATOM      7  C   LIG    1        4.486  -1.408  -1.714  0.00  0.00    +0.360 C 
ATOM      8  S   LIG    1        6.676   0.526  -1.515  0.00  0.00    -0.600 S 
ATOM      9  C   LIG    1        3.789   2.076   0.679  0.00  0.00    +0.230 C 
ENDROOT
BRANCH   5  10
ATOM     10  C   LIG    1        2.711  -1.240   0.690  0.00  0.00    -0.110 A 
ATOM     11  C   LIG    1        3.680  -1.593   1.612  0.00  0.00    +0.030 A 
ATOM     12  C   LIG    1        3.479  -2.677   2.445  0.00  0.00    +0.030 A 
ATOM     13  C   LIG    1        2.314  -3.417   2.349  0.00  0.00    -0.020 A 
ATOM     14  C   LIG    1        1.348  -3.067   1.422  0.00  0.00    +0.040 A 
ATOM     15 CL   LIG    1        2.065  -4.783   3.390  0.00  0.00    -0.060 Cl
ATOM     16  C   LIG    1        1.547  -1.979   0.594  0.00  0.00    +0.060 A 
ENDBRANCH   5  10
BRANCH   9  17
ATOM     17  C   LIG    1        3.659   3.312   1.477  0.00  0.00    -0.090 A 
ATOM     18  C   LIG    1        4.322   3.431   2.700  0.00  0.00    +0.040 A 
ATOM     19  C   LIG    1        4.200   4.590   3.438  0.00  0.00    +0.010 A 
ATOM     20  C   LIG    1        3.414   5.630   2.973  0.00  0.00    +0.040 A 
ATOM     21  C   LIG    1        2.751   5.518   1.764  0.00  0.00    +0.020 A 
ATOM     22  C   LIG    1        2.868   4.366   1.014  0.00  0.00    +0.060 A 
ENDBRANCH   9  17
BRANCH   6  23
ATOM     23  C   LIG    1        1.535   1.457   1.296  0.00  0.00    +0.600 C 
ATOM     24  N   LIG    1        1.419   1.141   2.601  0.00  0.00    -0.660 N 
ATOM     25  H   LIG    1        2.147   0.693   3.058  0.00  0.00    +0.410 HD
ATOM     26  O   LIG    1        0.596   1.962   0.706  0.00  0.00    -0.500 OA
BRANCH  24  27
ATOM     27  C   LIG    1        0.246   1.455   3.295  0.00  0.00    +0.140 A 
ATOM     28  C   LIG    1       -0.974   1.470   2.630  0.00  0.00    +0.020 A 
ATOM     29  C   LIG    1       -2.131   1.776   3.318  0.00  0.00    +0.030 A 
ATOM     30  C   LIG    1       -2.075   2.078   4.667  0.00  0.00    -0.010 A 
ATOM     31  C   LIG    1       -0.862   2.069   5.331  0.00  0.00    +0.030 A 
ATOM     32  C   LIG    1        0.298   1.759   4.649  0.00  0.00    -0.020 A 
ENDBRANCH  24  27
ENDBRANCH   6  23
TORSDOF 4
