REMARK  Name = ZINCtV000002C9OH.0
REMARK                            x       y       z     vdW  Elec       q    Type
REMARK                         _______ _______ _______ _____ _____    ______ ____
ROOT
ATOM      1  N   LIG    1        2.386   5.298   0.008  0.00  0.00    -0.670 N 
ATOM      2  H   LIG    1        1.534   5.757   0.066  0.00  0.00    +0.410 HD
ATOM      3  C   LIG    1        2.422   3.962  -0.166  0.00  0.00    +0.560 C 
ATOM      4  O   LIG    1        3.487   3.399  -0.334  0.00  0.00    -0.500 OA
ENDROOT
BRANCH   1  10
ATOM      5  C   LIG    1        8.085   7.318   1.058  0.00  0.00    +0.080 A 
ATOM      6  N   LIG    1        7.179   8.029   0.479  0.00  0.00    -0.460 NA
ATOM      7  C   LIG    1        5.961   7.477   0.303  0.00  0.00    +0.070 A 
ATOM      8  C   LIG    1        4.815   8.042  -0.296  0.00  0.00    +0.100 A 
ATOM      9  C   LIG    1        3.651   7.323  -0.389  0.00  0.00    +0.010 A 
ATOM     10  C   LIG    1        3.580   6.024   0.107  0.00  0.00    +0.170 A 
ATOM     11  C   LIG    1        4.691   5.453   0.702  0.00  0.00    +0.070 A 
ATOM     12  C   LIG    1        5.880   6.171   0.797  0.00  0.00    -0.150 A 
ATOM     13  S   LIG    1        7.445   5.737   1.480  0.00  0.00    +0.110 S 
BRANCH   5  15
ATOM     14  C   LIG    1        9.658   9.527   0.690  0.00  0.00    +0.150 C 
ATOM     15  S   LIG    1        9.732   7.856   1.380  0.00  0.00    +0.000 S 
ENDBRANCH   5  15
ENDBRANCH   1  10
BRANCH   3  16
ATOM     16  C   LIG    1        1.170   3.183  -0.154  0.00  0.00    -0.180 A 
ATOM     17  C   LIG    1       -0.056   3.826   0.040  0.00  0.00    +0.080 A 
ATOM     18  C   LIG    1       -1.222   3.092   0.051  0.00  0.00    -0.030 A 
ATOM     19  C   LIG    1       -1.186   1.720  -0.134  0.00  0.00    +0.090 A 
ATOM     20  C   LIG    1        0.019   1.071  -0.320  0.00  0.00    -0.080 A 
ATOM     21  C   LIG    1        1.202   1.794  -0.335  0.00  0.00    +0.190 A 
BRANCH  21  22
ATOM     22  O   LIG    1        2.386   1.158  -0.523  0.00  0.00    -0.280 OA
BRANCH  22  23
ATOM     23  C   LIG    1        2.341  -0.259  -0.700  0.00  0.00    +0.260 C 
BRANCH  23  24
ATOM     24  C   LIG    1        3.739  -0.786  -0.893  0.00  0.00    -0.090 A 
ATOM     25  C   LIG    1        4.814   0.084  -0.879  0.00  0.00    +0.070 A 
ATOM     26  C   LIG    1        6.097  -0.400  -1.056  0.00  0.00    +0.020 A 
ATOM     27  C   LIG    1        6.306  -1.752  -1.249  0.00  0.00    +0.030 A 
ATOM     28  C   LIG    1        5.232  -2.623  -1.264  0.00  0.00    +0.030 A 
ATOM     29  C   LIG    1        3.949  -2.141  -1.080  0.00  0.00    -0.030 A 
ATOM     30 CL   LIG    1        2.600  -3.235  -1.090  0.00  0.00    -0.070 Cl
ENDBRANCH  23  24
ENDBRANCH  22  23
ENDBRANCH  21  22
ENDBRANCH   3  16
TORSDOF 6
