REMARK  Name = ZINCpk00000y6wkW.0
REMARK                            x       y       z     vdW  Elec       q    Type
REMARK                         _______ _______ _______ _____ _____    ______ ____
ROOT
ATOM      1  O   LIG    1        2.911   6.746  -2.303  0.00  0.00    -0.530 OA
ATOM      2  C   LIG    1        2.086   6.567  -1.432  0.00  0.00    +0.500 C 
ATOM      3  N   LIG    1        2.244   5.560  -0.551  0.00  0.00    -0.710 N 
ATOM      4  H   LIG    1        1.584   5.417   0.146  0.00  0.00    +0.410 HD
ENDROOT
BRANCH   3   5
ATOM      5  C   LIG    1        3.412   4.680  -0.645  0.00  0.00    +0.250 C 
ATOM      6  C   LIG    1        4.585   5.274   0.155  0.00  0.00    +0.020 C 
ATOM      7  C   LIG    1        4.939   4.245   1.248  0.00  0.00    +0.030 C 
ATOM      8  C   LIG    1        3.637   3.427   1.436  0.00  0.00    +0.010 C 
ATOM      9  C   LIG    1        3.095   3.311  -0.010  0.00  0.00    +0.170 C 
BRANCH   9  10
ATOM     10  O   LIG    1        1.685   3.079   0.002  0.00  0.00    -0.290 OA
BRANCH  10  11
ATOM     11  C   LIG    1        1.270   1.782  -0.001  0.00  0.00    -0.030 A 
ATOM     12  C   LIG    1       -0.016   1.355   0.009  0.00  0.00    +0.210 A 
ATOM     13  N   LIG    1        0.002  -0.004   0.002  0.00  0.00    -0.470 N 
ATOM     14  H   LIG    1       -0.774  -0.586   0.006  0.00  0.00    +0.450 HD
ATOM     15  N   LIG    1        1.341  -0.415  -0.013  0.00  0.00    -0.270 NA
ATOM     16  C   LIG    1        2.099   0.652  -0.015  0.00  0.00    +0.180 A 
ENDBRANCH  10  11
ENDBRANCH   9  10
ENDBRANCH   3   5
BRANCH   2  17
ATOM     17  C   LIG    1        0.884   7.471  -1.335  0.00  0.00    +0.360 C 
BRANCH  17  18
ATOM     18  N   LIG    1        0.944   8.478  -2.398  0.00  0.00    -0.600 N 
ATOM     19  C   LIG    1        0.372   8.337  -3.742  0.00  0.00    +0.340 C 
ATOM     20  C   LIG    1        0.684   9.620  -4.470  0.00  0.00    -0.080 A 
ATOM     21  C   LIG    1        0.412  10.073  -5.740  0.00  0.00    +0.030 A 
ATOM     22  C   LIG    1        0.839  11.331  -6.132  0.00  0.00    +0.040 A 
ATOM     23  C   LIG    1        1.540  12.134  -5.250  0.00  0.00    +0.000 A 
ATOM     24  C   LIG    1        1.818  11.689  -3.974  0.00  0.00    +0.090 A 
ATOM     25  C   LIG    1        1.391  10.423  -3.571  0.00  0.00    -0.160 A 
ATOM     26  C   LIG    1        1.527   9.686  -2.301  0.00  0.00    +0.570 C 
ATOM     27  O   LIG    1        2.088  10.108  -1.309  0.00  0.00    -0.520 OA
ENDBRANCH  17  18
ENDBRANCH   2  17
TORSDOF 5
