REMARK  Name = ZINCrH000004lorB.0
REMARK                            x       y       z     vdW  Elec       q    Type
REMARK                         _______ _______ _______ _____ _____    ______ ____
ROOT
ATOM      1  N   LIG    1        1.173  -0.661  -0.114  0.00  0.00    -0.690 N 
ATOM      2  H   LIG    1        1.887  -0.137  -0.510  0.00  0.00    +0.410 HD
ATOM      3  C   LIG    1        0.170  -0.047   0.544  0.00  0.00    +0.710 C 
ATOM      4  N   LIG    1        0.078   1.298   0.527  0.00  0.00    -0.630 N 
ATOM      5  C   LIG    1        1.123   2.120  -0.102  0.00  0.00    +0.300 C 
ATOM      6  C   LIG    1        0.522   2.860  -1.302  0.00  0.00    +0.100 C 
ATOM      7  C   LIG    1       -0.804   3.459  -0.898  0.00  0.00    +0.080 A 
ATOM      8  C   LIG    1       -1.513   3.067   0.182  0.00  0.00    -0.180 A 
ATOM      9  C   LIG    1       -2.716   3.872   0.221  0.00  0.00    -0.090 A 
ATOM     10  C   LIG    1       -3.805   3.910   1.097  0.00  0.00    +0.060 A 
ATOM     11  C   LIG    1       -4.793   4.823   0.821  0.00  0.00    -0.030 A 
ATOM     12  C   LIG    1       -4.725   5.672  -0.271  0.00  0.00    +0.020 A 
ATOM     13  C   LIG    1       -3.659   5.656  -1.155  0.00  0.00    +0.000 A 
ATOM     14  C   LIG    1       -2.641   4.739  -0.899  0.00  0.00    +0.100 A 
ATOM     15  N   LIG    1       -1.474   4.463  -1.550  0.00  0.00    -0.580 N 
ATOM     16  H   LIG    1       -1.163   4.910  -2.353  0.00  0.00    +0.420 HD
ATOM     17  C   LIG    1       -1.076   1.986   1.134  0.00  0.00    +0.390 C 
ATOM     18  O   LIG    1       -0.651  -0.705   1.153  0.00  0.00    -0.560 OA
ENDROOT
BRANCH   1  23
ATOM     19  C   LIG    1        2.397  -4.124  -0.356  0.00  0.00    +0.150 A 
ATOM     20  C   LIG    1        1.199  -4.817  -0.453  0.00  0.00    -0.100 A 
ATOM     21  C   LIG    1       -0.002  -4.132  -0.437  0.00  0.00    +0.070 A 
ATOM     22  C   LIG    1       -0.013  -2.756  -0.324  0.00  0.00    -0.020 A 
ATOM     23  C   LIG    1        1.184  -2.056  -0.228  0.00  0.00    +0.210 A 
ATOM     24  C   LIG    1        2.390  -2.742  -0.249  0.00  0.00    -0.050 A 
BRANCH  19  25
ATOM     25  O   LIG    1        3.576  -4.799  -0.372  0.00  0.00    -0.310 OA
BRANCH  25  26
ATOM     26  C   LIG    1        3.508  -6.221  -0.492  0.00  0.00    +0.210 C 
BRANCH  26  27
ATOM     27  C   LIG    1        4.924  -6.801  -0.493  0.00  0.00    +0.190 C 
BRANCH  27  29
ATOM     28  C   LIG    1        6.872  -7.062   0.879  0.00  0.00    +0.200 C 
ATOM     29  O   LIG    1        5.539  -6.558   0.774  0.00  0.00    -0.390 OA
ENDBRANCH  27  29
ENDBRANCH  26  27
ENDBRANCH  25  26
ENDBRANCH  19  25
ENDBRANCH   1  23
TORSDOF 5
