REMARK  Name = ZINCpe00000bcWHd.0
REMARK                            x       y       z     vdW  Elec       q    Type
REMARK                         _______ _______ _______ _____ _____    ______ ____
ROOT
ATOM      1  C   LIG    1       -0.404  -0.721   1.034  0.00  0.00    +0.570 C 
ATOM      2  N   LIG    1        0.288  -0.052   0.090  0.00  0.00    -0.610 N 
ATOM      3  C   LIG    1        0.331   1.417   0.083  0.00  0.00    +0.320 C 
ATOM      4  C   LIG    1        1.779   1.855   0.286  0.00  0.00    +0.120 C 
ATOM      5  C   LIG    1        2.699   1.117  -0.660  0.00  0.00    +0.380 C 
ATOM      6  N   LIG    1        3.775   1.765  -1.024  0.00  0.00    -0.920 NA
ATOM      7  S   LIG    1        4.854   1.058  -2.068  0.00  0.00    +2.690 S 
ATOM      8  N   LIG    1        4.630  -0.579  -1.846  0.00  0.00    -1.050 N 
ATOM      9  H   LIG    1        5.373  -1.203  -1.843  0.00  0.00    +0.440 HD
ATOM     10  C   LIG    1        3.332  -0.994  -1.667  0.00  0.00    +0.410 C 
ATOM     11  O   LIG    1        6.155   1.365  -1.587  0.00  0.00    -0.940 OA
ATOM     12  O   LIG    1        4.411   1.359  -3.385  0.00  0.00    -0.960 OA
ATOM     13  C   LIG    1        2.407  -0.183  -1.107  0.00  0.00    -0.310 C 
ATOM     14  C   LIG    1        1.018  -0.767  -0.959  0.00  0.00    +0.360 C 
ATOM     15  O   LIG    1       -0.922  -0.115   1.951  0.00  0.00    -0.520 OA
ENDROOT
BRANCH   1  20
ATOM     16  C   LIG    1       -0.694  -4.203  -0.356  0.00  0.00    +0.140 A 
ATOM     17  C   LIG    1       -0.771  -4.952   0.812  0.00  0.00    +0.050 A 
ATOM     18  C   LIG    1       -0.729  -4.325   2.044  0.00  0.00    +0.040 A 
ATOM     19  C   LIG    1       -0.610  -2.953   2.122  0.00  0.00    +0.060 A 
ATOM     20  C   LIG    1       -0.531  -2.192   0.954  0.00  0.00    -0.110 A 
ATOM     21  C   LIG    1       -0.580  -2.823  -0.289  0.00  0.00    +0.010 A 
BRANCH  16  23
ATOM     22  C   LIG    1       -0.305  -6.112  -1.721  0.00  0.00    +0.550 C 
ATOM     23  N   LIG    1       -0.738  -4.841  -1.600  0.00  0.00    -0.670 N 
ATOM     24  H   LIG    1       -1.081  -4.370  -2.375  0.00  0.00    +0.410 HD
ATOM     25  O   LIG    1        0.210  -6.672  -0.772  0.00  0.00    -0.520 OA
BRANCH  22  27
ATOM     26  C   LIG    1       -0.029  -8.075  -3.120  0.00  0.00    +0.160 C 
ATOM     27  C   LIG    1       -0.456  -6.821  -3.000  0.00  0.00    -0.100 C 
ENDBRANCH  22  27
ENDBRANCH  16  23
ENDBRANCH   1  20
TORSDOF 3
