REMARK  Name = ZINCnE000001Mo6o.0
REMARK                            x       y       z     vdW  Elec       q    Type
REMARK                         _______ _______ _______ _____ _____    ______ ____
ROOT
ATOM      1  N   LIG    1       -3.266   2.806  -2.082  0.00  0.00    -0.610 N 
ATOM      2  C   LIG    1       -2.708   2.679  -3.302  0.00  0.00    +0.600 C 
ATOM      3  O   LIG    1       -1.850   3.462  -3.664  0.00  0.00    -0.530 OA
ATOM      4  C   LIG    1       -4.199   1.788  -1.594  0.00  0.00    +0.290 C 
ENDROOT
BRANCH   2   5
ATOM      5  C   LIG    1       -3.134   1.594  -4.195  0.00  0.00    -0.300 A 
ATOM      6  C   LIG    1       -2.557   1.292  -5.375  0.00  0.00    +0.150 A 
ATOM      7  C   LIG    1       -3.152   0.217  -6.028  0.00  0.00    -0.170 A 
ATOM      8  C   LIG    1       -4.209  -0.329  -5.351  0.00  0.00    -0.030 A 
ATOM      9  S   LIG    1       -4.467   0.495  -3.879  0.00  0.00    +0.160 S 
BRANCH   7  10
ATOM     10  C   LIG    1       -2.688  -0.286  -7.327  0.00  0.00    +0.540 C 
ATOM     11  O   LIG    1       -3.252  -1.236  -7.853  0.00  0.00    -0.690 OA
ATOM     12  O   LIG    1       -1.736   0.244  -7.884  0.00  0.00    -0.680 OA
ENDBRANCH   7  10
ENDBRANCH   2   5
BRANCH   1  14
ATOM     13  C   LIG    1       -4.216   4.748  -0.940  0.00  0.00    +0.030 C 
ATOM     14  C   LIG    1       -2.939   3.963  -1.245  0.00  0.00    +0.240 C 
BRANCH  14  15
ATOM     15  C   LIG    1       -2.311   3.483   0.065  0.00  0.00    +0.090 C 
BRANCH  15  16
ATOM     16  C   LIG    1       -0.991   2.816  -0.226  0.00  0.00    -0.150 A 
ATOM     17  C   LIG    1       -0.944   1.457  -0.483  0.00  0.00    +0.140 A 
ATOM     18  C   LIG    1        0.270   0.844  -0.745  0.00  0.00    -0.020 A 
ATOM     19  C   LIG    1        1.433   1.592  -0.761  0.00  0.00    +0.080 A 
ATOM     20  C   LIG    1        1.386   2.950  -0.509  0.00  0.00    -0.020 A 
ATOM     21  F   LIG    1       -2.080   0.727  -0.473  0.00  0.00    -0.130 F 
ATOM     22  C   LIG    1        0.174   3.563  -0.241  0.00  0.00    +0.130 A 
ATOM     23  F   LIG    1        0.128   4.891   0.004  0.00  0.00    -0.130 F 
ENDBRANCH  15  16
ENDBRANCH  14  15
ENDBRANCH   1  14
TORSDOF 5
