REMARK  Name = ZINCvU00000007fa.0
REMARK                            x       y       z     vdW  Elec       q    Type
REMARK                         _______ _______ _______ _____ _____    ______ ____
ROOT
ATOM      1  C   LIG    1       -2.780   2.981  -4.668  0.00  0.00    +0.570 C 
ATOM      2  N   LIG    1       -3.771   2.245  -5.209  0.00  0.00    -0.530 N 
ATOM      3  H   LIG    1       -4.012   1.392  -4.816  0.00  0.00    +0.420 HD
ATOM      4  O   LIG    1       -2.479   4.050  -5.160  0.00  0.00    -0.520 OA
ENDROOT
BRANCH   1   8
ATOM      5  C   LIG    1       -0.708   1.561  -1.242  0.00  0.00    -0.050 A 
ATOM      6  C   LIG    1       -1.722   0.801  -1.798  0.00  0.00    +0.040 A 
ATOM      7  C   LIG    1       -2.402   1.259  -2.908  0.00  0.00    +0.040 A 
ATOM      8  C   LIG    1       -2.059   2.487  -3.475  0.00  0.00    -0.120 A 
ATOM      9  C   LIG    1       -1.032   3.246  -2.913  0.00  0.00    +0.090 A 
ATOM     10  C   LIG    1       -0.363   2.779  -1.800  0.00  0.00    +0.040 A 
BRANCH   5  11
ATOM     11  C   LIG    1        0.028   1.057  -0.028  0.00  0.00    +0.140 C 
BRANCH  11  12
ATOM     12  S   LIG    1       -0.809   1.638   1.468  0.00  0.00    +0.020 S 
BRANCH  12  18
ATOM     13  C   LIG    1        3.263  -1.170   2.781  0.00  0.00    +0.140 C 
ATOM     14  C   LIG    1        2.077  -0.349   3.219  0.00  0.00    +0.190 A 
ATOM     15  C   LIG    1        1.812  -0.163   4.566  0.00  0.00    -0.090 A 
ATOM     16  C   LIG    1        0.711   0.599   4.926  0.00  0.00    +0.190 A 
ATOM     17  N   LIG    1       -0.050   1.121   3.978  0.00  0.00    -0.510 NA
ATOM     18  C   LIG    1        0.231   0.924   2.698  0.00  0.00    +0.300 A 
ATOM     19  C   LIG    1        0.383   0.828   6.379  0.00  0.00    +0.150 C 
ATOM     20  N   LIG    1        1.274   0.197   2.321  0.00  0.00    -0.530 NA
ENDBRANCH  12  18
ENDBRANCH  11  12
ENDBRANCH   5  11
ENDBRANCH   1   8
BRANCH   2  21
ATOM     21  N   LIG    1       -4.455   2.713  -6.339  0.00  0.00    -0.520 N 
ATOM     22  H   LIG    1       -4.214   3.567  -6.732  0.00  0.00    +0.450 HD
ATOM     23  C   LIG    1       -5.446   1.978  -6.880  0.00  0.00    +0.720 C 
ATOM     24  N   LIG    1       -5.780   0.792  -6.334  0.00  0.00    -0.680 N 
ATOM     25  H   LIG    1       -5.264   0.436  -5.593  0.00  0.00    +0.400 HD
ATOM     26  O   LIG    1       -6.039   2.384  -7.860  0.00  0.00    -0.550 OA
BRANCH  24  27
ATOM     27  C   LIG    1       -6.872   0.073  -6.835  0.00  0.00    +0.180 A 
ATOM     28  C   LIG    1       -7.159   0.101  -8.193  0.00  0.00    +0.060 A 
ATOM     29  C   LIG    1       -8.236  -0.609  -8.685  0.00  0.00    +0.070 A 
ATOM     30  C   LIG    1       -9.030  -1.348  -7.827  0.00  0.00    -0.040 A 
ATOM     31  C   LIG    1       -8.747  -1.377  -6.471  0.00  0.00    -0.010 A 
ATOM     32 CL   LIG    1       -9.746  -2.305  -5.397  0.00  0.00    -0.040 Cl
ATOM     33 CL   LIG    1      -10.384  -2.239  -8.449  0.00  0.00    -0.040 Cl
ATOM     34  C   LIG    1       -7.667  -0.673  -5.975  0.00  0.00    +0.020 A 
ENDBRANCH  24  27
ENDBRANCH   2  21
TORSDOF 6
