REMARK  Name = ZINCtj00000nxG9F.1
REMARK                            x       y       z     vdW  Elec       q    Type
REMARK                         _______ _______ _______ _____ _____    ______ ____
ROOT
ATOM      1  N   LIG    1       -3.604  -2.097  -2.586  0.00  0.00    -0.620 N 
ATOM      2  C   LIG    1       -3.013  -1.762  -1.422  0.00  0.00    +0.530 C 
ATOM      3  O   LIG    1       -3.526  -2.075  -0.369  0.00  0.00    -0.520 OA
ATOM      4  C   LIG    1       -2.984  -1.719  -3.858  0.00  0.00    +0.290 C 
ENDROOT
BRANCH   1   5
ATOM      5  C   LIG    1       -4.867  -2.840  -2.579  0.00  0.00    +0.320 C 
BRANCH   5  11
ATOM      6  C   LIG    1       -9.581   2.301  -5.101  0.00  0.00    +0.200 C 
ATOM      7  C   LIG    1       -8.835   1.160  -4.460  0.00  0.00    +0.040 C 
ATOM      8  C   LIG    1       -7.571   0.783  -4.742  0.00  0.00    +0.240 C 
ATOM      9  N   LIG    1       -7.293  -0.284  -3.940  0.00  0.00    -0.400 N 
ATOM     10  C   LIG    1       -6.047  -1.052  -3.868  0.00  0.00    +0.330 C 
ATOM     11  C   LIG    1       -6.038  -1.855  -2.562  0.00  0.00    -0.030 C 
ATOM     12  C   LIG    1       -7.353  -2.628  -2.428  0.00  0.00    +0.080 C 
ATOM     13  C   LIG    1       -8.497  -1.638  -2.175  0.00  0.00    +0.190 C 
ATOM     14  C   LIG    1       -8.396  -0.528  -3.194  0.00  0.00    +0.310 C 
ATOM     15  N   LIG    1       -9.312   0.340  -3.510  0.00  0.00    -0.470 N 
ATOM     16  H   LIG    1      -10.199   0.387  -3.121  0.00  0.00    +0.460 HD
ENDBRANCH   5  11
ENDBRANCH   1   5
BRANCH   2  17
ATOM     17  C   LIG    1       -1.714  -0.998  -1.430  0.00  0.00    +0.050 C 
BRANCH  17  18
ATOM     18  C   LIG    1       -1.261  -0.747   0.010  0.00  0.00    +0.340 C 
BRANCH  18  19
ATOM     19  N   LIG    1        0.002  -0.004   0.002  0.00  0.00    -0.540 N 
ATOM     20  C   LIG    1        1.168  -0.673  -0.013  0.00  0.00    +0.710 A 
ATOM     21  N   LIG    1        2.360  -0.057  -0.021  0.00  0.00    -0.660 N 
ATOM     22  H   LIG    1        3.171  -0.590  -0.032  0.00  0.00    +0.440 HD
ATOM     23  C   LIG    1        2.453   1.290  -0.015  0.00  0.00    +0.560 A 
ATOM     24  C   LIG    1        1.207   2.076   0.002  0.00  0.00    -0.200 A 
ATOM     25  C   LIG    1        1.219   3.469   0.009  0.00  0.00    +0.140 A 
ATOM     26  C   LIG    1        0.024   4.159   0.025  0.00  0.00    -0.010 A 
ATOM     27  C   LIG    1       -1.181   3.474   0.033  0.00  0.00    +0.100 A 
ATOM     28  C   LIG    1       -1.207   2.093   0.030  0.00  0.00    -0.030 A 
ATOM     29  O   LIG    1        3.538   1.841  -0.023  0.00  0.00    -0.480 OA
ATOM     30  O   LIG    1        1.141  -1.889  -0.019  0.00  0.00    -0.540 OA
ATOM     31  C   LIG    1       -0.017   1.383   0.010  0.00  0.00    +0.200 A 
ENDBRANCH  18  19
ENDBRANCH  17  18
ENDBRANCH   2  17
TORSDOF 5
