REMARK  Name = ZINCrD000000B5UI.0
REMARK                            x       y       z     vdW  Elec       q    Type
REMARK                         _______ _______ _______ _____ _____    ______ ____
ROOT
ATOM      1  O   LIG    1        6.139   2.416  -1.092  0.00  0.00    -0.580 OA
ATOM      2  C   LIG    1        5.542   2.311  -0.038  0.00  0.00    +0.710 C 
ATOM      3  N   LIG    1        4.260   1.896  -0.028  0.00  0.00    -0.630 N 
ATOM      4  C   LIG    1        3.537   1.673  -1.288  0.00  0.00    +0.290 C 
ATOM      5  C   LIG    1        2.252   2.511  -1.271  0.00  0.00    +0.300 C 
ATOM      6  N   LIG    1        1.553   2.273  -0.000  0.00  0.00    -0.990 NA
ATOM      7  C   LIG    1        2.275   2.502   1.259  0.00  0.00    +0.300 C 
ATOM      8  C   LIG    1        3.561   1.658   1.242  0.00  0.00    +0.270 C 
ATOM      9  N   LIG    1        6.163   2.610   1.120  0.00  0.00    -0.750 N 
ATOM     10  H   LIG    1        5.712   2.457   1.965  0.00  0.00    +0.400 HD
ENDROOT
BRANCH   6  11
ATOM     11  S   LIG    1       -0.022   1.763   0.012  0.00  0.00    +2.690 S 
ATOM     12  O   LIG    1       -0.560   2.150   1.269  0.00  0.00    -0.940 OA
ATOM     13  O   LIG    1       -0.584   2.165  -1.230  0.00  0.00    -0.940 OA
BRANCH  11  14
ATOM     14  C   LIG    1       -0.000   0.001   0.001  0.00  0.00    -0.670 A 
ATOM     15  C   LIG    1       -0.009  -0.682  -1.200  0.00  0.00    +0.160 A 
ATOM     16  C   LIG    1        0.013  -2.065  -1.210  0.00  0.00    +0.040 A 
ATOM     17  C   LIG    1        0.034  -2.764  -0.017  0.00  0.00    +0.020 A 
ATOM     18  C   LIG    1        0.037  -2.079   1.187  0.00  0.00    -0.050 A 
ATOM     19 CL   LIG    1        0.063  -2.956   2.685  0.00  0.00    -0.030 Cl
ATOM     20 CL   LIG    1        0.056  -4.500  -0.029  0.00  0.00    -0.030 Cl
ATOM     21  C   LIG    1        0.020  -0.697   1.194  0.00  0.00    +0.160 A 
ENDBRANCH  11  14
ENDBRANCH   6  11
BRANCH   9  22
ATOM     22  C   LIG    1        7.518   3.167   1.103  0.00  0.00    +0.280 C 
BRANCH  22  23
ATOM     23  C   LIG    1        7.986   3.414   2.538  0.00  0.00    +0.110 C 
BRANCH  23  24
ATOM     24  C   LIG    1        9.380   3.986   2.521  0.00  0.00    -0.180 A 
ATOM     25  C   LIG    1        9.677   5.286   2.473  0.00  0.00    +0.010 A 
ATOM     26  C   LIG    1       11.031   5.575   2.467  0.00  0.00    +0.000 A 
ATOM     27  C   LIG    1       11.833   4.510   2.508  0.00  0.00    -0.040 A 
ATOM     28  S   LIG    1       10.864   3.043   2.567  0.00  0.00    +0.100 S 
ENDBRANCH  23  24
ENDBRANCH  22  23
ENDBRANCH   9  22
TORSDOF 5
