REMARK  Name = ZINCtV00000L6kiU.0
REMARK                            x       y       z     vdW  Elec       q    Type
REMARK                         _______ _______ _______ _____ _____    ______ ____
ROOT
ATOM      1  N   LIG    1       -1.714   0.904   1.890  0.00  0.00    -0.470 N 
ATOM      2  C   LIG    1       -2.093   1.673   2.972  0.00  0.00    +0.060 A 
ATOM      3  C   LIG    1       -3.037   1.527   3.979  0.00  0.00    +0.010 A 
ATOM      4  C   LIG    1       -3.169   2.508   4.939  0.00  0.00    +0.040 A 
ATOM      5  C   LIG    1       -2.365   3.638   4.905  0.00  0.00    +0.000 A 
ATOM      6  C   LIG    1       -1.431   3.799   3.921  0.00  0.00    +0.070 A 
ATOM      7  C   LIG    1       -1.279   2.818   2.938  0.00  0.00    +0.040 A 
ATOM      8  N   LIG    1       -0.459   2.689   1.863  0.00  0.00    -0.460 NA
ATOM      9  C   LIG    1       -0.718   1.572   1.248  0.00  0.00    +0.280 A 
ENDROOT
BRANCH   1  10
ATOM     10  C   LIG    1       -2.280  -0.391   1.505  0.00  0.00    +0.350 C 
BRANCH  10  16
ATOM     11  C   LIG    1        1.496  -3.675   1.496  0.00  0.00    +0.090 C 
ATOM     12  C   LIG    1        0.296  -3.068   2.176  0.00  0.00    -0.080 A 
ATOM     13  C   LIG    1       -0.099  -3.526   3.419  0.00  0.00    +0.020 A 
ATOM     14  C   LIG    1       -1.200  -2.969   4.043  0.00  0.00    +0.020 A 
ATOM     15  C   LIG    1       -1.906  -1.955   3.423  0.00  0.00    +0.020 A 
ATOM     16  C   LIG    1       -1.511  -1.497   2.180  0.00  0.00    -0.110 A 
ATOM     17  C   LIG    1       -0.413  -2.057   1.554  0.00  0.00    +0.010 A 
ENDBRANCH  10  16
ENDBRANCH   1  10
BRANCH   9  18
ATOM     18  C   LIG    1       -0.013   1.086   0.008  0.00  0.00    +0.320 C 
BRANCH  18  19
ATOM     19  O   LIG    1       -0.704   1.559  -1.150  0.00  0.00    -0.300 OA
BRANCH  19  20
ATOM     20  C   LIG    1       -0.194   1.208  -2.358  0.00  0.00    +0.150 A 
ATOM     21  C   LIG    1        0.933   0.440  -2.433  0.00  0.00    -0.090 A 
ATOM     22  C   LIG    1        1.465   0.067  -3.664  0.00  0.00    +0.060 A 
ATOM     23  C   LIG    1        0.884   0.465  -4.830  0.00  0.00    -0.010 A 
ATOM     24  C   LIG    1       -0.274   1.260  -4.796  0.00  0.00    -0.020 A 
ATOM     25  C   LIG    1       -0.899   1.688  -5.980  0.00  0.00    +0.010 A 
ATOM     26  C   LIG    1       -2.020   2.458  -5.909  0.00  0.00    +0.030 A 
ATOM     27  C   LIG    1       -2.558   2.829  -4.679  0.00  0.00    +0.000 A 
ATOM     28  C   LIG    1       -1.980   2.431  -3.512  0.00  0.00    +0.050 A 
ATOM     29  C   LIG    1       -0.822   1.638  -3.546  0.00  0.00    -0.070 A 
ENDBRANCH  19  20
ENDBRANCH  18  19
ENDBRANCH   9  18
TORSDOF 5
