REMARK  Name = ZINC550000002rB1.0
REMARK                            x       y       z     vdW  Elec       q    Type
REMARK                         _______ _______ _______ _____ _____    ______ ____
ROOT
ATOM      1  CB  ALA A  1       -0.064   0.971   2.503  0.00  0.00    +0.090 C 
ATOM      2  CA  ALA A  1       -0.729   1.579   1.267  0.00  0.00    +0.180 C 
ENDROOT
BRANCH   2   3
ATOM      3  N   ALA A  1       -0.644   3.044   1.336  0.00  0.00    -0.630 N 
ATOM      4  H1  ALA A  1       -1.117   3.370   2.166  0.00  0.00    +0.440 HD
ATOM      5  H2  ALA A  1       -1.083   3.445   0.520  0.00  0.00    +0.440 HD
ATOM      6  H3  ALA A  1        0.324   3.324   1.368  0.00  0.00    +0.430 HD
ENDBRANCH   2   3
BRANCH   2   7
ATOM      7  C   ALA A  1       -0.013   1.086   0.008  0.00  0.00    +0.220 C 
BRANCH   7   8
ATOM      8  O   ALA A  1       -0.704   1.559  -1.150  0.00  0.00    -0.580 OA
ATOM      9  H   ALA A  1       -0.304   1.284  -1.986  0.00  0.00    +0.410 HD
ENDBRANCH   7   8
ENDBRANCH   2   7
TORSDOF 3
