REMARK  Name = ZINCb80000006kOK.1
REMARK                            x       y       z     vdW  Elec       q    Type
REMARK                         _______ _______ _______ _____ _____    ______ ____
ROOT
ATOM      1  C   LIG    1       -1.329   1.940   0.019  0.00  0.00    +0.130 C 
ATOM      2  C   LIG    1       -1.899   2.111  -1.422  0.00  0.00    +0.030 C 
ATOM      3  C   LIG    1       -3.223   1.288  -1.266  0.00  0.00    -0.020 C 
ATOM      4  C   LIG    1       -3.756   1.756   0.112  0.00  0.00    +0.020 C 
ATOM      5  C   LIG    1       -2.885   0.011  -0.439  0.00  0.00    +0.050 C 
ATOM      6  C   LIG    1       -2.472   1.063   0.636  0.00  0.00    +0.010 C 
ENDROOT
BRANCH   1   7
ATOM      7  N   LIG    1       -1.212   3.232   0.708  0.00  0.00    -0.820 NA
ATOM      8  H   LIG    1       -2.106   3.697   0.759  0.00  0.00    +0.350 HD
ATOM      9  H   LIG    1       -0.524   3.819   0.261  0.00  0.00    +0.360 HD
ENDBRANCH   1   7
BRANCH   1  10
ATOM     10  C   LIG    1       -0.014   1.204   0.009  0.00  0.00    +0.480 C 
ATOM     11  O   LIG    1        0.002  -0.004   0.002  0.00  0.00    -0.500 OA
BRANCH  10  13
ATOM     12  C   LIG    1        2.367   1.117  -0.015  0.00  0.00    +0.250 C 
ATOM     13  O   LIG    1        1.139   1.891   0.001  0.00  0.00    -0.350 OA
ENDBRANCH  10  13
ENDBRANCH   1  10
TORSDOF 3
