REMARK  Name = ZINCpk00000eaNrK.0
REMARK                            x       y       z     vdW  Elec       q    Type
REMARK                         _______ _______ _______ _____ _____    ______ ____
ROOT
ATOM      1  C   LIG    1        3.334  -2.177  -0.415  0.00  0.00    +0.090 C 
ATOM      2  C   LIG    1        3.612  -0.721  -0.036  0.00  0.00    +0.240 C 
ENDROOT
BRANCH   2   3
ATOM      3  C   LIG    1        2.317   0.049  -0.020  0.00  0.00    +0.450 A 
ATOM      4  N   LIG    1        1.199  -0.621  -0.013  0.00  0.00    -0.570 NA
ATOM      5  C   LIG    1        0.002  -0.004   0.002  0.00  0.00    +0.530 A 
ATOM      6  C   LIG    1       -0.018   1.470   0.010  0.00  0.00    -0.210 A 
ATOM      7  C   LIG    1       -1.208   2.193   0.031  0.00  0.00    +0.110 A 
ATOM      8  C   LIG    1       -1.163   3.571   0.033  0.00  0.00    -0.010 A 
ATOM      9  C   LIG    1        0.055   4.235   0.025  0.00  0.00    +0.090 A 
ATOM     10  C   LIG    1        1.241   3.532   0.010  0.00  0.00    -0.020 A 
ATOM     11  C   LIG    1        1.217   2.144   0.002  0.00  0.00    +0.170 A 
ATOM     12  O   LIG    1       -1.034  -0.645   0.008  0.00  0.00    -0.470 OA
ATOM     13  N   LIG    1        2.375   1.393  -0.014  0.00  0.00    -0.620 N 
ATOM     14  H   LIG    1        3.237   1.837  -0.020  0.00  0.00    +0.420 HD
ENDBRANCH   2   3
BRANCH   2  15
ATOM     15  O   LIG    1        4.222  -0.671   1.281  0.00  0.00    -0.350 OA
BRANCH  15  16
ATOM     16  C   LIG    1        5.562  -0.728   1.334  0.00  0.00    +0.450 C 
ATOM     17  O   LIG    1        6.204  -0.816   0.315  0.00  0.00    -0.490 OA
BRANCH  16  18
ATOM     18  C   LIG    1        6.265  -0.681   2.666  0.00  0.00    +0.400 C 
BRANCH  18  19
ATOM     19  N   LIG    1        7.713  -0.757   2.457  0.00  0.00    -0.570 N 
ATOM     20  C   LIG    1        8.381  -2.061   2.426  0.00  0.00    +0.320 C 
BRANCH  19  21
ATOM     21  C   LIG    1        8.450   0.402   2.288  0.00  0.00    +0.570 A 
ATOM     22  N   LIG    1        7.830   1.572   2.313  0.00  0.00    -0.570 NA
ATOM     23  C   LIG    1        8.505   2.699   2.161  0.00  0.00    +0.360 A 
ATOM     24  C   LIG    1        9.876   2.644   1.962  0.00  0.00    -0.140 A 
ATOM     25  C   LIG    1       10.492   1.403   1.935  0.00  0.00    +0.360 A 
ATOM     26  N   LIG    1        9.759   0.315   2.100  0.00  0.00    -0.560 NA
ENDBRANCH  19  21
ENDBRANCH  18  19
ENDBRANCH  16  18
ENDBRANCH  15  16
ENDBRANCH   2  15
TORSDOF 6
