REMARK  Name = ZINCpk00000y6za8.0
REMARK                            x       y       z     vdW  Elec       q    Type
REMARK                         _______ _______ _______ _____ _____    ______ ____
ROOT
ATOM      1  C   LIG    1        1.259   7.314  -0.061  0.00  0.00    +0.210 A 
ATOM      2  C   LIG    1        0.053   8.004  -0.044  0.00  0.00    +0.000 A 
ATOM      3  C   LIG    1        0.047   9.383  -0.123  0.00  0.00    +0.140 A 
ATOM      4  C   LIG    1        1.239  10.076  -0.229  0.00  0.00    -0.700 A 
ATOM      5  C   LIG    1        2.441   9.392  -0.252  0.00  0.00    +0.150 A 
ATOM      6  C   LIG    1        2.454   8.013  -0.168  0.00  0.00    -0.020 A 
ENDROOT
BRANCH   1   9
ATOM      7  O   LIG    1       -0.461   5.920   1.416  0.00  0.00    -0.500 OA
ATOM      8  C   LIG    1        0.332   5.281   0.754  0.00  0.00    +0.580 C 
ATOM      9  N   LIG    1        1.268   5.918   0.023  0.00  0.00    -0.660 N 
ATOM     10  H   LIG    1        1.949   5.409  -0.444  0.00  0.00    +0.430 HD
BRANCH   8  11
ATOM     11  C   LIG    1        0.271   3.801   0.750  0.00  0.00    +0.070 A 
ATOM     12  C   LIG    1       -0.699   3.148   1.507  0.00  0.00    +0.050 A 
ATOM     13  C   LIG    1       -0.748   1.763   1.489  0.00  0.00    +0.070 A 
ATOM     14  C   LIG    1        0.182   1.079   0.723  0.00  0.00    +0.010 A 
ATOM     15  C   LIG    1        1.120   1.793  -0.007  0.00  0.00    +0.270 A 
ATOM     16  N   LIG    1        1.140   3.108   0.025  0.00  0.00    -0.460 NA
ENDBRANCH   8  11
ENDBRANCH   1   9
BRANCH   4  17
ATOM     17  S   LIG    1        1.227  11.835  -0.337  0.00  0.00    +2.690 S 
ATOM     18  O   LIG    1        2.501  12.273   0.114  0.00  0.00    -0.950 OA
ATOM     19  O   LIG    1        0.005  12.264   0.249  0.00  0.00    -0.950 OA
BRANCH  17  20
ATOM     20  N   LIG    1        1.138  12.227  -1.943  0.00  0.00    -0.990 NA
ATOM     21  C   LIG    1       -0.164  12.399  -2.601  0.00  0.00    +0.300 C 
ATOM     22  C   LIG    1       -0.213  11.500  -3.841  0.00  0.00    +0.020 C 
ATOM     23  C   LIG    1        0.989  11.807  -4.737  0.00  0.00    +0.000 C 
ATOM     24  C   LIG    1        2.283  11.510  -3.976  0.00  0.00    +0.150 C 
ATOM     25  C   LIG    1        2.361  12.415  -2.736  0.00  0.00    +0.320 C 
BRANCH  24  26
ATOM     26  O   LIG    1        3.405  11.767  -4.824  0.00  0.00    -0.560 OA
ATOM     27  H   LIG    1        3.419  11.233  -5.630  0.00  0.00    +0.380 HD
ENDBRANCH  24  26
ENDBRANCH  17  20
ENDBRANCH   4  17
TORSDOF 5
