REMARK  Name = ZINCrD0000073olk.0
REMARK                            x       y       z     vdW  Elec       q    Type
REMARK                         _______ _______ _______ _____ _____    ______ ____
ROOT
ATOM      1  C   LIG    1       -0.312  -4.937  -1.050  0.00  0.00    +0.200 C 
ATOM      2  C   LIG    1        0.454  -4.590  -2.328  0.00  0.00    +0.070 C 
ENDROOT
BRANCH   1   5
ATOM      3  N   LIG    1        0.087  -2.779   0.090  0.00  0.00    -0.650 N 
ATOM      4  H   LIG    1       -0.427  -2.347  -0.610  0.00  0.00    +0.420 HD
ATOM      5  C   LIG    1        0.225  -4.120   0.096  0.00  0.00    +0.520 C 
ATOM      6  O   LIG    1        0.781  -4.668   1.024  0.00  0.00    -0.500 OA
BRANCH   3  13
ATOM      7  C   LIG    1        0.172  -0.754   1.416  0.00  0.00    +0.090 A 
ATOM      8  C   LIG    1        0.765   0.000   2.414  0.00  0.00    -0.050 A 
ATOM      9  C   LIG    1        1.869  -0.489   3.087  0.00  0.00    +0.030 A 
ATOM     10  C   LIG    1        2.384  -1.731   2.767  0.00  0.00    -0.100 A 
ATOM     11  C   LIG    1        1.798  -2.491   1.771  0.00  0.00    +0.050 A 
ATOM     12  C   LIG    1        3.588  -2.259   3.504  0.00  0.00    +0.100 C 
ATOM     13  C   LIG    1        0.687  -2.009   1.096  0.00  0.00    +0.120 A 
BRANCH   7  15
ATOM     14  C   LIG    1       -1.392   1.016   1.138  0.00  0.00    +0.250 C 
ATOM     15  O   LIG    1       -0.915  -0.275   0.753  0.00  0.00    -0.320 OA
ENDBRANCH   7  15
ENDBRANCH   3  13
ENDBRANCH   1   5
BRANCH   1  16
ATOM     16  O   LIG    1       -0.148  -6.350  -0.756  0.00  0.00    -0.330 OA
BRANCH  16  17
ATOM     17  C   LIG    1       -1.056  -7.195  -1.286  0.00  0.00    +0.540 C 
ATOM     18  O   LIG    1       -1.959  -6.763  -1.975  0.00  0.00    -0.490 OA
BRANCH  17  19
ATOM     19  C   LIG    1       -0.952  -8.636  -1.031  0.00  0.00    -0.050 A 
ATOM     20  C   LIG    1       -1.800  -9.592  -1.505  0.00  0.00    -0.010 A 
ATOM     21  C   LIG    1       -1.331 -10.837  -1.020  0.00  0.00    -0.260 A 
ATOM     22  C   LIG    1       -0.201 -10.576  -0.261  0.00  0.00    +0.120 A 
ATOM     23  C   LIG    1        0.636 -11.603   0.456  0.00  0.00    +0.160 C 
ATOM     24  C   LIG    1       -3.007  -9.368  -2.379  0.00  0.00    +0.140 C 
ATOM     25  N   LIG    1        0.022  -9.254  -0.277  0.00  0.00    -0.510 N 
ATOM     26  H   LIG    1        0.753  -8.803   0.174  0.00  0.00    +0.430 HD
BRANCH  21  27
ATOM     27  C   LIG    1       -1.928 -12.152  -1.273  0.00  0.00    +0.440 C 
ATOM     28  O   LIG    1       -2.838 -12.549  -0.575  0.00  0.00    -0.450 OA
ATOM     29  C   LIG    1       -1.412 -13.010  -2.398  0.00  0.00    +0.070 C 
ENDBRANCH  21  27
ENDBRANCH  17  19
ENDBRANCH  16  17
ENDBRANCH   1  16
TORSDOF 7
