REMARK  Name = ZINCrH00000tj172.0
REMARK                            x       y       z     vdW  Elec       q    Type
REMARK                         _______ _______ _______ _____ _____    ______ ____
ROOT
ATOM      1  C   LIG    1       -2.401  -4.470  -4.010  0.00  0.00    +0.520 C 
ATOM      2  O   LIG    1       -2.484  -5.234  -3.068  0.00  0.00    -0.490 OA
ENDROOT
BRANCH   1  14
ATOM      3  C   LIG    1       -1.631  -7.236  -4.309  0.00  0.00    +0.150 C 
ATOM      4  C   LIG    1       -1.656  -6.326  -5.510  0.00  0.00    +0.230 A 
ATOM      5  N   LIG    1       -1.327  -6.805  -6.681  0.00  0.00    -0.480 NA
ATOM      6  C   LIG    1       -1.333  -6.042  -7.781  0.00  0.00    +0.190 A 
ATOM      7  C   LIG    1       -0.976  -6.577  -9.029  0.00  0.00    +0.000 A 
ATOM      8  C   LIG    1       -0.991  -5.781 -10.137  0.00  0.00    +0.140 A 
ATOM      9  C   LIG    1       -1.354  -4.436 -10.052  0.00  0.00    -0.010 A 
ATOM     10  C   LIG    1       -1.706  -3.883  -8.859  0.00  0.00    +0.110 A 
ATOM     11  F   LIG    1       -0.647  -6.303 -11.335  0.00  0.00    -0.130 F 
ATOM     12  C   LIG    1       -1.702  -4.675  -7.698  0.00  0.00    -0.140 A 
ATOM     13  C   LIG    1       -2.065  -4.139  -6.451  0.00  0.00    +0.190 A 
ATOM     14  C   LIG    1       -2.034  -4.982  -5.345  0.00  0.00    -0.190 A 
ENDBRANCH   1  14
BRANCH   1  15
ATOM     15  O   LIG    1       -2.645  -3.157  -3.835  0.00  0.00    -0.330 OA
BRANCH  15  16
ATOM     16  C   LIG    1       -3.001  -2.725  -2.495  0.00  0.00    +0.250 C 
BRANCH  16  17
ATOM     17  C   LIG    1       -3.235  -1.236  -2.493  0.00  0.00    +0.520 C 
ATOM     18  N   LIG    1       -3.578  -0.610  -1.350  0.00  0.00    -0.720 N 
ATOM     19  H   LIG    1       -3.675  -1.117  -0.529  0.00  0.00    +0.400 HD
ATOM     20  O   LIG    1       -3.114  -0.602  -3.519  0.00  0.00    -0.520 OA
BRANCH  18  21
ATOM     21  C   LIG    1       -3.806   0.838  -1.348  0.00  0.00    +0.240 C 
ATOM     22  C   LIG    1       -2.471   1.563  -1.172  0.00  0.00    +0.010 C 
ATOM     23  C   LIG    1       -1.834   1.145   0.155  0.00  0.00    +0.000 C 
ATOM     24  C   LIG    1       -2.770   1.512   1.308  0.00  0.00    +0.000 C 
ATOM     25  C   LIG    1       -4.105   0.787   1.132  0.00  0.00    -0.020 C 
ATOM     26  C   LIG    1       -5.042   1.154   2.285  0.00  0.00    +0.030 C 
ATOM     27  C   LIG    1       -4.742   1.205  -0.195  0.00  0.00    +0.000 C 
ATOM     28  C   LIG    1       -6.077   0.479  -0.371  0.00  0.00    +0.020 C 
ENDBRANCH  18  21
ENDBRANCH  16  17
ENDBRANCH  15  16
ENDBRANCH   1  15
TORSDOF 5
