REMARK  Name = ZINCvU00000004Nn.0
REMARK                            x       y       z     vdW  Elec       q    Type
REMARK                         _______ _______ _______ _____ _____    ______ ____
ROOT
ATOM      1  N   LIG    1       -7.591   0.765  -0.073  0.00  0.00    -0.660 N 
ATOM      2  H   LIG    1       -7.013   0.022   0.160  0.00  0.00    +0.420 HD
ATOM      3  C   LIG    1       -7.086   2.012  -0.155  0.00  0.00    +0.530 C 
ATOM      4  O   LIG    1       -7.824   2.952  -0.364  0.00  0.00    -0.500 OA
ENDROOT
BRANCH   3   5
ATOM      5  C   LIG    1       -5.606   2.238   0.012  0.00  0.00    -0.010 C 
ATOM      6  C   LIG    1       -5.299   3.731  -0.121  0.00  0.00    +0.060 C 
ATOM      7  C   LIG    1       -3.791   3.958   0.017  0.00  0.00    +0.030 C 
ATOM      8  C   LIG    1       -3.334   3.493   1.408  0.00  0.00    +0.280 C 
ATOM      9  N   LIG    1       -3.754   2.097   1.595  0.00  0.00    -0.600 N 
ATOM     10  C   LIG    1       -2.859   1.152   1.946  0.00  0.00    +0.610 C 
ATOM     11  O   LIG    1       -3.186  -0.020   1.962  0.00  0.00    -0.520 OA
ATOM     12  C   LIG    1       -5.168   1.752   1.398  0.00  0.00    +0.300 C 
BRANCH  10  13
ATOM     13  C   LIG    1       -1.491   1.537   2.310  0.00  0.00    -0.080 A 
ATOM     14  C   LIG    1       -0.456   0.681   2.558  0.00  0.00    +0.050 A 
ATOM     15  C   LIG    1        0.660   1.476   2.860  0.00  0.00    -0.060 A 
ATOM     16  C   LIG    1        0.262   2.765   2.790  0.00  0.00    +0.200 A 
ATOM     17  O   LIG    1       -1.036   2.798   2.461  0.00  0.00    -0.160 OA
ENDBRANCH  10  13
ENDBRANCH   3   5
BRANCH   1  24
ATOM     18  C   LIG    1       -9.379  -0.692  -0.812  0.00  0.00    +0.060 A 
ATOM     19  C   LIG    1      -10.726  -0.908  -1.054  0.00  0.00    +0.060 A 
ATOM     20  C   LIG    1      -11.642   0.102  -0.823  0.00  0.00    +0.040 A 
ATOM     21  C   LIG    1      -11.218   1.328  -0.344  0.00  0.00    -0.010 A 
ATOM     22  C   LIG    1       -9.875   1.551  -0.095  0.00  0.00    +0.060 A 
ATOM     23 CL   LIG    1      -12.373   2.592  -0.056  0.00  0.00    -0.050 Cl
ATOM     24  C   LIG    1       -8.952   0.542  -0.325  0.00  0.00    +0.150 A 
BRANCH  18  25
ATOM     25  O   LIG    1       -8.477  -1.682  -1.044  0.00  0.00    -0.250 OA
BRANCH  25  30
ATOM     26  C   LIG    1       -6.278  -4.351   3.402  0.00  0.00    +0.100 C 
ATOM     27  C   LIG    1       -6.866  -3.636   2.213  0.00  0.00    -0.110 A 
ATOM     28  C   LIG    1       -6.403  -3.917   0.941  0.00  0.00    +0.050 A 
ATOM     29  C   LIG    1       -6.940  -3.264  -0.152  0.00  0.00    -0.010 A 
ATOM     30  C   LIG    1       -7.947  -2.326   0.029  0.00  0.00    +0.100 A 
ATOM     31  C   LIG    1       -8.406  -2.042   1.307  0.00  0.00    -0.060 A 
ATOM     32  C   LIG    1       -7.869  -2.702   2.395  0.00  0.00    +0.050 A 
ENDBRANCH  25  30
ENDBRANCH  18  25
ENDBRANCH   1  24
TORSDOF 5
