REMARK  Name = ZINCpe000000TU92.0
REMARK                            x       y       z     vdW  Elec       q    Type
REMARK                         _______ _______ _______ _____ _____    ______ ____
ROOT
ATOM      1  C   LIG    1        1.222   3.040  -1.528  0.00  0.00    +0.150 C 
ATOM      2  C   LIG    1        1.908   1.669  -1.409  0.00  0.00    -0.010 C 
ATOM      3  C   LIG    1        1.287   1.565  -0.005  0.00  0.00    +0.170 C 
ATOM      4  C   LIG    1        1.255   3.099   0.005  0.00  0.00    -0.070 C 
ATOM      5  C   LIG    1        2.529   3.730   0.564  0.00  0.00    +0.050 C 
ATOM      6  C   LIG    1        2.559   3.538   2.085  0.00  0.00    +0.300 C 
ATOM      7  N   LIG    1        1.294   4.029   2.648  0.00  0.00    -0.630 N 
ATOM      8  C   LIG    1        0.028   3.485   2.141  0.00  0.00    +0.260 C 
ATOM      9  C   LIG    1        1.296   4.966   3.617  0.00  0.00    +0.710 C 
ATOM     10  N   LIG    1        0.132   5.484   4.056  0.00  0.00    -0.750 N 
ATOM     11  H   LIG    1       -0.710   5.132   3.728  0.00  0.00    +0.400 HD
ATOM     12  O   LIG    1        2.349   5.344   4.096  0.00  0.00    -0.590 OA
ATOM     13  C   LIG    1       -0.018   3.678   0.621  0.00  0.00    +0.060 C 
ENDROOT
BRANCH   3  14
ATOM     14  O   LIG    1       -0.011   0.966   0.004  0.00  0.00    -0.540 OA
ATOM     15  H   LIG    1        0.003  -0.001  -0.002  0.00  0.00    +0.380 HD
ENDBRANCH   3  14
BRANCH   1  16
ATOM     16  O   LIG    1       -0.098   2.975  -2.070  0.00  0.00    -0.350 OA
BRANCH  16  18
ATOM     17  C   LIG    1       -1.673   3.449  -3.841  0.00  0.00    +0.040 C 
ATOM     18  C   LIG    1       -0.226   3.576  -3.360  0.00  0.00    +0.160 C 
ENDBRANCH  16  18
ENDBRANCH   1  16
BRANCH  10  19
ATOM     19  C   LIG    1        0.139   6.580   5.029  0.00  0.00    +0.420 C 
BRANCH  19  20
ATOM     20  C   LIG    1       -1.280   6.973   5.352  0.00  0.00    -0.000 A 
ATOM     21  C   LIG    1       -2.036   6.449   6.342  0.00  0.00    -0.030 A 
ATOM     22  C   LIG    1       -3.283   7.091   6.294  0.00  0.00    +0.050 A 
ATOM     23  C   LIG    1       -3.224   7.986   5.264  0.00  0.00    -0.070 A 
ATOM     24  O   LIG    1       -1.998   7.903   4.708  0.00  0.00    -0.160 OA
BRANCH  23  25
ATOM     25  C   LIG    1       -4.303   8.885   4.841  0.00  0.00    +0.610 C 
ATOM     26  O   LIG    1       -5.370   8.873   5.427  0.00  0.00    -0.520 OA
ATOM     27  N   LIG    1       -4.113   9.723   3.803  0.00  0.00    -0.840 N 
ATOM     28  H   LIG    1       -4.827  10.318   3.523  0.00  0.00    +0.410 HD
ATOM     29  H   LIG    1       -3.263   9.733   3.336  0.00  0.00    +0.410 HD
ENDBRANCH  23  25
ENDBRANCH  19  20
ENDBRANCH  10  19
TORSDOF 6
