REMARK  Name = ZINCAx00000009ZR.0
REMARK                            x       y       z     vdW  Elec       q    Type
REMARK                         _______ _______ _______ _____ _____    ______ ____
ROOT
ATOM      1  C   LIG    1       -1.317   4.542   0.435  0.00  0.00    -0.730 A 
ATOM      2  C   LIG    1       -2.664   4.834   0.499  0.00  0.00    +0.400 A 
ATOM      3  N   LIG    1       -3.242   5.572  -0.430  0.00  0.00    -0.500 NA
ATOM      4  C   LIG    1       -2.559   6.060  -1.453  0.00  0.00    +0.360 A 
ATOM      5  C   LIG    1       -1.196   5.806  -1.581  0.00  0.00    -0.080 A 
ATOM      6 CL   LIG    1       -0.303   6.447  -2.925  0.00  0.00    -0.020 Cl
ATOM      7  C   LIG    1       -0.562   5.039  -0.619  0.00  0.00    +0.200 A 
ENDROOT
BRANCH   4   8
ATOM      8  N   LIG    1       -3.208   6.834  -2.409  0.00  0.00    -0.490 N 
ATOM      9  C   LIG    1       -3.799   8.035  -1.802  0.00  0.00    +0.220 C 
ATOM     10  C   LIG    1       -4.433   8.897  -2.896  0.00  0.00    +0.220 C 
ATOM     11  N   LIG    1       -5.454   8.112  -3.604  0.00  0.00    -0.490 N 
ATOM     12  C   LIG    1       -4.864   6.911  -4.211  0.00  0.00    +0.210 C 
ATOM     13  C   LIG    1       -4.229   6.049  -3.117  0.00  0.00    +0.220 C 
BRANCH  11  14
ATOM     14  C   LIG    1       -6.104   8.886  -4.561  0.00  0.00    +0.140 A 
ATOM     15  C   LIG    1       -6.121   8.477  -5.891  0.00  0.00    -0.030 A 
ATOM     16  C   LIG    1       -6.768   9.237  -6.838  0.00  0.00    +0.090 A 
ATOM     17  C   LIG    1       -7.399  10.427  -6.465  0.00  0.00    -0.060 A 
ATOM     18  C   LIG    1       -7.376  10.838  -5.130  0.00  0.00    +0.100 A 
ATOM     19  C   LIG    1       -6.732  10.071  -4.186  0.00  0.00    +0.000 A 
BRANCH  17  20
ATOM     20  C   LIG    1       -8.069  11.223  -7.450  0.00  0.00    +0.250 C 
ATOM     21  N   LIG    1       -8.600  11.855  -8.230  0.00  0.00    -0.420 NA
ENDBRANCH  17  20
ENDBRANCH  11  14
ENDBRANCH   4   8
BRANCH   1  22
ATOM     22  S   LIG    1       -0.560   3.555   1.683  0.00  0.00    +2.700 S 
ATOM     23  O   LIG    1        0.823   3.882   1.670  0.00  0.00    -0.940 OA
ATOM     24  O   LIG    1       -1.376   3.675   2.840  0.00  0.00    -0.940 OA
BRANCH  22  25
ATOM     25  N   LIG    1       -0.671   1.976   1.194  0.00  0.00    -1.110 NA
ATOM     26  H   LIG    1       -1.206   1.348   1.703  0.00  0.00    +0.420 HD
BRANCH  25  27
ATOM     27  C   LIG    1        0.039   1.530  -0.007  0.00  0.00    +0.330 C 
BRANCH  27  31
ATOM     28  C   LIG    1        0.171  -2.744  -0.079  0.00  0.00    -0.130 A 
ATOM     29  C   LIG    1       -0.893  -2.065  -0.675  0.00  0.00    +0.080 A 
ATOM     30  C   LIG    1       -0.929  -0.686  -0.649  0.00  0.00    +0.020 A 
ATOM     31  C   LIG    1        0.086   0.024  -0.032  0.00  0.00    -0.080 A 
ATOM     32  C   LIG    1        1.146  -0.643   0.556  0.00  0.00    +0.030 A 
ATOM     33  C   LIG    1        1.192  -2.021   0.541  0.00  0.00    +0.040 A 
BRANCH  28  37
ATOM     34  C   LIG    1        1.291  -6.338   0.448  0.00  0.00    +0.290 C 
ATOM     35  N   LIG    1        1.246  -4.874   0.473  0.00  0.00    -0.730 N 
ATOM     36  H   LIG    1        1.956  -4.374   0.904  0.00  0.00    +0.400 HD
ATOM     37  C   LIG    1        0.217  -4.221  -0.104  0.00  0.00    +0.550 C 
ATOM     38  O   LIG    1       -0.673  -4.848  -0.645  0.00  0.00    -0.530 OA
ENDBRANCH  28  37
ENDBRANCH  27  31
ENDBRANCH  25  27
ENDBRANCH  22  25
ENDBRANCH   1  22
TORSDOF 8
