REMARK  Name = ZINCrH000004m6ak.0
REMARK                            x       y       z     vdW  Elec       q    Type
REMARK                         _______ _______ _______ _____ _____    ______ ____
ROOT
ATOM      1  C   LIG    1        0.126  -0.458   6.574  0.00  0.00    +0.100 A 
ATOM      2  C   LIG    1       -0.547   0.005   5.455  0.00  0.00    -0.010 A 
ATOM      3  C   LIG    1       -0.198   1.219   4.892  0.00  0.00    -0.110 A 
ATOM      4  C   LIG    1        0.813   1.978   5.449  0.00  0.00    +0.040 A 
ATOM      5  C   LIG    1        1.485   1.524   6.570  0.00  0.00    -0.040 A 
ATOM      6  C   LIG    1        1.145   0.307   7.136  0.00  0.00    +0.110 A 
ENDROOT
BRANCH   1   8
ATOM      7  C   LIG    1       -1.267  -2.384   6.497  0.00  0.00    +0.240 C 
ATOM      8  O   LIG    1       -0.212  -1.653   7.126  0.00  0.00    -0.300 OA
ENDBRANCH   1   8
BRANCH   3   9
ATOM      9  C   LIG    1       -0.927   1.718   3.671  0.00  0.00    +0.330 C 
BRANCH   9  10
ATOM     10  N   LIG    1       -0.242   1.246   2.466  0.00  0.00    -0.730 N 
ATOM     11  H   LIG    1        0.555   0.699   2.544  0.00  0.00    +0.400 HD
ATOM     12  C   LIG    1       -0.718   1.572   1.248  0.00  0.00    +0.520 C 
ATOM     13  O   LIG    1       -1.714   2.256   1.150  0.00  0.00    -0.520 OA
BRANCH  12  14
ATOM     14  C   LIG    1       -0.013   1.086   0.008  0.00  0.00    +0.110 C 
BRANCH  14  15
ATOM     15  C   LIG    1       -0.742   1.585  -1.213  0.00  0.00    -0.060 A 
ATOM     16  C   LIG    1       -0.270   2.690  -1.896  0.00  0.00    +0.030 A 
ATOM     17  C   LIG    1       -0.939   3.148  -3.016  0.00  0.00    +0.020 A 
ATOM     18  C   LIG    1       -2.079   2.502  -3.453  0.00  0.00    +0.020 A 
ATOM     19  C   LIG    1       -2.552   1.397  -2.771  0.00  0.00    +0.020 A 
ATOM     20  C   LIG    1       -1.880   0.934  -1.654  0.00  0.00    -0.020 A 
ATOM     21 CL   LIG    1       -2.469  -0.459  -0.801  0.00  0.00    -0.070 Cl
ENDBRANCH  14  15
ENDBRANCH  12  14
ENDBRANCH   9  10
ENDBRANCH   3   9
BRANCH   6  22
ATOM     22  O   LIG    1        1.805  -0.141   8.237  0.00  0.00    -0.290 OA
BRANCH  22  23
ATOM     23  C   LIG    1        2.839   0.696   8.759  0.00  0.00    +0.190 C 
BRANCH  23  24
ATOM     24  C   LIG    1        3.462   0.031   9.988  0.00  0.00    +0.170 C 
ATOM     25  C   LIG    1        4.496   0.980  10.629  0.00  0.00    +0.020 C 
ATOM     26  C   LIG    1        5.630   0.000  11.042  0.00  0.00    +0.010 C 
ATOM     27  C   LIG    1        5.550  -1.042   9.898  0.00  0.00    +0.190 C 
ATOM     28  O   LIG    1        4.151  -1.163   9.598  0.00  0.00    -0.370 OA
ENDBRANCH  23  24
ENDBRANCH  22  23
ENDBRANCH   6  22
TORSDOF 8
