REMARK  Name = ZINCpe000000T4Xc.0
REMARK                            x       y       z     vdW  Elec       q    Type
REMARK                         _______ _______ _______ _____ _____    ______ ____
ROOT
ATOM      1  N   LIG    1        2.887   6.568   1.691  0.00  0.00    -0.720 N 
ATOM      2  H   LIG    1        3.442   6.863   0.953  0.00  0.00    +0.400 HD
ATOM      3  C   LIG    1        1.710   5.957   1.447  0.00  0.00    +0.500 C 
ATOM      4  O   LIG    1        1.016   5.588   2.370  0.00  0.00    -0.520 OA
ENDROOT
BRANCH   1   5
ATOM      5  C   LIG    1        3.326   6.786   3.071  0.00  0.00    +0.270 C 
BRANCH   5   6
ATOM      6  C   LIG    1        4.683   7.492   3.069  0.00  0.00    +0.070 C 
BRANCH   6  10
ATOM      7  C   LIG    1        5.966   8.129   7.093  0.00  0.00    -0.070 A 
ATOM      8  C   LIG    1        6.311   6.964   6.434  0.00  0.00    +0.000 A 
ATOM      9  C   LIG    1        5.896   6.758   5.132  0.00  0.00    +0.010 A 
ATOM     10  C   LIG    1        5.136   7.717   4.489  0.00  0.00    -0.090 A 
ATOM     11  C   LIG    1        4.795   8.884   5.147  0.00  0.00    +0.010 A 
ATOM     12  C   LIG    1        5.206   9.087   6.451  0.00  0.00    +0.010 A 
BRANCH   7  14
ATOM     13  C   LIG    1        7.282   9.615   8.579  0.00  0.00    +0.040 C 
ATOM     14  C   LIG    1        6.419   8.353   8.513  0.00  0.00    +0.020 C 
ATOM     15  C   LIG    1        5.197   8.523   9.418  0.00  0.00    +0.030 C 
ENDBRANCH   7  14
ENDBRANCH   6  10
ENDBRANCH   5   6
ENDBRANCH   1   5
BRANCH   3  16
ATOM     16  C   LIG    1        1.258   5.733   0.027  0.00  0.00    +0.370 C 
BRANCH  16  17
ATOM     17  N   LIG    1       -0.041   5.056   0.030  0.00  0.00    -0.320 N 
ATOM     18  N   LIG    1       -0.077   3.773   0.028  0.00  0.00    -0.180 NA
ATOM     19  C   LIG    1       -1.207   3.103   0.025  0.00  0.00    +0.020 A 
ATOM     20  C   LIG    1       -2.444   3.791   0.034  0.00  0.00    +0.140 A 
ATOM     21  C   LIG    1       -2.423   5.154   0.042  0.00  0.00    -0.010 A 
ATOM     22  C   LIG    1       -1.165   5.797   0.039  0.00  0.00    +0.490 A 
ATOM     23  O   LIG    1       -1.098   7.015   0.045  0.00  0.00    -0.520 OA
BRANCH  19  24
ATOM     24  C   LIG    1       -1.187   1.624   0.017  0.00  0.00    +0.600 C 
ATOM     25  O   LIG    1       -2.232   1.002   0.018  0.00  0.00    -0.530 OA
ATOM     26  N   LIG    1       -0.011   0.966   0.007  0.00  0.00    -0.830 N 
ATOM     27  H   LIG    1        0.822   1.462   0.002  0.00  0.00    +0.410 HD
ATOM     28  H   LIG    1        0.002  -0.004   0.002  0.00  0.00    +0.410 HD
ENDBRANCH  19  24
ENDBRANCH  16  17
ENDBRANCH   3  16
TORSDOF 7
