REMARK  Name = ZINCpk00001AZiSb.0
REMARK                            x       y       z     vdW  Elec       q    Type
REMARK                         _______ _______ _______ _____ _____    ______ ____
ROOT
ATOM      1  C   LIG    1       -0.082   2.193  -2.184  0.00  0.00    +0.570 C 
ATOM      2  N   LIG    1       -0.688   1.430  -1.252  0.00  0.00    -0.610 N 
ATOM      3  C   LIG    1       -2.109   1.069  -1.374  0.00  0.00    +0.250 C 
ATOM      4  C   LIG    1       -2.813   1.411  -0.056  0.00  0.00    +0.220 C 
ATOM      5  O   LIG    1       -2.105   0.801   1.028  0.00  0.00    -0.360 OA
ATOM      6  C   LIG    1       -0.761   1.240   1.171  0.00  0.00    +0.090 C 
ATOM      7  C   LIG    1       -0.720   2.756   1.468  0.00  0.00    +0.020 C 
ATOM      8  C   LIG    1       -0.932   2.776   3.003  0.00  0.00    +0.260 C 
ATOM      9  N   LIG    1       -0.212   1.590   3.502  0.00  0.00    -0.620 N 
ATOM     10  C   LIG    1        0.269   1.431   4.751  0.00  0.00    +0.560 C 
ATOM     11  O   LIG    1        0.849   0.405   5.053  0.00  0.00    -0.540 OA
ATOM     12  C   LIG    1       -0.106   0.609   2.410  0.00  0.00    +0.310 C 
ATOM     13  C   LIG    1        0.053   0.930  -0.081  0.00  0.00    +0.300 C 
ATOM     14  O   LIG    1        1.063   2.564  -2.015  0.00  0.00    -0.510 OA
ENDROOT
BRANCH   1  19
ATOM     15  C   LIG    1       -1.473   4.257  -5.014  0.00  0.00    -0.020 A 
ATOM     16  C   LIG    1       -2.187   3.288  -5.719  0.00  0.00    +0.090 A 
ATOM     17  C   LIG    1       -2.212   1.981  -5.272  0.00  0.00    +0.020 A 
ATOM     18  C   LIG    1       -1.532   1.621  -4.127  0.00  0.00    +0.090 A 
ATOM     19  C   LIG    1       -0.810   2.579  -3.409  0.00  0.00    -0.170 A 
ATOM     20  C   LIG    1       -0.785   3.903  -3.851  0.00  0.00    +0.170 A 
ATOM     21  F   LIG    1       -0.095   4.837  -3.160  0.00  0.00    -0.110 F 
BRANCH  15  23
ATOM     22  C   LIG    1       -1.429   6.721  -5.859  0.00  0.00    +0.090 C 
ATOM     23  C   LIG    1       -1.449   5.611  -5.479  0.00  0.00    -0.170 C 
ENDBRANCH  15  23
ENDBRANCH   1  19
BRANCH  10  24
ATOM     24  C   LIG    1        0.092   2.497   5.749  0.00  0.00    -0.090 C 
ATOM     25  C   LIG    1        0.567   2.339   6.981  0.00  0.00    +0.150 C 
ENDBRANCH  10  24
TORSDOF 3
