REMARK  Name = ZINCpe000000RDWi.0
REMARK                            x       y       z     vdW  Elec       q    Type
REMARK                         _______ _______ _______ _____ _____    ______ ____
ROOT
ATOM      1  N   LIG    1       -2.002   1.297  -3.717  0.00  0.00    -0.520 NA
ATOM      2  C   LIG    1       -0.663   1.895  -3.623  0.00  0.00    +0.190 C 
ATOM      3  C   LIG    1        0.073   1.302  -2.420  0.00  0.00    +0.190 C 
ATOM      4  N   LIG    1       -0.702   1.561  -1.198  0.00  0.00    -0.520 NA
ATOM      5  C   LIG    1       -2.042   0.963  -1.292  0.00  0.00    +0.200 C 
ATOM      6  C   LIG    1       -2.778   1.555  -2.496  0.00  0.00    +0.190 C 
ENDROOT
BRANCH   1   7
ATOM      7  C   LIG    1       -2.714   1.785  -4.906  0.00  0.00    +0.220 C 
BRANCH   7   9
ATOM      8  O   LIG    1       -4.246   0.083  -4.334  0.00  0.00    -0.490 OA
ATOM      9  C   LIG    1       -3.971   0.977  -5.106  0.00  0.00    +0.520 C 
ATOM     10  N   LIG    1       -4.788   1.248  -6.143  0.00  0.00    -0.670 N 
ATOM     11  H   LIG    1       -4.612   2.012  -6.713  0.00  0.00    +0.420 HD
BRANCH  10  12
ATOM     12  C   LIG    1       -5.893   0.426  -6.396  0.00  0.00    +0.150 A 
ATOM     13  C   LIG    1       -5.891  -0.894  -5.968  0.00  0.00    +0.020 A 
ATOM     14  C   LIG    1       -6.986  -1.702  -6.216  0.00  0.00    +0.120 A 
ATOM     15  C   LIG    1       -8.079  -1.199  -6.900  0.00  0.00    +0.000 A 
ATOM     16  C   LIG    1       -8.083   0.115  -7.333  0.00  0.00    +0.050 A 
ATOM     17  F   LIG    1       -6.987  -2.986  -5.795  0.00  0.00    -0.130 F 
ATOM     18  C   LIG    1       -6.993   0.929  -7.083  0.00  0.00    +0.050 A 
ATOM     19  F   LIG    1       -6.997   2.212  -7.507  0.00  0.00    -0.130 F 
ENDBRANCH  10  12
ENDBRANCH   7   9
ENDBRANCH   1   7
BRANCH   4  20
ATOM     20  C   LIG    1        0.009   1.073  -0.010  0.00  0.00    +0.220 C 
BRANCH  20  21
ATOM     21  C   LIG    1       -0.688   1.567   1.231  0.00  0.00    +0.520 C 
ATOM     22  N   LIG    1       -0.209   1.242   2.449  0.00  0.00    -0.710 N 
ATOM     23  H   LIG    1        0.585   0.690   2.526  0.00  0.00    +0.400 HD
ATOM     24  O   LIG    1       -1.680   2.258   1.135  0.00  0.00    -0.520 OA
BRANCH  22  25
ATOM     25  C   LIG    1       -0.887   1.723   3.655  0.00  0.00    +0.220 C 
ATOM     26  C   LIG    1       -0.013   2.266   4.788  0.00  0.00    +0.010 C 
ATOM     27  C   LIG    1       -0.707   0.909   4.938  0.00  0.00    +0.010 C 
ENDBRANCH  22  25
ENDBRANCH  20  21
ENDBRANCH   4  20
TORSDOF 6
