REMARK  Name = ZINCpe000000X1Fu.0
REMARK                            x       y       z     vdW  Elec       q    Type
REMARK                         _______ _______ _______ _____ _____    ______ ____
ROOT
ATOM      1  C   LIG    1       -0.472   1.780   2.601  0.00  0.00    +0.060 C 
ATOM      2  C   LIG    1       -1.261   1.966   1.303  0.00  0.00    +0.230 C 
ATOM      3  C   LIG    1       -0.356   1.670   0.103  0.00  0.00    +0.180 C 
ATOM      4  N   LIG    1       -1.069   1.999  -1.138  0.00  0.00    -0.530 NA
ATOM      5  C   LIG    1       -1.383   3.433  -1.208  0.00  0.00    +0.170 C 
ATOM      6  C   LIG    1       -2.331   3.801  -0.062  0.00  0.00    +0.290 C 
ATOM      7  N   LIG    1       -1.728   3.358   1.204  0.00  0.00    -0.600 N 
ATOM      8  C   LIG    1       -1.606   4.204   2.245  0.00  0.00    +0.600 C 
ATOM      9  O   LIG    1       -1.008   3.856   3.244  0.00  0.00    -0.510 OA
ENDROOT
BRANCH   8  10
ATOM     10  C   LIG    1       -2.200   5.561   2.172  0.00  0.00    -0.020 A 
ATOM     11  N   LIG    1       -2.817   6.096   1.148  0.00  0.00    -0.320 NA
ATOM     12  O   LIG    1       -3.192   7.219   1.395  0.00  0.00    +0.120 OA
ATOM     13  C   LIG    1       -2.868   7.590   2.642  0.00  0.00    -0.060 A 
ATOM     14  C   LIG    1       -2.221   6.542   3.203  0.00  0.00    +0.040 A 
BRANCH  13  15
ATOM     15  C   LIG    1       -3.171   8.914   3.294  0.00  0.00    +0.470 C 
BRANCH  15  16
ATOM     16  N   LIG    1       -2.069   9.845   3.044  0.00  0.00    -0.380 N 
ATOM     17  C   LIG    1       -2.175  11.069   2.486  0.00  0.00    +0.240 A 
ATOM     18  C   LIG    1       -0.934  11.607   2.432  0.00  0.00    -0.120 A 
ATOM     19  C   LIG    1       -0.039  10.680   2.976  0.00  0.00    +0.240 A 
ATOM     20  N   LIG    1       -0.719   9.626   3.349  0.00  0.00    -0.290 NA
ENDBRANCH  15  16
ENDBRANCH  13  15
ENDBRANCH   8  10
BRANCH   4  21
ATOM     21  C   LIG    1       -0.303   1.570  -2.316  0.00  0.00    +0.150 C 
BRANCH  21  22
ATOM     22  C   LIG    1       -0.461   0.060  -2.505  0.00  0.00    +0.130 C 
ATOM     23  C   LIG    1        0.217  -0.365  -3.809  0.00  0.00    +0.020 C 
ATOM     24  C   LIG    1       -1.949  -0.293  -2.565  0.00  0.00    +0.070 C 
BRANCH  22  25
ATOM     25  O   LIG    1        0.147  -0.624  -1.407  0.00  0.00    -0.550 OA
ATOM     26  H   LIG    1        1.092  -0.446  -1.308  0.00  0.00    +0.370 HD
ENDBRANCH  22  25
ENDBRANCH  21  22
ENDBRANCH   4  21
TORSDOF 6
