REMARK  Name = ZINCrH000004t3y9.1
REMARK                            x       y       z     vdW  Elec       q    Type
REMARK                         _______ _______ _______ _____ _____    ______ ____
ROOT
ATOM      1  C   LIG    1       -0.777  -0.898   0.127  0.00  0.00    +0.610 C 
ATOM      2  N   LIG    1       -0.814  -2.245   0.176  0.00  0.00    -0.600 N 
ATOM      3  C   LIG    1        0.402  -3.018   0.462  0.00  0.00    +0.290 C 
ATOM      4  C   LIG    1        0.603  -4.056  -0.641  0.00  0.00    +0.010 C 
ATOM      5  C   LIG    1       -0.663  -4.904  -0.777  0.00  0.00    +0.170 C 
ATOM      6  C   LIG    1       -1.841  -4.007  -1.165  0.00  0.00    +0.040 C 
ATOM      7  C   LIG    1       -2.071  -2.968  -0.063  0.00  0.00    +0.300 C 
ATOM      8  O   LIG    1        0.288  -0.317   0.202  0.00  0.00    -0.530 OA
ENDROOT
BRANCH   1  11
ATOM      9  C   LIG    1       -3.479   1.519  -0.290  0.00  0.00    +0.110 A 
ATOM     10  C   LIG    1       -2.138   1.265  -0.213  0.00  0.00    -0.010 A 
ATOM     11  C   LIG    1       -2.030  -0.129  -0.018  0.00  0.00    -0.010 A 
ATOM     12  N   LIG    1       -3.254  -0.618   0.010  0.00  0.00    -0.260 NA
ATOM     13  N   LIG    1       -4.115   0.322  -0.146  0.00  0.00    -0.390 N 
ATOM     14  H   LIG    1       -5.077   0.198  -0.161  0.00  0.00    +0.440 HD
BRANCH   9  19
ATOM     15  C   LIG    1       -6.910   5.112  -0.892  0.00  0.00    +0.330 C 
ATOM     16  N   LIG    1       -5.622   4.427  -0.758  0.00  0.00    -0.440 N 
ATOM     17  C   LIG    1       -4.398   5.028  -0.801  0.00  0.00    +0.160 A 
ATOM     18  C   LIG    1       -3.452   4.084  -0.641  0.00  0.00    -0.020 A 
ATOM     19  C   LIG    1       -4.117   2.840  -0.491  0.00  0.00    -0.120 A 
ATOM     20  C   LIG    1       -5.453   3.089  -0.574  0.00  0.00    +0.160 A 
ENDBRANCH   9  19
ENDBRANCH   1  11
BRANCH   5  21
ATOM     21  O   LIG    1       -0.467  -5.894  -1.788  0.00  0.00    -0.300 OA
BRANCH  21  22
ATOM     22  C   LIG    1        0.185  -7.029  -1.421  0.00  0.00    +0.140 A 
ATOM     23  C   LIG    1        0.284  -8.091  -2.308  0.00  0.00    +0.000 A 
ATOM     24  C   LIG    1        0.951  -9.242  -1.935  0.00  0.00    +0.070 A 
ATOM     25  C   LIG    1        1.511  -9.340  -0.674  0.00  0.00    -0.070 A 
ATOM     26  C   LIG    1        1.408  -8.285   0.215  0.00  0.00    +0.070 A 
ATOM     27 CL   LIG    1        2.342 -10.790  -0.205  0.00  0.00    -0.070 Cl
ATOM     28  C   LIG    1        0.747  -7.130  -0.157  0.00  0.00    -0.060 A 
ENDBRANCH  21  22
ENDBRANCH   5  21
TORSDOF 4
