REMARK  Name = ZINCrH000004t3y9.0
REMARK                            x       y       z     vdW  Elec       q    Type
REMARK                         _______ _______ _______ _____ _____    ______ ____
ROOT
ATOM      1  C   LIG    1       -3.050   5.451  -0.060  0.00  0.00    +0.590 C 
ATOM      2  N   LIG    1       -4.363   5.745  -0.127  0.00  0.00    -0.610 N 
ATOM      3  C   LIG    1       -5.367   4.675  -0.197  0.00  0.00    +0.270 C 
ATOM      4  C   LIG    1       -6.393   4.893   0.925  0.00  0.00    +0.020 C 
ATOM      5  C   LIG    1       -6.972   6.305   0.813  0.00  0.00    +0.170 C 
ATOM      6  C   LIG    1       -5.850   7.332   0.980  0.00  0.00    +0.040 C 
ATOM      7  C   LIG    1       -4.818   7.142  -0.136  0.00  0.00    +0.310 C 
ATOM      8  O   LIG    1       -2.239   6.332   0.157  0.00  0.00    -0.510 OA
ENDROOT
BRANCH   1  13
ATOM      9  C   LIG    1       -1.417   2.157  -0.133  0.00  0.00    +0.160 A 
ATOM     10  N   LIG    1       -2.449   1.933  -0.920  0.00  0.00    -0.270 NA
ATOM     11  N   LIG    1       -3.209   3.106  -1.009  0.00  0.00    -0.470 N 
ATOM     12  H   LIG    1       -4.025   3.221  -1.522  0.00  0.00    +0.440 HD
ATOM     13  C   LIG    1       -2.595   4.064  -0.249  0.00  0.00    +0.030 A 
ATOM     14  C   LIG    1       -1.473   3.488   0.306  0.00  0.00    -0.010 A 
BRANCH   9  19
ATOM     15  C   LIG    1        1.255  -2.068   0.154  0.00  0.00    +0.320 C 
ATOM     16  N   LIG    1        0.815  -0.685   0.353  0.00  0.00    -0.450 N 
ATOM     17  C   LIG    1        1.454   0.248   1.116  0.00  0.00    +0.160 A 
ATOM     18  C   LIG    1        0.755   1.397   1.059  0.00  0.00    -0.030 A 
ATOM     19  C   LIG    1       -0.368   1.169   0.224  0.00  0.00    -0.110 A 
ATOM     20  C   LIG    1       -0.300  -0.123  -0.193  0.00  0.00    +0.200 A 
ENDBRANCH   9  19
ENDBRANCH   1  13
BRANCH   5  21
ATOM     21  O   LIG    1       -7.952   6.501   1.833  0.00  0.00    -0.300 OA
BRANCH  21  22
ATOM     22  C   LIG    1       -9.204   6.035   1.583  0.00  0.00    +0.140 A 
ATOM     23  C   LIG    1       -9.499   5.457   0.357  0.00  0.00    -0.060 A 
ATOM     24  C   LIG    1      -10.771   4.980   0.106  0.00  0.00    +0.070 A 
ATOM     25  C   LIG    1      -11.753   5.086   1.075  0.00  0.00    -0.070 A 
ATOM     26  C   LIG    1      -11.463   5.666   2.297  0.00  0.00    +0.070 A 
ATOM     27 CL   LIG    1      -13.353   4.491   0.755  0.00  0.00    -0.070 Cl
ATOM     28  C   LIG    1      -10.191   6.140   2.553  0.00  0.00    +0.000 A 
ENDBRANCH  21  22
ENDBRANCH   5  21
TORSDOF 4
