REMARK  Name = ZINCrD000001YLqB.0
REMARK                            x       y       z     vdW  Elec       q    Type
REMARK                         _______ _______ _______ _____ _____    ______ ____
ROOT
ATOM      1  N   LIG    1       -0.678   0.997  -3.651  0.00  0.00    -0.600 N 
ATOM      2  C   LIG    1       -0.672   0.581  -2.369  0.00  0.00    +0.540 C 
ATOM      3  O   LIG    1       -0.597  -0.603  -2.116  0.00  0.00    -0.510 OA
ENDROOT
BRANCH   2   4
ATOM      4  C   LIG    1       -0.759   1.586  -1.250  0.00  0.00    +0.030 C 
ATOM      5  C   LIG    1       -0.026   1.080   0.008  0.00  0.00    +0.120 C 
ATOM      6  C   LIG    1       -0.729   1.558   1.255  0.00  0.00    -0.110 A 
ATOM      7  C   LIG    1       -0.183   1.649   2.538  0.00  0.00    +0.040 A 
ATOM      8  C   LIG    1       -0.936   2.099   3.599  0.00  0.00    +0.010 A 
ATOM      9  C   LIG    1       -2.255   2.472   3.417  0.00  0.00    -0.070 A 
ATOM     10  C   LIG    1       -2.812   2.391   2.156  0.00  0.00    +0.050 A 
ATOM     11  C   LIG    1       -3.077   2.961   4.582  0.00  0.00    +0.090 C 
ATOM     12  C   LIG    1       -2.052   1.940   1.086  0.00  0.00    -0.080 A 
ATOM     13  S   LIG    1       -2.475   1.733  -0.625  0.00  0.00    -0.090 S 
ENDBRANCH   2   4
BRANCH   1  14
ATOM     14  C   LIG    1       -0.709   0.016  -4.739  0.00  0.00    +0.300 C 
BRANCH  14  15
ATOM     15  C   LIG    1       -2.162  -0.297  -5.103  0.00  0.00    +0.240 C 
BRANCH  15  17
ATOM     16  C   LIG    1       -3.373  -1.706  -6.679  0.00  0.00    +0.540 C 
ATOM     17  N   LIG    1       -2.192  -1.278  -6.191  0.00  0.00    -0.730 N 
ATOM     18  H   LIG    1       -1.363  -1.619  -6.560  0.00  0.00    +0.400 HD
ATOM     19  O   LIG    1       -4.413  -1.279  -6.216  0.00  0.00    -0.540 OA
BRANCH  16  21
ATOM     20  C   LIG    1       -4.570  -3.114  -8.253  0.00  0.00    +0.140 C 
ATOM     21  C   LIG    1       -3.404  -2.691  -7.771  0.00  0.00    -0.090 C 
ENDBRANCH  16  21
ENDBRANCH  15  17
ENDBRANCH  14  15
ENDBRANCH   1  14
BRANCH   1  22
ATOM     22  C   LIG    1       -0.654   2.429  -3.957  0.00  0.00    +0.340 C 
BRANCH  22  23
ATOM     23  C   LIG    1        0.768   2.866  -4.202  0.00  0.00    -0.110 A 
ATOM     24  C   LIG    1        1.509   3.417  -3.173  0.00  0.00    +0.010 A 
ATOM     25  C   LIG    1        2.814   3.813  -3.397  0.00  0.00    +0.000 A 
ATOM     26  C   LIG    1        3.375   3.669  -4.652  0.00  0.00    +0.010 A 
ATOM     27  C   LIG    1        2.632   3.123  -5.682  0.00  0.00    +0.000 A 
ATOM     28  C   LIG    1        1.328   2.722  -5.457  0.00  0.00    +0.020 A 
ENDBRANCH  22  23
ENDBRANCH   1  22
TORSDOF 7
