REMARK  Name = ZINCpk000000ozYt.0
REMARK                            x       y       z     vdW  Elec       q    Type
REMARK                         _______ _______ _______ _____ _____    ______ ____
ROOT
ATOM      1  C   LIG    1       -0.090   5.864  -1.410  0.00  0.00    +0.260 C 
ENDROOT
BRANCH   1   2
ATOM      2  C   LIG    1       -0.111   7.371  -1.402  0.00  0.00    +0.520 C 
ATOM      3  N   LIG    1        0.942   8.057  -0.914  0.00  0.00    -0.610 N 
ATOM      4  C   LIG    1        2.162   7.359  -0.481  0.00  0.00    +0.280 C 
ATOM      5  C   LIG    1        3.367   8.024  -1.166  0.00  0.00    +0.170 C 
ATOM      6  N   LIG    1        3.346   9.466  -0.890  0.00  0.00    -0.540 NA
ATOM      7  C   LIG    1        2.152  10.101  -1.464  0.00  0.00    +0.170 C 
ATOM      8  C   LIG    1        4.571  10.113  -1.378  0.00  0.00    +0.190 C 
ATOM      9  C   LIG    1        0.899   9.522  -0.796  0.00  0.00    +0.300 C 
ATOM     10  O   LIG    1       -1.075   7.967  -1.834  0.00  0.00    -0.530 OA
ENDBRANCH   1   2
BRANCH   1  13
ATOM     11  N   LIG    1       -1.870   3.693  -3.784  0.00  0.00    -0.630 N 
ATOM     12  C   LIG    1       -0.947   4.150  -2.915  0.00  0.00    +0.710 C 
ATOM     13  N   LIG    1       -1.093   5.367  -2.355  0.00  0.00    -0.730 N 
ATOM     14  H   LIG    1       -1.863   5.914  -2.577  0.00  0.00    +0.400 HD
ATOM     15  O   LIG    1        0.018   3.465  -2.636  0.00  0.00    -0.570 OA
BRANCH  11  17
ATOM     16  C   LIG    1       -2.391   1.319  -3.514  0.00  0.00    +0.000 C 
ATOM     17  C   LIG    1       -1.711   2.370  -4.393  0.00  0.00    +0.280 C 
ENDBRANCH  11  17
BRANCH  11  18
ATOM     18  C   LIG    1       -3.033   4.519  -4.120  0.00  0.00    +0.250 C 
ATOM     19  C   LIG    1       -2.702   5.398  -5.328  0.00  0.00    +0.020 C 
ENDBRANCH  11  18
ENDBRANCH   1  13
BRANCH   1  20
ATOM     20  C   LIG    1       -0.408   5.342  -0.007  0.00  0.00    +0.080 C 
BRANCH  20  21
ATOM     21  C   LIG    1       -0.242   3.845   0.021  0.00  0.00    -0.060 A 
ATOM     22  C   LIG    1        0.983   3.291   0.343  0.00  0.00    +0.000 A 
ATOM     23  C   LIG    1        1.135   1.917   0.368  0.00  0.00    +0.010 A 
ATOM     24  C   LIG    1        0.062   1.097   0.072  0.00  0.00    -0.010 A 
ATOM     25  C   LIG    1       -1.161   1.651  -0.255  0.00  0.00    +0.000 A 
ATOM     26  C   LIG    1       -1.315   3.025  -0.277  0.00  0.00    +0.010 A 
ENDBRANCH  20  21
ENDBRANCH   1  20
TORSDOF 6
