REMARK  Name = ZINCrH000004t4Ol.0
REMARK                            x       y       z     vdW  Elec       q    Type
REMARK                         _______ _______ _______ _____ _____    ______ ____
ROOT
ATOM      1  C   LIG    1        2.151  -1.175   0.082  0.00  0.00    -0.180 A 
ATOM      2  C   LIG    1        0.924  -1.417   0.708  0.00  0.00    +0.110 A 
ATOM      3  C   LIG    1       -0.070  -0.466   0.663  0.00  0.00    -0.040 A 
ATOM      4  C   LIG    1        0.145   0.736  -0.005  0.00  0.00    +0.190 A 
ATOM      5  C   LIG    1        1.365   0.981  -0.630  0.00  0.00    +0.000 A 
ATOM      6  C   LIG    1        2.363   0.035  -0.589  0.00  0.00    +0.130 A 
ENDROOT
BRANCH   4   7
ATOM      7  N   LIG    1       -0.866   1.694  -0.054  0.00  0.00    -0.670 N 
ATOM      8  H   LIG    1       -1.794   1.418  -0.106  0.00  0.00    +0.410 HD
ATOM      9  C   LIG    1       -0.554   3.005  -0.030  0.00  0.00    +0.550 C 
ATOM     10  O   LIG    1        0.597   3.351   0.137  0.00  0.00    -0.500 OA
BRANCH   9  11
ATOM     11  C   LIG    1       -1.634   4.041  -0.210  0.00  0.00    -0.070 C 
ATOM     12  C   LIG    1       -2.080   4.217  -1.671  0.00  0.00    +0.050 C 
ATOM     13  C   LIG    1       -0.971   5.274  -1.801  0.00  0.00    +0.030 C 
ATOM     14  C   LIG    1       -1.100   5.481  -0.282  0.00  0.00    +0.070 C 
BRANCH  11  15
ATOM     15  C   LIG    1       -2.777   3.868   0.756  0.00  0.00    -0.080 A 
ATOM     16  C   LIG    1       -2.567   4.037   2.112  0.00  0.00    +0.010 A 
ATOM     17  C   LIG    1       -3.617   3.883   2.998  0.00  0.00    +0.010 A 
ATOM     18  C   LIG    1       -4.875   3.551   2.529  0.00  0.00    +0.000 A 
ATOM     19  C   LIG    1       -5.083   3.377   1.173  0.00  0.00    +0.010 A 
ATOM     20  C   LIG    1       -4.034   3.535   0.287  0.00  0.00    +0.020 A 
ENDBRANCH  11  15
ENDBRANCH   9  11
ENDBRANCH   4   7
BRANCH   1  21
ATOM     21  C   LIG    1        3.219  -2.191   0.129  0.00  0.00    +0.490 C 
ATOM     22  O   LIG    1        2.998  -3.283   0.619  0.00  0.00    -0.460 OA
BRANCH  21  28
ATOM     23  C   LIG    1        5.586  -4.176  -0.138  0.00  0.00    +0.340 C 
ATOM     24  N   LIG    1        5.591  -2.765  -0.533  0.00  0.00    -0.420 N 
ATOM     25  C   LIG    1        6.628  -2.087  -1.081  0.00  0.00    +0.170 A 
ATOM     26  C   LIG    1        6.208  -0.814  -1.289  0.00  0.00    +0.150 A 
ATOM     27  N   LIG    1        4.945  -0.717  -0.883  0.00  0.00    -0.430 NA
ATOM     28  C   LIG    1        4.552  -1.885  -0.417  0.00  0.00    +0.110 A 
ENDBRANCH  21  28
ENDBRANCH   1  21
TORSDOF 5
