REMARK  Name = ZINCrD000000CErC.0
REMARK                            x       y       z     vdW  Elec       q    Type
REMARK                         _______ _______ _______ _____ _____    ______ ____
ROOT
ATOM      1  O   LIG    1        1.517   6.219  -0.050  0.00  0.00    -0.520 OA
ATOM      2  C   LIG    1        2.540   5.565   0.007  0.00  0.00    +0.570 C 
ATOM      3  N   LIG    1        3.733   6.186   0.101  0.00  0.00    -0.610 N 
ATOM      4  C   LIG    1        4.982   5.414   0.093  0.00  0.00    +0.280 C 
ATOM      5  C   LIG    1        5.809   5.792   1.321  0.00  0.00    +0.040 C 
ATOM      6  C   LIG    1        6.008   7.309   1.351  0.00  0.00    +0.100 C 
ATOM      7  C   LIG    1        4.647   8.002   1.451  0.00  0.00    +0.040 C 
ATOM      8  C   LIG    1        3.807   7.649   0.219  0.00  0.00    +0.280 C 
ENDROOT
BRANCH   6   9
ATOM      9  C   LIG    1        6.850   7.682   2.544  0.00  0.00    +0.150 A 
ATOM     10  N   LIG    1        6.556   7.454   3.799  0.00  0.00    -0.240 NA
ATOM     11  N   LIG    1        7.491   7.900   4.563  0.00  0.00    -0.290 NA
ATOM     12  C   LIG    1        8.444   8.444   3.824  0.00  0.00    +0.190 A 
ATOM     13  C   LIG    1        9.669   9.068   4.129  0.00  0.00    +0.080 A 
ATOM     14  C   LIG    1       10.453   9.522   3.115  0.00  0.00    +0.060 A 
ATOM     15  C   LIG    1       10.027   9.375   1.784  0.00  0.00    +0.030 A 
ATOM     16  C   LIG    1        8.848   8.778   1.507  0.00  0.00    +0.230 A 
ATOM     17  N   LIG    1        8.056   8.311   2.513  0.00  0.00    -0.390 N 
ENDBRANCH   6   9
BRANCH   2  18
ATOM     18  C   LIG    1        2.477   4.088  -0.027  0.00  0.00    -0.090 A 
ATOM     19  C   LIG    1        3.275   3.373  -0.921  0.00  0.00    +0.020 A 
ATOM     20  C   LIG    1        3.213   1.995  -0.951  0.00  0.00    +0.060 A 
ATOM     21  C   LIG    1        2.366   1.318  -0.092  0.00  0.00    -0.030 A 
ATOM     22  C   LIG    1        1.565   2.021   0.798  0.00  0.00    +0.110 A 
ATOM     23  C   LIG    1        1.619   3.404   0.836  0.00  0.00    +0.050 A 
BRANCH  22  24
ATOM     24  O   LIG    1        0.731   1.351   1.636  0.00  0.00    -0.320 OA
BRANCH  24  25
ATOM     25  C   LIG    1        0.726  -0.075   1.543  0.00  0.00    +0.600 C 
ATOM     26  F   LIG    1        2.008  -0.564   1.817  0.00  0.00    -0.200 F 
ATOM     27  F   LIG    1        0.348  -0.457   0.251  0.00  0.00    -0.200 F 
ENDBRANCH  24  25
ENDBRANCH  22  24
ENDBRANCH   2  18
TORSDOF 4
