REMARK  Name = ZINCrH000004mC9n.0
REMARK                            x       y       z     vdW  Elec       q    Type
REMARK                         _______ _______ _______ _____ _____    ______ ____
ROOT
ATOM      1  N   LIG    1       -0.998  -0.770   0.011  0.00  0.00    -0.600 N 
ATOM      2  C   LIG    1        0.126  -0.029  -0.055  0.00  0.00    +0.500 C 
ATOM      3  O   LIG    1        1.208  -0.573  -0.113  0.00  0.00    -0.500 OA
ENDROOT
BRANCH   1   4
ATOM      4  C   LIG    1       -2.305  -0.114   0.082  0.00  0.00    +0.250 C 
ATOM      5  C   LIG    1       -2.957  -0.418   1.433  0.00  0.00    +0.030 C 
BRANCH   4   6
ATOM      6  C   LIG    1       -3.200  -0.635  -1.044  0.00  0.00    -0.060 C 
ATOM      7  C   LIG    1       -3.559   0.338  -2.169  0.00  0.00    +0.010 C 
ATOM      8  C   LIG    1       -4.617  -0.067  -1.141  0.00  0.00    +0.030 C 
ENDBRANCH   4   6
ENDBRANCH   1   4
BRANCH   1   9
ATOM      9  C   LIG    1       -0.912  -2.233   0.012  0.00  0.00    +0.340 C 
BRANCH   9  13
ATOM     10  C   LIG    1       -0.198  -3.616   3.992  0.00  0.00    +0.130 A 
ATOM     11  C   LIG    1       -1.489  -3.591   3.486  0.00  0.00    -0.030 A 
ATOM     12  C   LIG    1       -1.718  -3.143   2.200  0.00  0.00    +0.060 A 
ATOM     13  C   LIG    1       -0.660  -2.720   1.416  0.00  0.00    -0.150 A 
ATOM     14  C   LIG    1        0.629  -2.750   1.915  0.00  0.00    +0.080 A 
ATOM     15  C   LIG    1        0.862  -3.191   3.204  0.00  0.00    -0.080 A 
BRANCH  10  17
ATOM     16  C   LIG    1        1.385  -4.054   5.712  0.00  0.00    +0.250 C 
ATOM     17  O   LIG    1        0.030  -4.056   5.257  0.00  0.00    -0.320 OA
ENDBRANCH  10  17
ENDBRANCH   9  13
ENDBRANCH   1   9
BRANCH   2  18
ATOM     18  C   LIG    1        0.037   1.475  -0.056  0.00  0.00    +0.360 C 
BRANCH  18  19
ATOM     19  N   LIG    1        1.385   2.043  -0.134  0.00  0.00    -0.350 N 
ATOM     20  C   LIG    1        1.825   2.921  -1.060  0.00  0.00    +0.250 A 
ATOM     21  C   LIG    1        3.119   3.200  -0.782  0.00  0.00    -0.060 A 
ATOM     22  C   LIG    1        3.486   2.462   0.347  0.00  0.00    -0.020 A 
ATOM     23  N   LIG    1        2.448   1.768   0.737  0.00  0.00    -0.200 NA
BRANCH  22  24
ATOM     24  C   LIG    1        4.844   2.464   1.002  0.00  0.00    +0.560 C 
ATOM     25  F   LIG    1        5.106   3.734   1.527  0.00  0.00    -0.170 F 
ATOM     26  F   LIG    1        5.820   2.141   0.053  0.00  0.00    -0.170 F 
ATOM     27  F   LIG    1        4.865   1.519   2.034  0.00  0.00    -0.170 F 
ENDBRANCH  22  24
ENDBRANCH  18  19
ENDBRANCH   2  18
TORSDOF 8
