REMARK  Name = ZINCpe00000gMPoo.0
REMARK                            x       y       z     vdW  Elec       q    Type
REMARK                         _______ _______ _______ _____ _____    ______ ____
ROOT
ATOM      1  N   LIG    1        2.166   2.844   2.170  0.00  0.00    -0.720 N 
ATOM      2  H   LIG    1        1.654   3.651   2.006  0.00  0.00    +0.400 HD
ATOM      3  C   LIG    1        3.513   2.884   2.156  0.00  0.00    +0.540 C 
ATOM      4  O   LIG    1        4.153   1.872   2.361  0.00  0.00    -0.480 OA
ENDROOT
BRANCH   3   5
ATOM      5  C   LIG    1        4.213   4.163   1.889  0.00  0.00    +0.030 A 
ATOM      6  C   LIG    1        3.500   5.337   1.644  0.00  0.00    -0.060 A 
ATOM      7  C   LIG    1        4.194   6.511   1.404  0.00  0.00    +0.210 A 
ATOM      8  N   LIG    1        5.511   6.544   1.392  0.00  0.00    -0.510 NA
ATOM      9  C   LIG    1        6.242   5.461   1.612  0.00  0.00    +0.410 A 
ATOM     10  N   LIG    1        7.606   5.243   1.651  0.00  0.00    -0.400 N 
ATOM     11  C   LIG    1        8.631   6.267   1.435  0.00  0.00    +0.360 C 
ATOM     12  N   LIG    1        7.859   3.896   1.927  0.00  0.00    -0.510 N 
ATOM     13  H   LIG    1        8.738   3.495   2.006  0.00  0.00    +0.440 HD
ATOM     14  C   LIG    1        6.688   3.241   2.068  0.00  0.00    +0.560 A 
ATOM     15  O   LIG    1        6.545   2.059   2.313  0.00  0.00    -0.470 OA
ATOM     16  C   LIG    1        3.425   7.781   1.145  0.00  0.00    +0.140 C 
ATOM     17  C   LIG    1        5.615   4.231   1.868  0.00  0.00    -0.240 A 
ENDBRANCH   3   5
BRANCH   1  18
ATOM     18  C   LIG    1        1.473   1.580   2.434  0.00  0.00    +0.350 C 
BRANCH  18  23
ATOM     19  C   LIG    1       -4.217   2.457   2.334  0.00  0.00    +0.150 C 
ATOM     20  C   LIG    1       -2.728   2.226   2.355  0.00  0.00    +0.180 A 
ATOM     21  C   LIG    1       -2.102   1.795   1.234  0.00  0.00    -0.090 A 
ATOM     22  C   LIG    1       -0.718   1.572   1.248  0.00  0.00    +0.050 A 
ATOM     23  C   LIG    1       -0.016   1.805   2.394  0.00  0.00    -0.260 A 
ATOM     24  C   LIG    1       -0.697   2.258   3.537  0.00  0.00    +0.530 A 
ATOM     25  O   LIG    1       -0.081   2.470   4.569  0.00  0.00    -0.540 OA
ATOM     26  C   LIG    1       -0.013   1.086   0.008  0.00  0.00    +0.120 C 
ATOM     27  N   LIG    1       -2.028   2.457   3.494  0.00  0.00    -0.610 N 
ATOM     28  H   LIG    1       -2.491   2.769   4.287  0.00  0.00    +0.410 HD
ENDBRANCH  18  23
ENDBRANCH   1  18
TORSDOF 3
