REMARK  Name = ZINCpk00000y6ybh.0
REMARK                            x       y       z     vdW  Elec       q    Type
REMARK                         _______ _______ _______ _____ _____    ______ ____
ROOT
ATOM      1  O   LIG    1        2.515  -0.150  -4.540  0.00  0.00    -0.530 OA
ATOM      2  C   LIG    1        2.971  -1.270  -4.664  0.00  0.00    +0.600 C 
ATOM      3  N   LIG    1        2.587  -2.251  -3.823  0.00  0.00    -0.610 N 
ATOM      4  C   LIG    1        3.056  -3.630  -4.016  0.00  0.00    +0.260 C 
ATOM      5  C   LIG    1        3.691  -4.122  -2.712  0.00  0.00    +0.020 C 
ATOM      6  C   LIG    1        2.691  -3.954  -1.567  0.00  0.00    +0.030 C 
ATOM      7  C   LIG    1        2.341  -2.472  -1.405  0.00  0.00    -0.030 C 
ATOM      8  C   LIG    1        1.691  -1.961  -2.695  0.00  0.00    +0.280 C 
ENDROOT
BRANCH   2   9
ATOM      9  C   LIG    1        3.944  -1.556  -5.734  0.00  0.00    -0.280 A 
ATOM     10  C   LIG    1        3.883  -2.595  -6.641  0.00  0.00    +0.290 A 
ATOM     11  N   LIG    1        4.957  -2.495  -7.440  0.00  0.00    -0.460 N 
ATOM     12  H   LIG    1        5.176  -3.092  -8.172  0.00  0.00    +0.450 HD
ATOM     13  N   LIG    1        5.707  -1.383  -7.038  0.00  0.00    -0.280 NA
ATOM     14  C   LIG    1        5.110  -0.814  -6.028  0.00  0.00    +0.140 A 
BRANCH  14  15
ATOM     15  C   LIG    1        5.583   0.417  -5.299  0.00  0.00    +0.090 C 
ATOM     16  C   LIG    1        5.672   1.591  -6.279  0.00  0.00    +0.020 C 
ATOM     17  C   LIG    1        6.228   2.815  -5.547  0.00  0.00    +0.210 C 
ATOM     18  O   LIG    1        7.505   2.497  -4.991  0.00  0.00    -0.380 OA
ATOM     19  C   LIG    1        7.476   1.438  -4.032  0.00  0.00    +0.210 C 
ATOM     20  C   LIG    1        6.970   0.158  -4.703  0.00  0.00    +0.000 C 
ENDBRANCH  14  15
ENDBRANCH   2   9
BRANCH   7  21
ATOM     21  C   LIG    1        1.366  -2.302  -0.239  0.00  0.00    +0.330 C 
BRANCH  21  22
ATOM     22  N   LIG    1        1.123  -0.875  -0.010  0.00  0.00    -0.380 N 
ATOM     23  C   LIG    1       -0.069  -0.255   0.018  0.00  0.00    +0.470 A 
ATOM     24  N   LIG    1        0.140   1.016   0.250  0.00  0.00    -0.540 NA
ATOM     25  C   LIG    1        1.447   1.244   0.376  0.00  0.00    +0.420 A 
ATOM     26  N   LIG    1        2.090   0.116   0.224  0.00  0.00    -0.310 NA
ENDBRANCH  21  22
ENDBRANCH   7  21
TORSDOF 4
