REMARK  Name = ZINCrD000000Bh3N.0
REMARK                            x       y       z     vdW  Elec       q    Type
REMARK                         _______ _______ _______ _____ _____    ______ ____
ROOT
ATOM      1  C   LIG    1       -2.439   0.671   0.017  0.00  0.00    +0.000 C 
ATOM      2  C   LIG    1       -2.406  -0.124   1.320  0.00  0.00    +0.040 C 
ATOM      3  C   LIG    1       -3.718   0.047   2.116  0.00  0.00    +0.100 C 
ATOM      4  C   LIG    1       -3.886   1.547   2.299  0.00  0.00    -0.080 A 
ATOM      5  C   LIG    1       -4.001   2.178   3.505  0.00  0.00    +0.010 A 
ATOM      6  C   LIG    1       -4.150   3.558   3.526  0.00  0.00    +0.000 A 
ATOM      7  C   LIG    1       -4.181   4.278   2.346  0.00  0.00    +0.000 A 
ATOM      8  C   LIG    1       -4.063   3.630   1.123  0.00  0.00    +0.030 A 
ATOM      9  C   LIG    1       -3.917   2.272   1.110  0.00  0.00    -0.080 A 
ATOM     10  C   LIG    1       -4.826  -0.362   1.159  0.00  0.00    -0.080 A 
ATOM     11  C   LIG    1       -5.738  -1.350   1.397  0.00  0.00    +0.010 A 
ATOM     12  C   LIG    1       -6.699  -1.621   0.432  0.00  0.00    +0.000 A 
ATOM     13  C   LIG    1       -6.729  -0.902  -0.748  0.00  0.00    +0.000 A 
ATOM     14  C   LIG    1       -5.798   0.102  -0.984  0.00  0.00    +0.030 A 
ATOM     15  C   LIG    1       -4.856   0.363  -0.031  0.00  0.00    -0.080 A 
ATOM     16  C   LIG    1       -3.776   1.427  -0.146  0.00  0.00    +0.110 C 
ENDROOT
BRANCH   1  17
ATOM     17  C   LIG    1       -1.290   1.681   0.017  0.00  0.00    +0.280 C 
BRANCH  17  20
ATOM     18  O   LIG    1        1.130   2.871   0.007  0.00  0.00    -0.510 OA
ATOM     19  C   LIG    1        1.147   1.655   0.000  0.00  0.00    +0.570 C 
ATOM     20  N   LIG    1       -0.011   0.966   0.007  0.00  0.00    -0.720 N 
ATOM     21  H   LIG    1        0.002  -0.004   0.002  0.00  0.00    +0.400 HD
BRANCH  19  22
ATOM     22  C   LIG    1        2.437   0.934  -0.016  0.00  0.00    -0.140 C 
ATOM     23  C   LIG    1        2.470  -0.466  -0.018  0.00  0.00    +0.110 C 
ATOM     24  C   LIG    1        3.703  -1.093  -0.037  0.00  0.00    +0.050 C 
ATOM     25  C   LIG    1        4.853  -0.326  -0.044  0.00  0.00    +0.290 C 
ATOM     26  N   LIG    1        4.793   0.993  -0.037  0.00  0.00    -0.120 NA
ATOM     27  O   LIG    1        5.998   1.737  -0.044  0.00  0.00    -0.540 OA
ATOM     28  C   LIG    1        3.643   1.636  -0.024  0.00  0.00    +0.330 C 
ENDBRANCH  19  22
ENDBRANCH  17  20
ENDBRANCH   1  17
TORSDOF 3
