REMARK  Name = ZINCvU0000000IHd.0
REMARK                            x       y       z     vdW  Elec       q    Type
REMARK                         _______ _______ _______ _____ _____    ______ ____
ROOT
ATOM      1  C   LIG    1       -0.800   1.615  -1.174  0.00  0.00    +0.100 C 
ATOM      2  N   LIG    1       -1.887   2.172  -0.753  0.00  0.00    -0.190 NA
ATOM      3  N   LIG    1       -2.047   2.107   0.620  0.00  0.00    -0.540 N 
ATOM      4  C   LIG    1       -0.787   1.608   1.226  0.00  0.00    +0.270 C 
ATOM      5  C   LIG    1       -1.172   0.499   2.169  0.00  0.00    -0.150 A 
ATOM      6  C   LIG    1       -0.202  -0.386   2.601  0.00  0.00    +0.090 A 
ATOM      7  C   LIG    1       -0.525  -1.403   3.480  0.00  0.00    -0.120 A 
ATOM      8  C   LIG    1       -1.826  -1.531   3.931  0.00  0.00    +0.090 A 
ATOM      9  C   LIG    1       -2.798  -0.655   3.498  0.00  0.00    +0.000 A 
ATOM     10 BR   LIG    1        0.807  -2.611   4.064  0.00  0.00    -0.040 Br
ATOM     11  C   LIG    1       -2.483   0.367   2.603  0.00  0.00    +0.160 A 
ATOM     12  O   LIG    1       -3.502   1.162   2.182  0.00  0.00    -0.300 OA
ATOM     13  C   LIG    1       -3.225   2.357   1.450  0.00  0.00    +0.420 C 
ATOM     14  C   LIG    1       -2.971   3.507   2.398  0.00  0.00    +0.520 C 
ATOM     15  N   LIG    1       -3.892   4.455   2.121  0.00  0.00    -0.650 N 
ATOM     16  H   LIG    1       -3.953   5.304   2.586  0.00  0.00    +0.420 HD
ATOM     17  C   LIG    1       -4.738   4.072   1.094  0.00  0.00    +0.160 A 
ATOM     18  C   LIG    1       -5.807   4.764   0.523  0.00  0.00    +0.000 A 
ATOM     19  C   LIG    1       -6.493   4.135  -0.504  0.00  0.00    +0.060 A 
ATOM     20  C   LIG    1       -6.144   2.878  -0.953  0.00  0.00    -0.110 A 
ATOM     21  C   LIG    1       -5.080   2.178  -0.393  0.00  0.00    +0.130 A 
ATOM     22  C   LIG    1       -6.932   2.250  -2.074  0.00  0.00    +0.100 C 
ATOM     23  O   LIG    1       -2.106   3.566   3.245  0.00  0.00    -0.460 OA
ATOM     24  C   LIG    1       -4.394   2.796   0.629  0.00  0.00    -0.140 A 
ATOM     25  C   LIG    1       -0.013   1.086   0.008  0.00  0.00    +0.090 C 
ENDROOT
BRANCH   1  30
ATOM     26  C   LIG    1        0.804   1.203  -6.682  0.00  0.00    +0.090 C 
ATOM     27  C   LIG    1        0.384   1.311  -5.239  0.00  0.00    -0.070 A 
ATOM     28  C   LIG    1       -0.808   1.933  -4.913  0.00  0.00    +0.010 A 
ATOM     29  C   LIG    1       -1.199   2.036  -3.595  0.00  0.00    +0.050 A 
ATOM     30  C   LIG    1       -0.389   1.509  -2.586  0.00  0.00    -0.030 A 
ATOM     31  C   LIG    1        0.816   0.886  -2.922  0.00  0.00    +0.040 A 
ATOM     32  C   LIG    1        1.192   0.787  -4.245  0.00  0.00    +0.010 A 
ENDBRANCH   1  30
TORSDOF 1
