REMARK  Name = ZINCpe000000Ts2a.0
REMARK                            x       y       z     vdW  Elec       q    Type
REMARK                         _______ _______ _______ _____ _____    ______ ____
ROOT
ATOM      1  C   LIG    1        3.320   1.992  -3.619  0.00  0.00    -0.100 A 
ATOM      2  C   LIG    1        2.810   2.595  -2.505  0.00  0.00    +0.140 A 
ATOM      3  N   LIG    1        2.089   1.662  -1.851  0.00  0.00    -0.370 N 
ATOM      4  N   LIG    1        2.183   0.479  -2.599  0.00  0.00    -0.060 NA
ATOM      5  C   LIG    1        3.013   4.028  -2.087  0.00  0.00    +0.200 C 
ATOM      6  N   LIG    1        2.911   0.711  -3.635  0.00  0.00    -0.190 NA
ENDROOT
BRANCH   1   8
ATOM      7  N   LIG    1        4.697   1.905  -5.638  0.00  0.00    -0.590 N 
ATOM      8  C   LIG    1        4.175   2.636  -4.634  0.00  0.00    +0.610 C 
ATOM      9  O   LIG    1        4.410   3.827  -4.563  0.00  0.00    -0.530 OA
ATOM     10  C   LIG    1        4.371   0.482  -5.755  0.00  0.00    +0.310 C 
BRANCH   7  11
ATOM     11  C   LIG    1        5.590   2.534  -6.615  0.00  0.00    +0.330 C 
BRANCH  11  13
ATOM     12  N   LIG    1        8.017   2.939  -6.876  0.00  0.00    -0.610 N 
ATOM     13  C   LIG    1        7.015   2.427  -6.134  0.00  0.00    +0.500 C 
ATOM     14  O   LIG    1        7.259   1.879  -5.080  0.00  0.00    -0.530 OA
BRANCH  12  16
ATOM     15  C   LIG    1        7.481   5.092  -7.905  0.00  0.00    +0.010 C 
ATOM     16  C   LIG    1        7.721   3.601  -8.149  0.00  0.00    +0.260 C 
ENDBRANCH  12  16
BRANCH  12  17
ATOM     17  C   LIG    1        9.401   2.835  -6.408  0.00  0.00    +0.270 C 
ATOM     18  C   LIG    1       10.020   1.538  -6.933  0.00  0.00    +0.020 C 
ENDBRANCH  12  17
ENDBRANCH  11  13
ENDBRANCH   7  11
ENDBRANCH   1   8
BRANCH   3  19
ATOM     19  C   LIG    1        1.354   1.846  -0.597  0.00  0.00    +0.480 C 
BRANCH  19  20
ATOM     20  C   LIG    1       -0.054   2.288  -0.901  0.00  0.00    -0.080 A 
ATOM     21  C   LIG    1       -1.130   1.490  -1.098  0.00  0.00    +0.000 A 
ATOM     22  C   LIG    1       -2.187   2.395  -1.349  0.00  0.00    +0.010 A 
ATOM     23  N   LIG    1       -1.673   3.589  -1.274  0.00  0.00    -0.350 NA
ATOM     24  C   LIG    1       -3.623   2.048  -1.641  0.00  0.00    +0.160 C 
ATOM     25  O   LIG    1       -0.489   3.550  -1.029  0.00  0.00    +0.110 OA
ENDBRANCH  19  20
ENDBRANCH   3  19
TORSDOF 7
