REMARK  Name = ZINCrH000004sQ3Q.0
REMARK                            x       y       z     vdW  Elec       q    Type
REMARK                         _______ _______ _______ _____ _____    ______ ____
ROOT
ATOM      1  C   LIG    1       -5.770   5.124   0.036  0.00  0.00    +0.210 C 
ATOM      2  C   LIG    1       -5.169   3.742   0.029  0.00  0.00    +0.160 A 
ATOM      3  N   LIG    1       -5.781   2.639  -0.279  0.00  0.00    -0.270 NA
ATOM      4  O   LIG    1       -4.887   1.550  -0.168  0.00  0.00    -0.080 OA
ATOM      5  C   LIG    1       -3.678   2.001   0.225  0.00  0.00    +0.300 A 
ATOM      6  N   LIG    1       -2.526   1.398   0.469  0.00  0.00    -0.460 NA
ATOM      7  C   LIG    1       -1.451   2.069   0.852  0.00  0.00    +0.250 A 
ATOM      8  C   LIG    1       -1.481   3.455   1.024  0.00  0.00    -0.020 A 
ATOM      9  C   LIG    1       -2.666   4.143   0.775  0.00  0.00    +0.000 A 
ATOM     10  C   LIG    1       -3.790   3.396   0.369  0.00  0.00    -0.210 A 
ENDROOT
BRANCH   7  11
ATOM     11  C   LIG    1       -0.190   1.333   1.110  0.00  0.00    -0.070 A 
ATOM     12  C   LIG    1        0.954   2.023   1.509  0.00  0.00    +0.040 A 
ATOM     13  C   LIG    1        2.126   1.334   1.742  0.00  0.00    +0.010 A 
ATOM     14  C   LIG    1        2.167  -0.040   1.581  0.00  0.00    +0.030 A 
ATOM     15  C   LIG    1        1.036  -0.730   1.186  0.00  0.00    +0.000 A 
ATOM     16  C   LIG    1       -0.142  -0.051   0.950  0.00  0.00    +0.070 A 
ENDBRANCH   7  11
BRANCH   9  17
ATOM     17  C   LIG    1       -2.744   5.612   0.938  0.00  0.00    +0.560 C 
ATOM     18  N   LIG    1       -1.633   6.317   1.231  0.00  0.00    -0.720 N 
ATOM     19  H   LIG    1       -0.783   5.863   1.334  0.00  0.00    +0.400 HD
ATOM     20  O   LIG    1       -3.809   6.182   0.808  0.00  0.00    -0.510 OA
BRANCH  18  21
ATOM     21  C   LIG    1       -1.711   7.771   1.392  0.00  0.00    +0.280 C 
BRANCH  21  22
ATOM     22  C   LIG    1       -0.322   8.323   1.718  0.00  0.00    +0.030 C 
BRANCH  22  23
ATOM     23  C   LIG    1       -0.403   9.842   1.887  0.00  0.00    +0.170 C 
BRANCH  23  24
ATOM     24  O   LIG    1        0.895  10.357   2.191  0.00  0.00    -0.390 OA
BRANCH  24  25
ATOM     25  C   LIG    1        0.931  11.774   2.369  0.00  0.00    +0.190 C 
BRANCH  25  26
ATOM     26  C   LIG    1        2.361  12.213   2.689  0.00  0.00    -0.050 C 
ATOM     27  C   LIG    1        2.617  12.845   4.059  0.00  0.00    +0.020 C 
ATOM     28  C   LIG    1        2.632  13.714   2.800  0.00  0.00    +0.030 C 
ENDBRANCH  25  26
ENDBRANCH  24  25
ENDBRANCH  23  24
ENDBRANCH  22  23
ENDBRANCH  21  22
ENDBRANCH  18  21
ENDBRANCH   9  17
TORSDOF 8
