REMARK  Name = ZINCrD0000074i40.0
REMARK                            x       y       z     vdW  Elec       q    Type
REMARK                         _______ _______ _______ _____ _____    ______ ____
ROOT
ATOM      1  N   LIG    1        2.846   0.276   0.982  0.00  0.00    -0.730 N 
ATOM      2  H   LIG    1        3.151   0.502   1.874  0.00  0.00    +0.400 HD
ATOM      3  C   LIG    1        2.631  -1.012   0.649  0.00  0.00    +0.710 C 
ATOM      4  N   LIG    1        2.839  -1.986   1.556  0.00  0.00    -0.740 N 
ATOM      5  H   LIG    1        3.144  -1.761   2.449  0.00  0.00    +0.400 HD
ATOM      6  O   LIG    1        2.249  -1.295  -0.470  0.00  0.00    -0.580 OA
ENDROOT
BRANCH   1  17
ATOM      7  C   LIG    1        4.687   2.758  -0.344  0.00  0.00    +0.080 C 
ATOM      8  C   LIG    1        3.356   2.635   0.400  0.00  0.00    +0.170 C 
ATOM      9  O   LIG    1        2.441   3.662  -0.020  0.00  0.00    -0.290 OA
ATOM     10  C   LIG    1        1.172   3.170   0.004  0.00  0.00    +0.140 A 
ATOM     11  C   LIG    1       -0.046   3.844   0.023  0.00  0.00    -0.040 A 
ATOM     12  C   LIG    1       -1.233   3.136   0.033  0.00  0.00    +0.140 A 
ATOM     13  C   LIG    1       -1.220   1.751   0.017  0.00  0.00    -0.040 A 
ATOM     14  C   LIG    1       -0.013   1.076   0.008  0.00  0.00    +0.120 A 
ATOM     15  F   LIG    1       -2.410   3.797   0.051  0.00  0.00    -0.130 F 
ATOM     16  C   LIG    1        1.171   1.780   0.000  0.00  0.00    -0.200 A 
ATOM     17  C   LIG    1        2.620   1.335  -0.005  0.00  0.00    +0.310 C 
ENDBRANCH   1  17
BRANCH   4  18
ATOM     18  C   LIG    1        2.604  -3.387   1.195  0.00  0.00    +0.340 C 
BRANCH  18  19
ATOM     19  C   LIG    1        2.909  -4.269   2.378  0.00  0.00    -0.080 A 
ATOM     20  C   LIG    1        1.911  -4.577   3.284  0.00  0.00    +0.020 A 
ATOM     21  C   LIG    1        2.186  -5.386   4.372  0.00  0.00    +0.050 A 
ATOM     22  C   LIG    1        3.459  -5.889   4.555  0.00  0.00    +0.010 A 
ATOM     23  C   LIG    1        4.463  -5.582   3.646  0.00  0.00    +0.130 A 
ATOM     24  C   LIG    1        4.183  -4.774   2.553  0.00  0.00    +0.020 A 
BRANCH  23  25
ATOM     25  N   LIG    1        5.756  -6.092   3.829  0.00  0.00    -0.410 N 
ATOM     26  C   LIG    1        6.176  -6.902   4.853  0.00  0.00    +0.130 A 
ATOM     27  C   LIG    1        7.482  -7.152   4.642  0.00  0.00    +0.160 A 
ATOM     28  N   LIG    1        7.855  -6.515   3.522  0.00  0.00    -0.480 NA
ATOM     29  C   LIG    1        6.829  -5.881   3.023  0.00  0.00    +0.400 A 
ENDBRANCH  23  25
ENDBRANCH  18  19
ENDBRANCH   4  18
TORSDOF 4
