REMARK  Name = ZINCpe00000MFI9p.0
REMARK                            x       y       z     vdW  Elec       q    Type
REMARK                         _______ _______ _______ _____ _____    ______ ____
ROOT
ATOM      1  N   LIG    1        0.319   3.427  -4.928  0.00  0.00    -0.540 N 
ATOM      2  C   LIG    1        0.866   2.422  -5.831  0.00  0.00    +0.270 C 
ATOM      3  C   LIG    1        0.718   1.024  -5.228  0.00  0.00    +0.030 C 
ATOM      4  C   LIG    1       -0.737   0.832  -4.784  0.00  0.00    +0.040 C 
ATOM      5  C   LIG    1       -1.012   1.774  -3.609  0.00  0.00    +0.270 C 
ATOM      6  C   LIG    1       -0.539   3.159  -3.943  0.00  0.00    +0.500 C 
ATOM      7  O   LIG    1       -0.959   4.084  -3.281  0.00  0.00    -0.500 OA
ENDROOT
BRANCH   1  12
ATOM      8  N   LIG    1        1.719   5.380  -4.451  0.00  0.00    -0.360 N 
ATOM      9  N   LIG    1        1.789   6.695  -4.929  0.00  0.00    -0.280 NA
ATOM     10  C   LIG    1        0.856   6.855  -5.833  0.00  0.00    +0.240 A 
ATOM     11  C   LIG    1        0.163   5.649  -5.968  0.00  0.00    -0.100 A 
ATOM     12  C   LIG    1        0.717   4.752  -5.107  0.00  0.00    +0.290 A 
BRANCH   8  14
ATOM     13  C   LIG    1        3.873   4.286  -4.072  0.00  0.00    +0.040 C 
ATOM     14  C   LIG    1        2.581   4.789  -3.425  0.00  0.00    +0.310 C 
ENDBRANCH   8  14
ENDBRANCH   1  12
BRANCH   5  15
ATOM     15  N   LIG    1       -0.304   1.290  -2.422  0.00  0.00    -0.720 N 
ATOM     16  H   LIG    1        0.489   0.740  -2.520  0.00  0.00    +0.410 HD
ATOM     17  C   LIG    1       -0.753   1.610  -1.192  0.00  0.00    +0.520 C 
ATOM     18  O   LIG    1       -1.744   2.298  -1.069  0.00  0.00    -0.510 OA
BRANCH  17  19
ATOM     19  C   LIG    1       -0.025   1.113   0.030  0.00  0.00    +0.070 C 
BRANCH  19  20
ATOM     20  C   LIG    1       -0.736   1.614   1.288  0.00  0.00    +0.220 C 
BRANCH  20  21
ATOM     21  C   LIG    1       -0.008   1.117   2.509  0.00  0.00    +0.180 A 
ATOM     22  N   LIG    1        0.974   1.722   3.134  0.00  0.00    -0.480 NA
ATOM     23  C   LIG    1        1.305   0.915   4.157  0.00  0.00    +0.170 A 
ATOM     24  N   LIG    1        0.527  -0.125   4.099  0.00  0.00    -0.380 NA
ATOM     25  C   LIG    1        2.383   1.167   5.179  0.00  0.00    +0.200 C 
ATOM     26  O   LIG    1       -0.234  -0.028   3.160  0.00  0.00    +0.080 OA
ENDBRANCH  20  21
ENDBRANCH  19  20
ENDBRANCH  17  19
ENDBRANCH   5  15
TORSDOF 6
