REMARK  Name = ZINCpk00000xIG7N.0
REMARK                            x       y       z     vdW  Elec       q    Type
REMARK                         _______ _______ _______ _____ _____    ______ ____
ROOT
ATOM      1  N   LIG    1        2.314  -0.807  -4.473  0.00  0.00    -0.540 N 
ATOM      2  C   LIG    1        2.853  -1.771  -5.423  0.00  0.00    +0.270 C 
ATOM      3  C   LIG    1        3.613  -2.878  -4.691  0.00  0.00    +0.040 C 
ATOM      4  C   LIG    1        2.718  -3.434  -3.577  0.00  0.00    +0.050 C 
ATOM      5  C   LIG    1        2.532  -2.346  -2.516  0.00  0.00    +0.270 C 
ATOM      6  C   LIG    1        2.144  -1.053  -3.173  0.00  0.00    +0.510 C 
ATOM      7  O   LIG    1        1.648  -0.186  -2.485  0.00  0.00    -0.500 OA
ENDROOT
BRANCH   1  12
ATOM      8  N   LIG    1        2.726   1.564  -4.936  0.00  0.00    -0.360 N 
ATOM      9  N   LIG    1        1.990   2.607  -5.513  0.00  0.00    -0.280 NA
ATOM     10  C   LIG    1        0.816   2.143  -5.855  0.00  0.00    +0.240 A 
ATOM     11  C   LIG    1        0.762   0.789  -5.515  0.00  0.00    -0.100 A 
ATOM     12  C   LIG    1        1.955   0.453  -4.952  0.00  0.00    +0.300 A 
BRANCH   8  14
ATOM     13  C   LIG    1        5.091   1.481  -5.556  0.00  0.00    +0.040 C 
ATOM     14  C   LIG    1        4.091   1.659  -4.412  0.00  0.00    +0.320 C 
ENDBRANCH   8  14
ENDBRANCH   1  12
BRANCH   5  15
ATOM     15  N   LIG    1        1.480  -2.752  -1.581  0.00  0.00    -1.090 NA
ATOM     16  H   LIG    1        0.575  -2.893  -1.901  0.00  0.00    +0.420 HD
BRANCH  15  17
ATOM     17  S   LIG    1        1.836  -2.971   0.021  0.00  0.00    +2.730 S 
ATOM     18  O   LIG    1        0.619  -3.336   0.657  0.00  0.00    -0.930 OA
ATOM     19  O   LIG    1        3.007  -3.775   0.066  0.00  0.00    -0.950 OA
BRANCH  17  20
ATOM     20  C   LIG    1        2.287  -1.398   0.675  0.00  0.00    -0.850 A 
ATOM     21  C   LIG    1        1.435  -0.503   1.184  0.00  0.00    +0.260 A 
ATOM     22  C   LIG    1        2.023   0.667   1.639  0.00  0.00    -0.060 A 
ATOM     23  C   LIG    1        3.349   0.720   1.500  0.00  0.00    +0.040 A 
ATOM     24  S   LIG    1        3.926  -0.766   0.757  0.00  0.00    +0.220 S 
BRANCH  21  25
ATOM     25  O   LIG    1        0.092  -0.724   1.251  0.00  0.00    -0.290 OA
ATOM     26  C   LIG    1       -0.708   0.315   1.819  0.00  0.00    +0.250 C 
ENDBRANCH  21  25
ENDBRANCH  17  20
ENDBRANCH  15  17
ENDBRANCH   5  15
TORSDOF 6
