REMARK  Name = ZINCrH00000No4My.0
REMARK                            x       y       z     vdW  Elec       q    Type
REMARK                         _______ _______ _______ _____ _____    ______ ____
ROOT
ATOM      1  N   LIG    1        0.002  -0.004   0.002  0.00  0.00    -0.580 N 
ENDROOT
BRANCH   1   2
ATOM      2  C   LIG    1        0.000  -0.693  -1.206  0.00  0.00    +0.380 A 
ATOM      3  C   LIG    1        0.078   0.006  -2.408  0.00  0.00    +0.160 A 
ATOM      4  N   LIG    1        0.082  -0.651  -3.552  0.00  0.00    -0.380 NA
ATOM      5  C   LIG    1       -0.000  -1.970  -3.559  0.00  0.00    +0.180 A 
ATOM      6  C   LIG    1       -0.084  -2.668  -2.367  0.00  0.00    +0.180 A 
ATOM      7 CL   LIG    1       -0.191  -4.401  -2.383  0.00  0.00    -0.010 Cl
ATOM      8  N   LIG    1       -0.082  -2.017  -1.216  0.00  0.00    -0.500 NA
ENDBRANCH   1   2
BRANCH   1   9
ATOM      9  C   LIG    1        0.024  -0.743   1.267  0.00  0.00    +0.300 C 
BRANCH   9  11
ATOM     10  C   LIG    1       -2.110   0.303   2.038  0.00  0.00    +0.020 C 
ATOM     11  C   LIG    1       -1.411  -1.020   1.720  0.00  0.00    -0.020 C 
BRANCH  11  12
ATOM     12  C   LIG    1       -1.389  -1.898   2.973  0.00  0.00    -0.030 C 
ATOM     13  C   LIG    1       -0.692  -3.225   2.656  0.00  0.00    +0.020 C 
ATOM     14  C   LIG    1       -0.746  -4.126   3.894  0.00  0.00    -0.020 C 
ATOM     15  C   LIG    1       -2.206  -4.320   4.312  0.00  0.00    +0.200 C 
ATOM     16  O   LIG    1       -2.802  -3.046   4.562  0.00  0.00    -0.380 OA
ATOM     17  C   LIG    1       -2.824  -2.179   3.427  0.00  0.00    +0.210 C 
ENDBRANCH  11  12
ENDBRANCH   9  11
ENDBRANCH   1   9
BRANCH   1  18
ATOM     18  C   LIG    1       -0.018   1.461   0.010  0.00  0.00    +0.350 C 
BRANCH  18  19
ATOM     19  C   LIG    1        1.396   1.982  -0.001  0.00  0.00    -0.120 A 
ATOM     20  C   LIG    1        2.054   2.221   1.192  0.00  0.00    +0.020 A 
ATOM     21  C   LIG    1        3.352   2.695   1.182  0.00  0.00    +0.010 A 
ATOM     22  C   LIG    1        3.990   2.940  -0.020  0.00  0.00    -0.080 A 
ATOM     23  C   LIG    1        3.330   2.707  -1.212  0.00  0.00    +0.010 A 
ATOM     24  C   LIG    1        2.033   2.228  -1.203  0.00  0.00    +0.020 A 
BRANCH  22  25
ATOM     25  C   LIG    1        5.403   3.462  -0.031  0.00  0.00    +0.080 C 
BRANCH  25  26
ATOM     26  C   LIG    1        5.382   4.992  -0.023  0.00  0.00    +0.180 C 
BRANCH  26  27
ATOM     27  O   LIG    1        6.722   5.487  -0.034  0.00  0.00    -0.580 OA
ATOM     28  H   LIG    1        6.785   6.452  -0.029  0.00  0.00    +0.380 HD
ENDBRANCH  26  27
ENDBRANCH  25  26
ENDBRANCH  22  25
ENDBRANCH  18  19
ENDBRANCH   1  18
TORSDOF 9
