REMARK  Name = ZINCpk000000nv2g.0
REMARK                            x       y       z     vdW  Elec       q    Type
REMARK                         _______ _______ _______ _____ _____    ______ ____
ROOT
ATOM      1  N   LIG    1       -0.721   1.571  -1.179  0.00  0.00    -0.730 N 
ATOM      2  H   LIG    1       -1.516   2.118  -1.079  0.00  0.00    +0.400 HD
ATOM      3  C   LIG    1       -0.268   1.258  -2.409  0.00  0.00    +0.510 C 
ATOM      4  O   LIG    1        0.726   0.575  -2.534  0.00  0.00    -0.520 OA
ENDROOT
BRANCH   1   5
ATOM      5  C   LIG    1       -0.013   1.086   0.008  0.00  0.00    +0.320 C 
BRANCH   5  10
ATOM      6  C   LIG    1       -2.368   1.256   2.958  0.00  0.00    +0.130 A 
ATOM      7  C   LIG    1       -2.010   2.470   3.525  0.00  0.00    -0.070 A 
ATOM      8  C   LIG    1       -1.008   3.231   2.953  0.00  0.00    +0.050 A 
ATOM      9  C   LIG    1       -0.359   2.779   1.818  0.00  0.00    -0.010 A 
ATOM     10  C   LIG    1       -0.718   1.572   1.248  0.00  0.00    -0.070 A 
ATOM     11  C   LIG    1       -1.718   0.808   1.817  0.00  0.00    +0.000 A 
BRANCH   6  12
ATOM     12  O   LIG    1       -3.352   0.506   3.520  0.00  0.00    -0.310 OA
BRANCH  12  13
ATOM     13  C   LIG    1       -3.976   1.030   4.694  0.00  0.00    +0.180 C 
BRANCH  13  15
ATOM     14  C   LIG    1       -4.390  -1.253   5.620  0.00  0.00    +0.020 C 
ATOM     15  C   LIG    1       -5.051   0.054   5.179  0.00  0.00    -0.020 C 
ATOM     16  C   LIG    1       -5.803   0.670   6.360  0.00  0.00    +0.040 C 
ENDBRANCH  13  15
ENDBRANCH  12  13
ENDBRANCH   6  12
ENDBRANCH   5  10
ENDBRANCH   1   5
BRANCH   3  17
ATOM     17  C   LIG    1       -0.997   1.758  -3.630  0.00  0.00    +0.210 C 
BRANCH  17  18
ATOM     18  N   LIG    1       -0.309   1.284  -4.838  0.00  0.00    -0.500 NA
ATOM     19  C   LIG    1       -0.395  -0.178  -4.954  0.00  0.00    +0.210 C 
BRANCH  18  20
ATOM     20  C   LIG    1       -0.845   1.939  -6.040  0.00  0.00    +0.200 C 
ATOM     21  C   LIG    1       -0.028   1.522  -7.275  0.00  0.00    +0.080 C 
ATOM     22  C   LIG    1       -0.801   1.938  -8.542  0.00  0.00    -0.310 C 
ATOM     23  S   LIG    1       -2.563   1.923  -8.051  0.00  0.00    +2.390 S 
ATOM     24  O   LIG    1       -3.229   0.860  -8.718  0.00  0.00    -0.940 OA
ATOM     25  O   LIG    1       -3.084   3.243  -8.127  0.00  0.00    -0.930 OA
ATOM     26  C   LIG    1       -2.302   1.474  -6.293  0.00  0.00    -0.360 C 
ENDBRANCH  18  20
ENDBRANCH  17  18
ENDBRANCH   3  17
TORSDOF 8
