REMARK  Name = ZINCpk00000HAmXz.0
REMARK                            x       y       z     vdW  Elec       q    Type
REMARK                         _______ _______ _______ _____ _____    ______ ____
ROOT
ATOM      1  N   LIG    1        7.894   0.950   3.987  0.00  0.00    -0.530 NA
ATOM      2  C   LIG    1        7.109   0.170   4.943  0.00  0.00    +0.170 C 
ATOM      3  C   LIG    1        5.850  -0.373   4.398  0.00  0.00    +0.020 C 
ATOM      4  C   LIG    1        6.161  -1.352   3.237  0.00  0.00    +0.270 C 
ATOM      5  N   LIG    1        6.669  -0.611   2.103  0.00  0.00    -0.590 N 
ATOM      6  C   LIG    1        8.106  -0.327   1.908  0.00  0.00    +0.270 C 
ATOM      7  C   LIG    1        5.793  -0.165   1.181  0.00  0.00    +0.530 C 
ATOM      8  O   LIG    1        4.602  -0.313   1.354  0.00  0.00    -0.540 OA
ATOM      9  C   LIG    1        8.781   0.090   3.232  0.00  0.00    +0.180 C 
ENDROOT
BRANCH   7  10
ATOM     10  C   LIG    1        6.294   0.518  -0.066  0.00  0.00    -0.010 C 
ATOM     11  C   LIG    1        6.811  -0.533  -1.050  0.00  0.00    +0.050 C 
BRANCH  10  12
ATOM     12  C   LIG    1        5.151   1.304  -0.711  0.00  0.00    +0.340 C 
BRANCH  12  13
ATOM     13  N   LIG    1        5.665   2.063  -1.854  0.00  0.00    -0.370 N 
ATOM     14  C   LIG    1        5.197   2.007  -3.119  0.00  0.00    +0.230 A 
ATOM     15  C   LIG    1        5.938   2.854  -3.870  0.00  0.00    -0.130 A 
ATOM     16  C   LIG    1        6.891   3.449  -3.036  0.00  0.00    +0.220 A 
ATOM     17  N   LIG    1        6.728   2.975  -1.827  0.00  0.00    -0.300 NA
ENDBRANCH  12  13
ENDBRANCH  10  12
ENDBRANCH   7  10
BRANCH   1  18
ATOM     18  C   LIG    1        8.645   2.014   4.666  0.00  0.00    +0.260 C 
BRANCH  18  21
ATOM     19  N   LIG    1        9.509   4.600   2.244  0.00  0.00    -0.370 N 
ATOM     20  C   LIG    1        8.653   4.049   3.130  0.00  0.00    +0.250 A 
ATOM     21  C   LIG    1        9.241   2.943   3.639  0.00  0.00    -0.240 A 
ATOM     22  C   LIG    1       10.503   2.816   3.050  0.00  0.00    +0.230 A 
ATOM     23  N   LIG    1       10.663   3.805   2.209  0.00  0.00    -0.290 NA
BRANCH  19  25
ATOM     24  C   LIG    1       10.415   6.806   1.701  0.00  0.00    +0.040 C 
ATOM     25  C   LIG    1        9.275   5.814   1.459  0.00  0.00    +0.310 C 
ENDBRANCH  19  25
ENDBRANCH  18  21
ENDBRANCH   1  18
TORSDOF 6
