REMARK  Name = ZINCbu0000001gX4.0
REMARK                            x       y       z     vdW  Elec       q    Type
REMARK                         _______ _______ _______ _____ _____    ______ ____
ROOT
ATOM      1  C   LIG    1       -0.699   1.479   1.216  0.00  0.00    +0.170 C 
ATOM      2  C   LIG    1       -2.112   0.851   1.318  0.00  0.00    +0.050 C 
ATOM      3  C   LIG    1       -2.416   0.935   2.835  0.00  0.00    +0.050 C 
ATOM      4  C   LIG    1       -1.063   0.638   3.507  0.00  0.00    -0.050 C 
ATOM      5  C   LIG    1       -0.902   1.507   4.752  0.00  0.00    +0.030 C 
ATOM      6  C   LIG    1        0.449   1.212   5.409  0.00  0.00    +0.010 C 
ATOM      7  C   LIG    1        0.515  -0.268   5.794  0.00  0.00    +0.010 C 
ATOM      8  C   LIG    1        0.366  -1.130   4.539  0.00  0.00    +0.010 C 
ATOM      9  C   LIG    1       -0.984  -0.841   3.879  0.00  0.00    +0.020 C 
ATOM     10  C   LIG    1        0.029   0.980   2.482  0.00  0.00    +0.050 C 
ENDROOT
BRANCH   1  11
ATOM     11  N   LIG    1       -0.012   1.005   0.008  0.00  0.00    -0.630 N 
ATOM     12  H   LIG    1       -0.500   1.339  -0.810  0.00  0.00    +0.440 HD
ATOM     13  H   LIG    1        0.935   1.354   0.000  0.00  0.00    +0.440 HD
ATOM     14  H   LIG    1        0.002  -0.004   0.002  0.00  0.00    +0.430 HD
ENDBRANCH   1  11
TORSDOF 1
