REMARK  Name = ZINCpk00000e9Tuy.1
REMARK                            x       y       z     vdW  Elec       q    Type
REMARK                         _______ _______ _______ _____ _____    ______ ____
ROOT
ATOM      1  N   LIG    1        5.347   4.119  -1.304  0.00  0.00    -0.730 N 
ATOM      2  H   LIG    1        5.276   3.159  -1.186  0.00  0.00    +0.400 HD
ATOM      3  C   LIG    1        4.233   4.863  -1.458  0.00  0.00    +0.520 C 
ATOM      4  O   LIG    1        4.321   6.063  -1.606  0.00  0.00    -0.520 OA
ENDROOT
BRANCH   1   5
ATOM      5  C   LIG    1        6.663   4.761  -1.316  0.00  0.00    +0.260 C 
BRANCH   5   6
ATOM      6  C   LIG    1        7.749   3.701  -1.123  0.00  0.00    +0.060 C 
BRANCH   6  10
ATOM      7  C   LIG    1       11.593   5.575  -1.156  0.00  0.00    -0.140 A 
ATOM      8  C   LIG    1       10.899   5.419   0.045  0.00  0.00    +0.080 A 
ATOM      9  C   LIG    1        9.660   4.814   0.049  0.00  0.00    +0.010 A 
ATOM     10  C   LIG    1        9.104   4.361  -1.135  0.00  0.00    -0.060 A 
ATOM     11  C   LIG    1        9.789   4.507  -2.328  0.00  0.00    +0.010 A 
ATOM     12  C   LIG    1       11.027   5.116  -2.346  0.00  0.00    +0.050 A 
BRANCH   7  16
ATOM     13  C   LIG    1       14.906   7.012  -2.340  0.00  0.00    +0.290 C 
ATOM     14  N   LIG    1       13.589   6.370  -2.329  0.00  0.00    -0.730 N 
ATOM     15  H   LIG    1       13.198   6.053  -3.158  0.00  0.00    +0.400 HD
ATOM     16  C   LIG    1       12.922   6.222  -1.168  0.00  0.00    +0.560 C 
ATOM     17  O   LIG    1       13.413   6.620  -0.129  0.00  0.00    -0.530 OA
ENDBRANCH   7  16
ENDBRANCH   6  10
ENDBRANCH   5   6
ENDBRANCH   1   5
BRANCH   3  18
ATOM     18  C   LIG    1        2.878   4.202  -1.447  0.00  0.00    +0.190 C 
BRANCH  18  19
ATOM     19  N   LIG    1        1.897   5.087  -2.089  0.00  0.00    -0.830 NA
ATOM     20  H   LIG    1        1.831   5.968  -1.603  0.00  0.00    +0.350 HD
ATOM     21  H   LIG    1        0.995   4.640  -2.152  0.00  0.00    +0.350 HD
ENDBRANCH  18  19
BRANCH  18  22
ATOM     22  C   LIG    1        2.454   3.935  -0.001  0.00  0.00    +0.060 C 
BRANCH  22  23
ATOM     23  C   LIG    1        1.158   3.165   0.007  0.00  0.00    -0.060 A 
ATOM     24  C   LIG    1        1.175   1.783   0.000  0.00  0.00    +0.000 A 
ATOM     25  C   LIG    1       -0.013   1.076   0.008  0.00  0.00    +0.060 A 
ATOM     26  C   LIG    1       -1.219   1.750   0.017  0.00  0.00    -0.010 A 
ATOM     27  C   LIG    1       -1.237   3.135   0.031  0.00  0.00    +0.110 A 
ATOM     28  F   LIG    1       -2.416   3.795   0.047  0.00  0.00    -0.140 F 
ATOM     29  C   LIG    1       -0.047   3.842   0.023  0.00  0.00    -0.030 A 
ENDBRANCH  22  23
ENDBRANCH  18  22
ENDBRANCH   3  18
TORSDOF 8
