REMARK  Name = ZINCpk00000y6wVw.0
REMARK                            x       y       z     vdW  Elec       q    Type
REMARK                         _______ _______ _______ _____ _____    ______ ____
ROOT
ATOM      1  C   LIG    1        1.259   7.314  -0.067  0.00  0.00    +0.130 A 
ATOM      2  C   LIG    1        0.053   8.004  -0.050  0.00  0.00    +0.070 A 
ATOM      3  C   LIG    1        0.047   9.383  -0.130  0.00  0.00    +0.020 A 
ATOM      4  C   LIG    1        1.239  10.076  -0.237  0.00  0.00    +0.110 A 
ATOM      5  C   LIG    1        2.441   9.391  -0.260  0.00  0.00    -0.660 A 
ATOM      6  C   LIG    1        2.454   8.013  -0.174  0.00  0.00    +0.090 A 
ENDROOT
BRANCH   1   9
ATOM      7  O   LIG    1       -0.461   5.922   1.413  0.00  0.00    -0.510 OA
ATOM      8  C   LIG    1        0.332   5.282   0.751  0.00  0.00    +0.580 C 
ATOM      9  N   LIG    1        1.268   5.918   0.019  0.00  0.00    -0.660 N 
ATOM     10  H   LIG    1        1.949   5.409  -0.448  0.00  0.00    +0.420 HD
BRANCH   8  11
ATOM     11  C   LIG    1        0.271   3.802   0.748  0.00  0.00    +0.070 A 
ATOM     12  C   LIG    1       -0.699   3.150   1.506  0.00  0.00    +0.040 A 
ATOM     13  C   LIG    1       -0.748   1.764   1.489  0.00  0.00    +0.070 A 
ATOM     14  C   LIG    1        0.182   1.079   0.723  0.00  0.00    +0.010 A 
ATOM     15  C   LIG    1        1.119   1.793  -0.006  0.00  0.00    +0.270 A 
ATOM     16  N   LIG    1        1.140   3.108   0.024  0.00  0.00    -0.460 NA
ENDBRANCH   8  11
ENDBRANCH   1   9
BRANCH   5  17
ATOM     17  S   LIG    1        3.957  10.279  -0.396  0.00  0.00    +2.690 S 
ATOM     18  O   LIG    1        4.965   9.438   0.149  0.00  0.00    -0.950 OA
ATOM     19  O   LIG    1        3.697  11.592   0.082  0.00  0.00    -0.950 OA
BRANCH  17  20
ATOM     20  N   LIG    1        4.294  10.428  -2.010  0.00  0.00    -0.990 NA
ATOM     21  C   LIG    1        3.806  11.585  -2.774  0.00  0.00    +0.300 C 
ATOM     22  C   LIG    1        3.038  11.078  -3.999  0.00  0.00    +0.020 C 
ATOM     23  C   LIG    1        3.931  10.128  -4.799  0.00  0.00    +0.000 C 
ATOM     24  C   LIG    1        4.306   8.924  -3.932  0.00  0.00    +0.150 C 
ATOM     25  C   LIG    1        5.093   9.409  -2.705  0.00  0.00    +0.320 C 
BRANCH  24  26
ATOM     26  O   LIG    1        5.114   8.023  -4.691  0.00  0.00    -0.560 OA
ATOM     27  H   LIG    1        4.681   7.679  -5.484  0.00  0.00    +0.380 HD
ENDBRANCH  24  26
ENDBRANCH  17  20
ENDBRANCH   5  17
TORSDOF 5
