REMARK  Name = ZINCrg000000qUR7.0
REMARK                            x       y       z     vdW  Elec       q    Type
REMARK                         _______ _______ _______ _____ _____    ______ ____
ROOT
ATOM      1  N   LIG    1       -5.415   1.802  -1.317  0.00  0.00    -0.570 N 
ATOM      2  C   LIG    1       -4.368   2.361  -1.947  0.00  0.00    +0.710 C 
ATOM      3  N   LIG    1       -4.384   2.588  -3.271  0.00  0.00    -0.730 N 
ATOM      4  H   LIG    1       -3.646   3.064  -3.683  0.00  0.00    +0.420 HD
ATOM      5  C   LIG    1       -5.501   2.131  -4.101  0.00  0.00    +0.300 C 
ATOM      6  C   LIG    1       -6.806   2.251  -3.311  0.00  0.00    +0.010 C 
ATOM      7  O   LIG    1       -3.382   2.664  -1.304  0.00  0.00    -0.540 OA
ATOM      8  C   LIG    1       -6.606   1.677  -1.931  0.00  0.00    +0.520 C 
ATOM      9  O   LIG    1       -7.517   1.102  -1.376  0.00  0.00    -0.460 OA
ENDROOT
BRANCH   1  10
ATOM     10  C   LIG    1       -5.260   1.328   0.060  0.00  0.00    +0.470 C 
BRANCH  10  18
ATOM     11  C   LIG    1       -1.199  -0.637   0.010  0.00  0.00    +0.350 A 
ATOM     12  N   LIG    1       -2.302   0.071   0.030  0.00  0.00    -0.300 NA
ATOM     13  N   LIG    1       -3.548  -0.559   0.034  0.00  0.00    -0.260 N 
ATOM     14  C   LIG    1       -3.626  -1.930   0.027  0.00  0.00    +0.130 A 
ATOM     15  C   LIG    1       -2.439  -2.688   0.011  0.00  0.00    +0.200 A 
ATOM     16  N   LIG    1       -4.912  -2.242   0.038  0.00  0.00    -0.240 NA
ATOM     17  N   LIG    1       -5.610  -1.161   0.050  0.00  0.00    -0.220 NA
ATOM     18  C   LIG    1       -4.822  -0.114   0.049  0.00  0.00    +0.180 A 
ATOM     19  C   LIG    1       -1.242  -2.043   0.003  0.00  0.00    +0.020 A 
BRANCH  11  21
ATOM     20  C   LIG    1       -0.017   1.425   0.010  0.00  0.00    +0.280 C 
ATOM     21  O   LIG    1        0.002  -0.004   0.002  0.00  0.00    -0.280 OA
ENDBRANCH  11  21
ENDBRANCH  10  18
ENDBRANCH   1  10
BRANCH   6  22
ATOM     22  C   LIG    1       -7.202   3.725  -3.199  0.00  0.00    +0.110 C 
BRANCH  22  23
ATOM     23  C   LIG    1       -8.544   3.835  -2.523  0.00  0.00    -0.090 A 
ATOM     24  C   LIG    1       -9.701   3.827  -3.280  0.00  0.00    +0.010 A 
ATOM     25  C   LIG    1      -10.933   3.923  -2.659  0.00  0.00    +0.000 A 
ATOM     26  C   LIG    1      -11.007   4.038  -1.284  0.00  0.00    +0.000 A 
ATOM     27  C   LIG    1       -9.850   4.051  -0.528  0.00  0.00    +0.010 A 
ATOM     28  C   LIG    1       -8.618   3.950  -1.148  0.00  0.00    +0.010 A 
ENDBRANCH  22  23
ENDBRANCH   6  22
TORSDOF 5
