REMARK  Name = ZINCqH0000000kzi.0
REMARK                            x       y       z     vdW  Elec       q    Type
REMARK                         _______ _______ _______ _____ _____    ______ ____
ROOT
ATOM      1  C   LIG    1        4.799   1.399   0.065  0.00  0.00    +0.530 C 
ATOM      2  N   LIG    1        3.642   2.083  -0.022  0.00  0.00    -0.660 N 
ATOM      3  H   LIG    1        3.654   3.051  -0.084  0.00  0.00    +0.410 HD
ATOM      4  O   LIG    1        4.788   0.186   0.059  0.00  0.00    -0.460 OA
ENDROOT
BRANCH   2   5
ATOM      5  C   LIG    1        2.424   1.400  -0.024  0.00  0.00    +0.140 A 
ATOM      6  C   LIG    1        2.320   0.167  -0.629  0.00  0.00    +0.020 A 
ATOM      7  C   LIG    1        1.111  -0.523  -0.637  0.00  0.00    +0.030 A 
ATOM      8  C   LIG    1        0.000  -0.001  -0.048  0.00  0.00    +0.010 A 
ATOM      9  C   LIG    1        0.064   1.255   0.581  0.00  0.00    -0.040 A 
ATOM     10  C   LIG    1       -1.068   1.821   1.191  0.00  0.00    +0.030 A 
ATOM     11  C   LIG    1       -0.970   3.037   1.796  0.00  0.00    +0.020 A 
ATOM     12  C   LIG    1        0.235   3.736   1.808  0.00  0.00    +0.010 A 
ATOM     13  C   LIG    1        1.351   3.220   1.222  0.00  0.00    +0.010 A 
ATOM     14  C   LIG    1        1.289   1.966   0.595  0.00  0.00    -0.060 A 
ENDBRANCH   2   5
BRANCH   1  15
ATOM     15  C   LIG    1        6.107   2.139   0.170  0.00  0.00    +0.130 C 
BRANCH  15  16
ATOM     16  C   LIG    1        7.240   1.149   0.254  0.00  0.00    +0.430 C 
ATOM     17  O   LIG    1        7.038   0.030   0.679  0.00  0.00    -0.410 OA
BRANCH  16  22
ATOM     18  N   LIG    1        9.663   0.726  -0.143  0.00  0.00    -0.400 N 
ATOM     19  C   LIG    1       10.706   1.438  -0.618  0.00  0.00    +0.210 A 
ATOM     20  C   LIG    1       10.279   2.683  -0.946  0.00  0.00    -0.060 A 
ATOM     21  C   LIG    1        8.912   2.755  -0.672  0.00  0.00    +0.040 A 
ATOM     22  C   LIG    1        8.538   1.523  -0.163  0.00  0.00    -0.100 A 
BRANCH  18  23
ATOM     23  C   LIG    1        9.717  -0.663   0.317  0.00  0.00    +0.330 C 
BRANCH  23  25
ATOM     24  C   LIG    1       10.124  -2.550  -1.179  0.00  0.00    +0.050 C 
ATOM     25  C   LIG    1        9.322  -1.582  -0.810  0.00  0.00    -0.050 C 
ENDBRANCH  23  25
ENDBRANCH  18  23
ENDBRANCH  16  22
ENDBRANCH  15  16
BRANCH  15  26
ATOM     26  C   LIG    1        6.099   2.980   1.378  0.00  0.00    +0.200 C 
ATOM     27  N   LIG    1        6.094   3.629   2.310  0.00  0.00    -0.370 NA
ENDBRANCH  15  26
ENDBRANCH   1  15
TORSDOF 7
