REMARK  Name = ZINCrD00000F5LuD.0
REMARK                            x       y       z     vdW  Elec       q    Type
REMARK                         _______ _______ _______ _____ _____    ______ ____
ROOT
ATOM      1  N   LIG    1       -0.016   1.344   0.009  0.00  0.00    -0.670 N 
ATOM      2  H   LIG    1       -0.818   1.565   0.509  0.00  0.00    +0.410 HD
ATOM      3  C   LIG    1        0.013   0.240  -0.763  0.00  0.00    +0.510 C 
ATOM      4  O   LIG    1        0.977   0.016  -1.465  0.00  0.00    -0.490 OA
ENDROOT
BRANCH   3   5
ATOM      5  C   LIG    1       -1.151  -0.717  -0.756  0.00  0.00    +0.070 C 
ATOM      6  C   LIG    1       -2.415   0.015  -1.206  0.00  0.00    +0.090 C 
ATOM      7  C   LIG    1       -2.339   0.310  -2.680  0.00  0.00    +0.520 C 
ATOM      8  N   LIG    1       -1.748  -0.554  -3.525  0.00  0.00    -0.660 N 
ATOM      9  H   LIG    1       -1.718  -0.355  -4.474  0.00  0.00    +0.410 HD
ATOM     10  C   LIG    1       -1.176  -1.736  -3.045  0.00  0.00    +0.170 A 
ATOM     11  C   LIG    1       -0.915  -2.788  -3.913  0.00  0.00    -0.020 A 
ATOM     12  C   LIG    1       -0.351  -3.953  -3.432  0.00  0.00    +0.050 A 
ATOM     13  C   LIG    1       -0.045  -4.072  -2.089  0.00  0.00    -0.010 A 
ATOM     14  C   LIG    1       -0.304  -3.026  -1.222  0.00  0.00    +0.060 A 
ATOM     15  O   LIG    1       -2.817   1.339  -3.111  0.00  0.00    -0.520 OA
ATOM     16  C   LIG    1       -0.868  -1.859  -1.696  0.00  0.00    -0.110 A 
ENDBRANCH   3   5
BRANCH   1  20
ATOM     17  C   LIG    1        3.330   3.816   0.241  0.00  0.00    -0.100 A 
ATOM     18  C   LIG    1        2.045   4.364   0.321  0.00  0.00    +0.080 A 
ATOM     19  C   LIG    1        0.942   3.544   0.244  0.00  0.00    -0.020 A 
ATOM     20  C   LIG    1        1.104   2.171   0.087  0.00  0.00    +0.170 A 
ATOM     21  C   LIG    1        2.380   1.620   0.012  0.00  0.00    +0.010 A 
ATOM     22  C   LIG    1        3.488   2.433   0.082  0.00  0.00    +0.070 A 
BRANCH  17  24
ATOM     23  C   LIG    1        5.750   4.155   0.244  0.00  0.00    -0.080 C 
ATOM     24  C   LIG    1        4.510   4.687   0.323  0.00  0.00    +0.160 C 
BRANCH  23  25
ATOM     25  C   LIG    1        6.888   4.996   0.324  0.00  0.00    +0.500 C 
ATOM     26  O   LIG    1        6.749   6.197   0.462  0.00  0.00    -0.520 OA
BRANCH  25  27
ATOM     27  O   LIG    1        8.126   4.465   0.246  0.00  0.00    -0.350 OA
BRANCH  27  29
ATOM     28  C   LIG    1       10.540   4.591   0.225  0.00  0.00    +0.070 C 
ATOM     29  C   LIG    1        9.228   5.371   0.333  0.00  0.00    +0.200 C 
ENDBRANCH  27  29
ENDBRANCH  25  27
ENDBRANCH  23  25
ENDBRANCH  17  24
ENDBRANCH   1  20
TORSDOF 6
