REMARK  Name = ZINCrH000004v4mS.0
REMARK                            x       y       z     vdW  Elec       q    Type
REMARK                         _______ _______ _______ _____ _____    ______ ____
ROOT
ATOM      1  C   LIG    1        4.409  12.543   0.023  0.00  0.00    +0.210 A 
ATOM      2  C   LIG    1        3.083  12.927  -0.148  0.00  0.00    +0.020 A 
ATOM      3  C   LIG    1        2.085  11.978  -0.151  0.00  0.00    +0.110 A 
ATOM      4  C   LIG    1        2.407  10.628   0.018  0.00  0.00    -0.160 A 
ATOM      5  C   LIG    1        3.740  10.247   0.195  0.00  0.00    +0.070 A 
ATOM      6  C   LIG    1        4.733  11.201   0.192  0.00  0.00    -0.020 A 
ENDROOT
BRANCH   1  11
ATOM      7  O   LIG    1        4.111  14.971   1.067  0.00  0.00    -0.560 OA
ATOM      8  C   LIG    1        5.175  14.734   0.528  0.00  0.00    +0.710 C 
ATOM      9  N   LIG    1        6.112  15.698   0.434  0.00  0.00    -0.710 N 
ATOM     10  H   LIG    1        6.961  15.509   0.005  0.00  0.00    +0.400 HD
ATOM     11  N   LIG    1        5.417  13.507   0.026  0.00  0.00    -0.690 N 
ATOM     12  H   LIG    1        6.292  13.294  -0.334  0.00  0.00    +0.410 HD
BRANCH   9  13
ATOM     13  C   LIG    1        5.848  17.031   0.980  0.00  0.00    +0.230 C 
ATOM     14  C   LIG    1        6.253  18.236   0.128  0.00  0.00    +0.020 C 
ATOM     15  C   LIG    1        7.056  17.881   1.382  0.00  0.00    +0.020 C 
ENDBRANCH   9  13
ENDBRANCH   1  11
BRANCH   4  16
ATOM     16  C   LIG    1        1.340   9.608   0.016  0.00  0.00    +0.570 C 
ATOM     17  N   LIG    1        1.652   8.307   0.179  0.00  0.00    -0.620 N 
ATOM     18  H   LIG    1        2.577   8.041   0.298  0.00  0.00    +0.420 HD
ATOM     19  O   LIG    1        0.181   9.942  -0.133  0.00  0.00    -0.500 OA
BRANCH  17  20
ATOM     20  C   LIG    1        0.648   7.348   0.177  0.00  0.00    +0.270 A 
ATOM     21  N   LIG    1        0.831   6.073   0.330  0.00  0.00    -0.500 NA
ATOM     22  C   LIG    1       -0.248   5.302   0.296  0.00  0.00    +0.120 A 
ATOM     23  C   LIG    1       -1.414   5.950   0.114  0.00  0.00    -0.060 A 
ATOM     24  S   LIG    1       -1.070   7.673  -0.028  0.00  0.00    +0.210 S 
BRANCH  22  25
ATOM     25  C   LIG    1       -0.176   3.831   0.453  0.00  0.00    +0.190 A 
ATOM     26  C   LIG    1        1.061   3.215   0.639  0.00  0.00    +0.000 A 
ATOM     27  C   LIG    1        1.113   1.840   0.785  0.00  0.00    +0.060 A 
ATOM     28  C   LIG    1       -0.076   1.124   0.740  0.00  0.00    -0.030 A 
ATOM     29  C   LIG    1       -1.267   1.798   0.547  0.00  0.00    +0.260 A 
ATOM     30  N   LIG    1       -1.290   3.109   0.417  0.00  0.00    -0.480 NA
ENDBRANCH  22  25
ENDBRANCH  17  20
ENDBRANCH   4  16
TORSDOF 5
