REMARK  Name = ZINCvU0000000Ewm.0
REMARK                            x       y       z     vdW  Elec       q    Type
REMARK                         _______ _______ _______ _____ _____    ______ ____
ROOT
ATOM      1  S   LIG    1       -3.359  -2.412   3.176  0.00  0.00    +0.160 S 
ENDROOT
BRANCH   1   5
ATOM      2  C   LIG    1       -6.889  -3.959   3.593  0.00  0.00    +0.160 A 
ATOM      3  N   LIG    1       -7.155  -2.866   2.941  0.00  0.00    -0.240 NA
ATOM      4  N   LIG    1       -6.066  -2.218   2.723  0.00  0.00    -0.290 NA
ATOM      5  C   LIG    1       -5.055  -2.887   3.225  0.00  0.00    +0.130 A 
ATOM      6  O   LIG    1       -5.556  -4.002   3.790  0.00  0.00    -0.190 OA
BRANCH   2   7
ATOM      7  C   LIG    1       -7.889  -4.991   4.048  0.00  0.00    +0.380 C 
BRANCH   7   8
ATOM      8  O   LIG    1       -8.054  -5.977   3.026  0.00  0.00    -0.310 OA
BRANCH   8  14
ATOM      9  C   LIG    1      -11.243  -8.102   6.048  0.00  0.00    +0.090 C 
ATOM     10  C   LIG    1      -10.500  -8.056   4.738  0.00  0.00    -0.050 A 
ATOM     11  C   LIG    1      -10.707  -9.042   3.791  0.00  0.00    -0.020 A 
ATOM     12  C   LIG    1      -10.026  -9.002   2.588  0.00  0.00    +0.050 A 
ATOM     13  C   LIG    1       -9.137  -7.977   2.330  0.00  0.00    -0.110 A 
ATOM     14  C   LIG    1       -8.928  -6.986   3.278  0.00  0.00    +0.130 A 
ATOM     15  C   LIG    1       -8.395  -7.936   1.019  0.00  0.00    +0.100 C 
ATOM     16  C   LIG    1       -9.608  -7.031   4.486  0.00  0.00    -0.080 A 
ENDBRANCH   8  14
ENDBRANCH   7   8
ENDBRANCH   2   7
ENDBRANCH   1   5
BRANCH   1  17
ATOM     17  C   LIG    1       -3.497  -0.848   2.274  0.00  0.00    +0.100 C 
BRANCH  17  18
ATOM     18  C   LIG    1       -2.128  -0.242   2.108  0.00  0.00    +0.560 C 
ATOM     19  N   LIG    1       -1.985   0.933   1.463  0.00  0.00    -0.560 N 
ATOM     20  C   LIG    1       -0.659   1.542   1.289  0.00  0.00    +0.300 C 
ATOM     21  C   LIG    1       -0.013   1.086   0.008  0.00  0.00    +0.030 C 
ATOM     22  C   LIG    1       -0.690   1.561  -1.268  0.00  0.00    +0.030 C 
ATOM     23  S   LIG    1       -2.277   0.707  -1.492  0.00  0.00    -0.150 S 
ATOM     24  C   LIG    1       -3.350   1.640  -0.425  0.00  0.00    -0.100 A 
ATOM     25  C   LIG    1       -4.401   2.368  -0.944  0.00  0.00    +0.080 A 
ATOM     26  C   LIG    1       -5.237   3.058  -0.079  0.00  0.00    +0.030 A 
ATOM     27  C   LIG    1       -5.013   3.003   1.284  0.00  0.00    +0.040 A 
ATOM     28  C   LIG    1       -3.953   2.282   1.799  0.00  0.00    +0.010 A 
ATOM     29  C   LIG    1        0.218   1.266  -2.463  0.00  0.00    +0.080 C 
ATOM     30  C   LIG    1       -3.095   1.603   0.940  0.00  0.00    +0.140 A 
ATOM     31  O   LIG    1       -1.154  -0.810   2.556  0.00  0.00    -0.510 OA
ENDBRANCH  17  18
ENDBRANCH   1  17
TORSDOF 6
