REMARK  Name = ZINCqH0000033JIF.0
REMARK                            x       y       z     vdW  Elec       q    Type
REMARK                         _______ _______ _______ _____ _____    ______ ____
ROOT
ATOM      1  N   LIG    1        1.398  -0.029   6.109  0.00  0.00    -0.690 N 
ATOM      2  H   LIG    1        1.218   0.544   6.870  0.00  0.00    +0.410 HD
ATOM      3  C   LIG    1        2.402  -0.927   6.164  0.00  0.00    +0.700 C 
ATOM      4  N   LIG    1        3.088  -1.101   7.311  0.00  0.00    -0.650 N 
ATOM      5  H   LIG    1        2.814  -0.633   8.116  0.00  0.00    +0.410 HD
ATOM      6  O   LIG    1        2.688  -1.580   5.179  0.00  0.00    -0.530 OA
ENDROOT
BRANCH   4   7
ATOM      7  C   LIG    1        4.204  -1.965   7.342  0.00  0.00    +0.010 A 
ATOM      8  C   LIG    1        5.020  -2.260   6.291  0.00  0.00    +0.250 A 
ATOM      9  N   LIG    1        5.968  -3.124   6.740  0.00  0.00    -0.380 N 
ATOM     10  N   LIG    1        5.723  -3.362   8.099  0.00  0.00    -0.260 NA
ATOM     11  C   LIG    1        7.052  -3.705   5.945  0.00  0.00    +0.360 C 
ATOM     12  C   LIG    1        4.675  -2.666   8.459  0.00  0.00    +0.080 A 
ATOM     13  C   LIG    1        4.074  -2.629   9.841  0.00  0.00    +0.160 C 
BRANCH   8  14
ATOM     14  O   LIG    1        4.907  -1.778   5.026  0.00  0.00    -0.270 OA
ATOM     15  C   LIG    1        5.715  -0.648   4.688  0.00  0.00    +0.230 C 
ENDBRANCH   8  14
ENDBRANCH   4   7
BRANCH   1  19
ATOM     16  C   LIG    1       -0.932   0.285   2.665  0.00  0.00    +0.120 A 
ATOM     17  C   LIG    1        0.414  -0.034   2.564  0.00  0.00    -0.020 A 
ATOM     18  C   LIG    1        1.186  -0.138   3.705  0.00  0.00    +0.080 A 
ATOM     19  C   LIG    1        0.615   0.076   4.952  0.00  0.00    +0.180 A 
ATOM     20  C   LIG    1       -0.733   0.395   5.052  0.00  0.00    -0.180 A 
ATOM     21  C   LIG    1       -1.502   0.505   3.910  0.00  0.00    +0.060 A 
BRANCH  20  22
ATOM     22  C   LIG    1       -1.354   0.628   6.405  0.00  0.00    +0.510 C 
ATOM     23  F   LIG    1       -0.706   1.695   7.037  0.00  0.00    -0.180 F 
ATOM     24  F   LIG    1       -1.221  -0.526   7.184  0.00  0.00    -0.170 F 
ATOM     25  F   LIG    1       -2.710   0.932   6.249  0.00  0.00    -0.170 F 
ENDBRANCH  20  22
BRANCH  16  26
ATOM     26  O   LIG    1       -1.692   0.388   1.542  0.00  0.00    -0.310 OA
BRANCH  26  28
ATOM     27  C   LIG    1       -2.046   0.314  -0.848  0.00  0.00    +0.070 C 
ATOM     28  C   LIG    1       -1.038   0.155   0.293  0.00  0.00    +0.170 C 
ENDBRANCH  26  28
ENDBRANCH  16  26
ENDBRANCH   1  19
TORSDOF 6
