REMARK  Name = ZINCrH00000No4uK.1
REMARK                            x       y       z     vdW  Elec       q    Type
REMARK                         _______ _______ _______ _____ _____    ______ ____
ROOT
ATOM      1  N   LIG    1       -7.716   4.836   1.369  0.00  0.00    -0.710 N 
ATOM      2  H   LIG    1       -8.346   4.533   2.041  0.00  0.00    +0.410 HD
ATOM      3  C   LIG    1       -7.045   5.991   1.548  0.00  0.00    +0.540 C 
ATOM      4  O   LIG    1       -6.254   6.372   0.705  0.00  0.00    -0.550 OA
ENDROOT
BRANCH   3   5
ATOM      5  C   LIG    1       -7.268   6.788   2.756  0.00  0.00    -0.070 C 
ATOM      6  C   LIG    1       -6.596   7.944   2.934  0.00  0.00    +0.110 C 
BRANCH   6   7
ATOM      7  C   LIG    1       -6.820   8.745   4.149  0.00  0.00    -0.040 A 
ATOM      8  C   LIG    1       -7.724   8.308   5.122  0.00  0.00    +0.030 A 
ATOM      9  C   LIG    1       -7.931   9.066   6.255  0.00  0.00    +0.070 A 
ATOM     10  C   LIG    1       -7.240  10.252   6.435  0.00  0.00    -0.180 A 
ATOM     11  C   LIG    1       -6.341  10.688   5.478  0.00  0.00    +0.070 A 
ATOM     12  C   LIG    1       -6.126   9.944   4.338  0.00  0.00    +0.040 A 
BRANCH  10  13
ATOM     13  C   LIG    1       -7.469  11.072   7.678  0.00  0.00    +0.510 C 
ATOM     14  F   LIG    1       -8.781  10.882   8.127  0.00  0.00    -0.180 F 
ATOM     15  F   LIG    1       -7.267  12.425   7.388  0.00  0.00    -0.180 F 
ATOM     16  F   LIG    1       -6.573  10.669   8.674  0.00  0.00    -0.170 F 
ENDBRANCH  10  13
ENDBRANCH   6   7
ENDBRANCH   3   5
BRANCH   1  17
ATOM     17  C   LIG    1       -7.494   4.039   0.161  0.00  0.00    +0.280 C 
BRANCH  17  18
ATOM     18  C   LIG    1       -8.461   2.854   0.146  0.00  0.00    +0.090 C 
ATOM     19  C   LIG    1       -8.140   1.948  -1.044  0.00  0.00    +0.020 C 
ATOM     20  C   LIG    1       -9.897   3.369   0.021  0.00  0.00    +0.060 C 
BRANCH  18  24
ATOM     21  C   LIG    1       -9.515   1.176   3.906  0.00  0.00    +0.010 C 
ATOM     22  C   LIG    1       -9.123   0.232   2.768  0.00  0.00    +0.190 C 
ATOM     23  C   LIG    1       -9.261   0.962   1.429  0.00  0.00    +0.160 C 
ATOM     24  N   LIG    1       -8.321   2.092   1.393  0.00  0.00    -0.520 NA
ATOM     25  C   LIG    1       -6.939   1.625   1.574  0.00  0.00    +0.160 C 
ATOM     26  C   LIG    1       -6.824   0.889   2.911  0.00  0.00    +0.160 C 
ATOM     27  C   LIG    1       -5.408   0.332   3.068  0.00  0.00    +0.050 C 
ATOM     28  O   LIG    1       -7.767  -0.186   2.940  0.00  0.00    -0.380 OA
ENDBRANCH  18  24
ENDBRANCH  17  18
ENDBRANCH   1  17
TORSDOF 6
