REMARK  Name = ZINCqH0000007BUk.0
REMARK                            x       y       z     vdW  Elec       q    Type
REMARK                         _______ _______ _______ _____ _____    ______ ____
ROOT
ATOM      1  C   LIG    1       -4.320   7.229   9.556  0.00  0.00    +0.120 A 
ATOM      2  N   LIG    1       -3.910   7.012   8.339  0.00  0.00    -0.450 NA
ATOM      3  C   LIG    1       -4.373   5.942   7.736  0.00  0.00    +0.070 A 
ATOM      4  C   LIG    1       -5.224   5.194   8.446  0.00  0.00    -0.030 A 
ATOM      5  S   LIG    1       -5.427   5.943  10.028  0.00  0.00    +0.130 S 
ENDROOT
BRANCH   1  10
ATOM      6  C   LIG    1       -4.050   9.569  12.486  0.00  0.00    +0.130 A 
ATOM      7  C   LIG    1       -3.165  10.517  11.992  0.00  0.00    -0.060 A 
ATOM      8  C   LIG    1       -2.658  10.395  10.711  0.00  0.00    +0.050 A 
ATOM      9  C   LIG    1       -3.030   9.330   9.916  0.00  0.00    +0.030 A 
ATOM     10  C   LIG    1       -3.919   8.372  10.405  0.00  0.00    +0.010 A 
ATOM     11  C   LIG    1       -4.433   8.499  11.695  0.00  0.00    +0.000 A 
BRANCH   6  13
ATOM     12  C   LIG    1       -4.112  10.825  14.504  0.00  0.00    +0.250 C 
ATOM     13  O   LIG    1       -4.545   9.694  13.746  0.00  0.00    -0.320 OA
ENDBRANCH   6  13
ENDBRANCH   1  10
BRANCH   3  14
ATOM     14  C   LIG    1       -3.974   5.582   6.328  0.00  0.00    +0.210 C 
BRANCH  14  15
ATOM     15  S   LIG    1       -2.499   4.526   6.368  0.00  0.00    +0.040 S 
BRANCH  15  16
ATOM     16  C   LIG    1       -2.188   4.213   4.662  0.00  0.00    +0.020 A 
ATOM     17  N   LIG    1       -2.894   4.668   3.675  0.00  0.00    -0.270 NA
ATOM     18  N   LIG    1       -2.469   4.296   2.418  0.00  0.00    -0.320 NA
ATOM     19  C   LIG    1       -1.417   3.540   2.383  0.00  0.00    +0.230 A 
ATOM     20  S   LIG    1       -0.874   3.228   4.029  0.00  0.00    +0.120 S 
BRANCH  19  21
ATOM     21  N   LIG    1       -0.817   3.048   1.230  0.00  0.00    -0.440 N 
ATOM     22  C   LIG    1       -0.731   1.580   1.266  0.00  0.00    +0.180 C 
ATOM     23  C   LIG    1       -0.013   1.086   0.008  0.00  0.00    +0.250 C 
ATOM     24  O   LIG    1       -0.706   1.560  -1.149  0.00  0.00    -0.380 OA
ATOM     25  C   LIG    1       -0.807   2.985  -1.216  0.00  0.00    +0.240 C 
ATOM     26  C   LIG    1       -1.534   3.499   0.029  0.00  0.00    +0.190 C 
ENDBRANCH  19  21
ENDBRANCH  15  16
ENDBRANCH  14  15
ENDBRANCH   3  14
TORSDOF 6
