REMARK  Name = ZINCrH000004jmWJ.0
REMARK                            x       y       z     vdW  Elec       q    Type
REMARK                         _______ _______ _______ _____ _____    ______ ____
ROOT
ATOM      1  N   LIG    1       -0.886   3.975   7.180  0.00  0.00    -0.460 N 
ATOM      2  C   LIG    1       -2.059   4.548   6.730  0.00  0.00    +0.090 A 
ATOM      3  C   LIG    1       -3.096   5.209   7.381  0.00  0.00    +0.000 A 
ATOM      4  C   LIG    1       -4.168   5.686   6.659  0.00  0.00    +0.030 A 
ATOM      5  C   LIG    1       -4.227   5.516   5.284  0.00  0.00    +0.000 A 
ATOM      6  C   LIG    1       -3.209   4.864   4.620  0.00  0.00    +0.040 A 
ATOM      7  C   LIG    1       -2.120   4.377   5.338  0.00  0.00    -0.060 A 
ATOM      8  C   LIG    1       -0.892   3.652   4.958  0.00  0.00    -0.260 A 
ATOM      9  C   LIG    1       -0.189   3.435   6.141  0.00  0.00    +0.230 A 
ENDROOT
BRANCH   9  10
ATOM     10  C   LIG    1        1.106   2.737   6.251  0.00  0.00    -0.060 A 
ATOM     11  C   LIG    1        2.129   3.274   7.036  0.00  0.00    +0.020 A 
ATOM     12  C   LIG    1        3.335   2.612   7.139  0.00  0.00    +0.000 A 
ATOM     13  C   LIG    1        3.537   1.425   6.457  0.00  0.00    +0.030 A 
ATOM     14  C   LIG    1        2.530   0.890   5.672  0.00  0.00    +0.010 A 
ATOM     15  C   LIG    1        1.317   1.538   5.565  0.00  0.00    +0.090 A 
ENDBRANCH   9  10
BRANCH   1  17
ATOM     16  C   LIG    1       -0.989   2.679   9.251  0.00  0.00    +0.030 C 
ATOM     17  C   LIG    1       -0.454   3.945   8.579  0.00  0.00    +0.280 C 
ENDBRANCH   1  17
BRANCH   8  18
ATOM     18  C   LIG    1       -0.510   3.252   3.658  0.00  0.00    +0.420 C 
ATOM     19  O   LIG    1        0.535   2.657   3.489  0.00  0.00    -0.450 OA
BRANCH  18  20
ATOM     20  C   LIG    1       -1.399   3.565   2.482  0.00  0.00    +0.180 C 
BRANCH  20  21
ATOM     21  N   LIG    1       -0.783   3.048   1.252  0.00  0.00    -0.530 NA
ATOM     22  C   LIG    1       -0.730   1.580   1.267  0.00  0.00    +0.180 C 
ATOM     23  C   LIG    1       -0.013   1.086   0.008  0.00  0.00    +0.180 C 
ATOM     24  N   LIG    1       -0.724   1.573  -1.182  0.00  0.00    -0.550 NA
ATOM     25  C   LIG    1       -0.777   3.042  -1.196  0.00  0.00    +0.180 C 
ATOM     26  C   LIG    1       -0.109   1.057  -2.412  0.00  0.00    +0.190 C 
ATOM     27  C   LIG    1       -1.495   3.536   0.062  0.00  0.00    +0.180 C 
ENDBRANCH  20  21
ENDBRANCH  18  20
ENDBRANCH   8  18
TORSDOF 5
