REMARK  Name = ZINCqH0000051IFt.0
REMARK                            x       y       z     vdW  Elec       q    Type
REMARK                         _______ _______ _______ _____ _____    ______ ____
ROOT
ATOM      1  N   LIG    1       -3.218   5.020   5.852  0.00  0.00    -0.640 N 
ATOM      2  H   LIG    1       -3.506   4.400   6.540  0.00  0.00    +0.430 HD
ENDROOT
BRANCH   1   6
ATOM      3  C   LIG    1       -3.246   9.153   6.555  0.00  0.00    -0.090 A 
ATOM      4  C   LIG    1       -2.690   8.639   5.423  0.00  0.00    +0.170 A 
ATOM      5  C   LIG    1       -2.676   7.267   5.192  0.00  0.00    -0.060 A 
ATOM      6  C   LIG    1       -3.234   6.392   6.098  0.00  0.00    +0.290 A 
ATOM      7  C   LIG    1       -3.818   6.896   7.282  0.00  0.00    +0.090 A 
ATOM      8  N   LIG    1       -4.364   6.076   8.184  0.00  0.00    -0.460 NA
ATOM      9  C   LIG    1       -4.907   6.538   9.284  0.00  0.00    +0.300 A 
ATOM     10  C   LIG    1       -4.943   7.901   9.567  0.00  0.00    +0.010 A 
ATOM     11  C   LIG    1       -4.402   8.794   8.686  0.00  0.00    +0.080 A 
ATOM     12  C   LIG    1       -3.820   8.294   7.506  0.00  0.00    -0.020 A 
BRANCH   3  14
ATOM     13  O   LIG    1       -3.434  11.378   5.852  0.00  0.00    -0.160 OA
ATOM     14  N   LIG    1       -3.243  10.616   6.783  0.00  0.00    +0.040 N 
ATOM     15  O   LIG    1       -3.051  11.058   7.902  0.00  0.00    -0.170 OA
ENDBRANCH   3  14
ENDBRANCH   1   6
BRANCH   1  16
ATOM     16  C   LIG    1       -2.786   4.537   4.611  0.00  0.00    +0.120 A 
ATOM     17  C   LIG    1       -2.020   3.380   4.545  0.00  0.00    +0.020 A 
ATOM     18  C   LIG    1       -1.594   2.903   3.321  0.00  0.00    +0.020 A 
ATOM     19  C   LIG    1       -1.933   3.580   2.156  0.00  0.00    +0.100 A 
ATOM     20  C   LIG    1       -2.695   4.739   2.223  0.00  0.00    +0.000 A 
ATOM     21  C   LIG    1       -3.125   5.213   3.446  0.00  0.00    +0.010 A 
BRANCH  19  22
ATOM     22  N   LIG    1       -1.501   3.097   0.915  0.00  0.00    -0.490 N 
ATOM     23  C   LIG    1       -1.940   1.709   0.709  0.00  0.00    +0.160 C 
ATOM     24  C   LIG    1       -1.399   1.202  -0.630  0.00  0.00    +0.220 C 
ATOM     25  O   LIG    1       -1.838   2.071  -1.677  0.00  0.00    -0.380 OA
ATOM     26  C   LIG    1       -1.427   3.430  -1.508  0.00  0.00    +0.220 C 
ATOM     27  C   LIG    1       -1.970   3.960  -0.178  0.00  0.00    +0.170 C 
ENDBRANCH  19  22
ENDBRANCH   1  16
TORSDOF 4
