REMARK  Name = ZINCqH0000006ZOi.0
REMARK                            x       y       z     vdW  Elec       q    Type
REMARK                         _______ _______ _______ _____ _____    ______ ____
ROOT
ATOM      1  S   LIG    1       -1.450   2.366   0.022  0.00  0.00    +0.150 S 
ENDROOT
BRANCH   1   5
ATOM      2  C   LIG    1        1.304  -0.366  -0.012  0.00  0.00    +0.220 A 
ATOM      3  N   LIG    1        2.017   0.735  -0.013  0.00  0.00    -0.270 NA
ATOM      4  N   LIG    1        1.231   1.753  -0.000  0.00  0.00    -0.290 NA
ATOM      5  C   LIG    1       -0.016   1.343   0.009  0.00  0.00    +0.120 A 
ATOM      6  O   LIG    1        0.002  -0.004   0.002  0.00  0.00    -0.200 OA
BRANCH   2  10
ATOM      7  C   LIG    1        2.811  -4.338  -0.048  0.00  0.00    +0.160 A 
ATOM      8  C   LIG    1        3.691  -3.263  -0.051  0.00  0.00    +0.000 A 
ATOM      9  C   LIG    1        3.206  -1.973  -0.039  0.00  0.00    +0.130 A 
ATOM     10  C   LIG    1        1.828  -1.747  -0.025  0.00  0.00    -0.070 A 
ATOM     11  C   LIG    1        0.947  -2.830  -0.016  0.00  0.00    +0.100 A 
ATOM     12  C   LIG    1        1.440  -4.117  -0.034  0.00  0.00    -0.070 A 
BRANCH   7  14
ATOM     13  C   LIG    1        2.333  -6.666  -0.055  0.00  0.00    +0.250 C 
ATOM     14  O   LIG    1        3.293  -5.608  -0.059  0.00  0.00    -0.310 OA
ENDBRANCH   7  14
ENDBRANCH   2  10
ENDBRANCH   1   5
BRANCH   1  15
ATOM     15  C   LIG    1       -0.671   4.000   0.027  0.00  0.00    +0.090 C 
BRANCH  15  16
ATOM     16  C   LIG    1       -1.737   5.065   0.038  0.00  0.00    +0.540 C 
ATOM     17  N   LIG    1       -1.389   6.367   0.043  0.00  0.00    -0.720 N 
ATOM     18  H   LIG    1       -0.452   6.618   0.040  0.00  0.00    +0.400 HD
ATOM     19  O   LIG    1       -2.909   4.750   0.042  0.00  0.00    -0.520 OA
BRANCH  17  20
ATOM     20  C   LIG    1       -2.425   7.402   0.054  0.00  0.00    +0.290 C 
ATOM     21  C   LIG    1       -2.882   7.681  -1.379  0.00  0.00    +0.040 C 
BRANCH  20  22
ATOM     22  C   LIG    1       -1.867   8.665   0.659  0.00  0.00    -0.100 A 
ATOM     23  C   LIG    1       -0.575   9.059   0.366  0.00  0.00    +0.000 A 
ATOM     24  C   LIG    1       -0.065  10.219   0.918  0.00  0.00    +0.020 A 
ATOM     25  C   LIG    1       -0.844  10.981   1.768  0.00  0.00    +0.000 A 
ATOM     26  C   LIG    1       -2.134  10.584   2.065  0.00  0.00    +0.020 A 
ATOM     27  C   LIG    1       -2.646   9.426   1.510  0.00  0.00    +0.020 A 
ENDBRANCH  20  22
ENDBRANCH  17  20
ENDBRANCH  15  16
ENDBRANCH   1  15
TORSDOF 7
