REMARK  Name = ZINCpe000000Uv5F.0
REMARK                            x       y       z     vdW  Elec       q    Type
REMARK                         _______ _______ _______ _____ _____    ______ ____
ROOT
ATOM      1  C   LIG    1       -0.003   1.210  -0.158  0.00  0.00    +0.560 C 
ATOM      2  N   LIG    1        1.143   1.901   0.001  0.00  0.00    -0.670 N 
ATOM      3  H   LIG    1        1.123   2.869   0.053  0.00  0.00    +0.410 HD
ATOM      4  O   LIG    1        0.031   0.006  -0.319  0.00  0.00    -0.510 OA
ENDROOT
BRANCH   1   9
ATOM      5  C   LIG    1       -3.697   1.873  -0.297  0.00  0.00    -0.690 A 
ATOM      6  C   LIG    1       -3.732   3.244  -0.113  0.00  0.00    +0.160 A 
ATOM      7  C   LIG    1       -2.557   3.955   0.056  0.00  0.00    +0.010 A 
ATOM      8  C   LIG    1       -1.343   3.300   0.049  0.00  0.00    +0.110 A 
ATOM      9  C   LIG    1       -1.300   1.918  -0.142  0.00  0.00    -0.160 A 
ATOM     10  C   LIG    1       -2.489   1.206  -0.313  0.00  0.00    +0.200 A 
BRANCH   5  11
ATOM     11  S   LIG    1       -5.198   0.977  -0.513  0.00  0.00    +2.690 S 
ATOM     12  O   LIG    1       -4.857  -0.217  -1.204  0.00  0.00    -0.950 OA
ATOM     13  O   LIG    1       -6.156   1.908  -0.996  0.00  0.00    -0.950 OA
BRANCH  11  15
ATOM     14  C   LIG    1       -6.601   1.389   1.763  0.00  0.00    +0.300 C 
ATOM     15  N   LIG    1       -5.713   0.514   0.992  0.00  0.00    -1.000 NA
ATOM     16  C   LIG    1       -5.282  -0.769   1.551  0.00  0.00    +0.300 C 
ENDBRANCH  11  15
ENDBRANCH   5  11
ENDBRANCH   1   9
BRANCH   2  17
ATOM     17  C   LIG    1        2.363   1.222   0.092  0.00  0.00    +0.130 A 
ATOM     18  C   LIG    1        2.420  -0.027   0.696  0.00  0.00    +0.080 A 
ATOM     19  C   LIG    1        3.625  -0.698   0.779  0.00  0.00    +0.020 A 
ATOM     20  C   LIG    1        4.775  -0.121   0.272  0.00  0.00    +0.120 A 
ATOM     21  C   LIG    1        4.722   1.125  -0.326  0.00  0.00    -0.660 A 
ATOM     22  C   LIG    1        3.520   1.798  -0.417  0.00  0.00    +0.100 A 
BRANCH  21  23
ATOM     23  S   LIG    1        6.190   1.854  -0.972  0.00  0.00    +2.700 S 
ATOM     24  O   LIG    1        5.774   2.787  -1.960  0.00  0.00    -0.960 OA
ATOM     25  O   LIG    1        7.085   0.784  -1.241  0.00  0.00    -0.960 OA
BRANCH  23  26
ATOM     26  N   LIG    1        6.875   2.740   0.249  0.00  0.00    -1.250 NA
ATOM     27  H   LIG    1        6.313   3.141   0.931  0.00  0.00    +0.420 HD
ATOM     28  H   LIG    1        7.837   2.857   0.282  0.00  0.00    +0.420 HD
ENDBRANCH  23  26
ENDBRANCH  21  23
ENDBRANCH   2  17
TORSDOF 6
