REMARK  Name = ZINCqH0000007NKb.0
REMARK                            x       y       z     vdW  Elec       q    Type
REMARK                         _______ _______ _______ _____ _____    ______ ____
ROOT
ATOM      1  C   LIG    1        7.254   1.248  -0.054  0.00  0.00    +0.520 C 
ATOM      2  N   LIG    1        8.522   1.705  -0.064  0.00  0.00    -0.670 N 
ATOM      3  H   LIG    1        8.694   2.658  -0.135  0.00  0.00    +0.420 HD
ATOM      4  O   LIG    1        7.040   0.054  -0.050  0.00  0.00    -0.510 OA
ENDROOT
BRANCH   2   5
ATOM      5  C   LIG    1        9.591   0.807   0.028  0.00  0.00    +0.150 A 
ATOM      6  C   LIG    1        9.502  -0.444  -0.569  0.00  0.00    +0.080 A 
ATOM      7  C   LIG    1       10.558  -1.329  -0.477  0.00  0.00    +0.060 A 
ATOM      8  C   LIG    1       11.705  -0.970   0.208  0.00  0.00    -0.010 A 
ATOM      9  C   LIG    1       11.797   0.276   0.804  0.00  0.00    -0.160 A 
ATOM     10 CL   LIG    1       13.031  -2.085   0.323  0.00  0.00    -0.040 Cl
ATOM     11  C   LIG    1       10.745   1.166   0.711  0.00  0.00    +0.060 A 
BRANCH   9  12
ATOM     12  C   LIG    1       13.048   0.663   1.550  0.00  0.00    +0.510 C 
ATOM     13  F   LIG    1       14.141   0.624   0.679  0.00  0.00    -0.170 F 
ATOM     14  F   LIG    1       13.258  -0.232   2.604  0.00  0.00    -0.170 F 
ATOM     15  F   LIG    1       12.904   1.958   2.060  0.00  0.00    -0.170 F 
ENDBRANCH   9  12
ENDBRANCH   2   5
BRANCH   1  16
ATOM     16  C   LIG    1        6.103   2.220  -0.048  0.00  0.00    +0.330 C 
BRANCH  16  18
ATOM     17  C   LIG    1        3.667   2.146  -0.029  0.00  0.00    +0.570 C 
ATOM     18  N   LIG    1        4.839   1.479  -0.037  0.00  0.00    -0.720 N 
ATOM     19  H   LIG    1        4.845   0.509  -0.034  0.00  0.00    +0.410 HD
ATOM     20  O   LIG    1        3.659   3.362  -0.032  0.00  0.00    -0.520 OA
BRANCH  17  26
ATOM     21  C   LIG    1        1.173   2.089  -0.010  0.00  0.00    +0.190 A 
ATOM     22  C   LIG    1       -0.017   1.378   0.001  0.00  0.00    -0.080 A 
ATOM     23  C   LIG    1        0.002  -0.003   0.004  0.00  0.00    +0.080 A 
ATOM     24  C   LIG    1        1.206  -0.688  -0.004  0.00  0.00    -0.040 A 
ATOM     25  C   LIG    1        2.399   0.003  -0.015  0.00  0.00    +0.080 A 
ATOM     26  C   LIG    1        2.394   1.400  -0.018  0.00  0.00    -0.180 A 
BRANCH  21  28
ATOM     27  C   LIG    1       -0.124   4.078  -0.004  0.00  0.00    +0.240 C 
ATOM     28  O   LIG    1        1.157   3.445  -0.013  0.00  0.00    -0.280 OA
ENDBRANCH  21  28
ENDBRANCH  17  26
ENDBRANCH  16  18
ENDBRANCH   1  16
TORSDOF 6
