REMARK  Name = ZINCrD00000l57Ic.0
REMARK                            x       y       z     vdW  Elec       q    Type
REMARK                         _______ _______ _______ _____ _____    ______ ____
ROOT
ATOM      1  C   LIG    1        0.002  -0.004   0.002  0.00  0.00    +0.190 C 
ENDROOT
BRANCH   1   2
ATOM      2  C   LIG    1        1.429  -0.487  -0.014  0.00  0.00    +0.270 A 
ATOM      3  N   LIG    1        2.480   0.269  -0.026  0.00  0.00    -0.210 NA
ATOM      4  N   LIG    1        3.612  -0.558  -0.035  0.00  0.00    -0.480 N 
ATOM      5  H   LIG    1        4.537  -0.266  -0.043  0.00  0.00    +0.470 HD
ATOM      6  C   LIG    1        3.176  -1.835  -0.038  0.00  0.00    +0.470 A 
ATOM      7  S   LIG    1        4.154  -3.240  -0.054  0.00  0.00    -0.570 S 
ATOM      8  N   LIG    1        1.828  -1.801  -0.025  0.00  0.00    -0.490 N 
BRANCH   8   9
ATOM      9  C   LIG    1        0.941  -2.967  -0.023  0.00  0.00    +0.390 C 
BRANCH   9  10
ATOM     10  C   LIG    1        0.624  -3.358  -1.443  0.00  0.00    -0.130 A 
ATOM     11  C   LIG    1       -0.478  -2.817  -2.080  0.00  0.00    +0.010 A 
ATOM     12  C   LIG    1       -0.766  -3.173  -3.384  0.00  0.00    +0.000 A 
ATOM     13  C   LIG    1        0.041  -4.078  -4.048  0.00  0.00    +0.030 A 
ATOM     14  C   LIG    1        1.139  -4.623  -3.410  0.00  0.00    +0.010 A 
ATOM     15  C   LIG    1        1.431  -4.263  -2.107  0.00  0.00    +0.060 A 
ENDBRANCH   9  10
ENDBRANCH   8   9
ENDBRANCH   1   2
BRANCH   1  18
ATOM     16  N   LIG    1       -1.195   2.161   0.019  0.00  0.00    -0.730 N 
ATOM     17  H   LIG    1       -2.028   1.664   0.021  0.00  0.00    +0.400 HD
ATOM     18  C   LIG    1       -0.018   1.503   0.010  0.00  0.00    +0.520 C 
ATOM     19  O   LIG    1        1.024   2.123   0.004  0.00  0.00    -0.490 OA
BRANCH  16  21
ATOM     20  C   LIG    1       -1.089   4.129   1.467  0.00  0.00    +0.040 C 
ATOM     21  C   LIG    1       -1.214   3.626   0.028  0.00  0.00    +0.300 C 
BRANCH  21  22
ATOM     22  C   LIG    1       -2.512   4.114  -0.564  0.00  0.00    -0.140 A 
ATOM     23  C   LIG    1       -3.631   3.303  -0.538  0.00  0.00    +0.080 A 
ATOM     24  C   LIG    1       -4.823   3.752  -1.076  0.00  0.00    -0.010 A 
ATOM     25  C   LIG    1       -4.894   5.009  -1.651  0.00  0.00    +0.130 A 
ATOM     26  C   LIG    1       -3.772   5.819  -1.683  0.00  0.00    -0.040 A 
ATOM     27  F   LIG    1       -6.057   5.445  -2.181  0.00  0.00    -0.130 F 
ATOM     28  C   LIG    1       -2.580   5.372  -1.139  0.00  0.00    +0.140 A 
ATOM     29  F   LIG    1       -1.485   6.162  -1.169  0.00  0.00    -0.120 F 
ENDBRANCH  21  22
ENDBRANCH  16  21
ENDBRANCH   1  18
TORSDOF 6
