REMARK  Name = ZINCqH0000003a6W.1
REMARK                            x       y       z     vdW  Elec       q    Type
REMARK                         _______ _______ _______ _____ _____    ______ ____
ROOT
ATOM      1  C   LIG    1        2.437  -2.991  -0.332  0.00  0.00    +0.120 A 
ATOM      2  C   LIG    1        1.425  -2.273  -0.955  0.00  0.00    +0.060 A 
ATOM      3  C   LIG    1        1.405  -0.895  -0.872  0.00  0.00    +0.020 A 
ATOM      4  C   LIG    1        2.396  -0.228  -0.167  0.00  0.00    +0.110 A 
ATOM      5  C   LIG    1        3.410  -0.944   0.451  0.00  0.00    -0.040 A 
ATOM      6  C   LIG    1        3.428  -2.323   0.374  0.00  0.00    +0.020 A 
ENDROOT
BRANCH   1   8
ATOM      7  C   LIG    1        1.311  -5.071  -0.610  0.00  0.00    +0.510 C 
ATOM      8  N   LIG    1        2.458  -4.390  -0.415  0.00  0.00    -0.670 N 
ATOM      9  H   LIG    1        3.298  -4.868  -0.333  0.00  0.00    +0.410 HD
ATOM     10  O   LIG    1        0.250  -4.484  -0.607  0.00  0.00    -0.500 OA
BRANCH   7  11
ATOM     11  C   LIG    1        1.348  -6.561  -0.832  0.00  0.00    +0.220 C 
BRANCH  11  15
ATOM     12  N   LIG    1       -2.236  -8.771  -0.493  0.00  0.00    -0.540 NA
ATOM     13  C   LIG    1       -1.450  -8.919  -1.726  0.00  0.00    +0.180 C 
ATOM     14  C   LIG    1       -0.012  -8.460  -1.469  0.00  0.00    +0.190 C 
ATOM     15  N   LIG    1       -0.020  -7.062  -1.017  0.00  0.00    -0.520 NA
ATOM     16  C   LIG    1       -0.807  -6.914   0.216  0.00  0.00    +0.190 C 
ATOM     17  C   LIG    1       -2.244  -7.373  -0.042  0.00  0.00    +0.180 C 
BRANCH  12  19
ATOM     18  C   LIG    1       -4.459  -8.880   0.528  0.00  0.00    +0.020 C 
ATOM     19  C   LIG    1       -3.604  -9.273  -0.679  0.00  0.00    +0.160 C 
ENDBRANCH  12  19
ENDBRANCH  11  15
ENDBRANCH   7  11
ENDBRANCH   1   8
BRANCH   4  20
ATOM     20  O   LIG    1        2.375   1.129  -0.086  0.00  0.00    -0.250 OA
BRANCH  20  21
ATOM     21  C   LIG    1        3.421   1.748   0.523  0.00  0.00    +0.090 A 
ATOM     22  C   LIG    1        3.305   2.175   1.838  0.00  0.00    +0.030 A 
ATOM     23  C   LIG    1        4.368   2.808   2.453  0.00  0.00    +0.040 A 
ATOM     24  C   LIG    1        5.550   3.006   1.764  0.00  0.00    +0.030 A 
ATOM     25  C   LIG    1        5.669   2.582   0.453  0.00  0.00    +0.040 A 
ATOM     26  C   LIG    1        4.607   1.953  -0.169  0.00  0.00    -0.050 A 
ATOM     27 CL   LIG    1        4.757   1.420  -1.815  0.00  0.00    -0.050 Cl
ENDBRANCH  20  21
ENDBRANCH   4  20
TORSDOF 6
