REMARK  Name = ZINCvU0000000C99.0
REMARK                            x       y       z     vdW  Elec       q    Type
REMARK                         _______ _______ _______ _____ _____    ______ ____
ROOT
ATOM      1  N   LIG    1        1.876  -5.298   0.067  0.00  0.00    -0.270 NA
ATOM      2  C   LIG    1        0.959  -4.711   0.776  0.00  0.00    +0.310 C 
ENDROOT
BRANCH   1   9
ATOM      3  C   LIG    1        2.498  -7.609   0.423  0.00  0.00    +0.160 A 
ATOM      4  C   LIG    1        2.323  -8.889   0.072  0.00  0.00    -0.050 A 
ATOM      5  S   LIG    1        1.116  -8.873  -1.226  0.00  0.00    +0.100 S 
ATOM      6  C   LIG    1        0.911  -7.112  -1.212  0.00  0.00    +0.340 A 
ATOM      7  N   LIG    1        0.120  -6.397  -1.972  0.00  0.00    -0.550 NA
ATOM      8  C   LIG    1        0.176  -4.934  -1.915  0.00  0.00    +0.220 C 
ATOM      9  N   LIG    1        1.762  -6.660  -0.237  0.00  0.00    -0.420 N 
BRANCH   3  13
ATOM     10  C   LIG    1        5.236  -6.526   3.485  0.00  0.00    -0.070 A 
ATOM     11  C   LIG    1        5.079  -5.708   2.380  0.00  0.00    +0.000 A 
ATOM     12  C   LIG    1        4.192  -6.054   1.382  0.00  0.00    +0.060 A 
ATOM     13  C   LIG    1        3.451  -7.232   1.489  0.00  0.00    -0.060 A 
ATOM     14  C   LIG    1        3.610  -8.050   2.608  0.00  0.00    +0.040 A 
ATOM     15  C   LIG    1        4.505  -7.695   3.597  0.00  0.00    +0.010 A 
BRANCH  10  17
ATOM     16  C   LIG    1        5.489  -5.292   5.621  0.00  0.00    +0.030 C 
ATOM     17  C   LIG    1        6.208  -6.142   4.571  0.00  0.00    +0.050 C 
ENDBRANCH  10  17
ENDBRANCH   3  13
ENDBRANCH   1   9
BRANCH   2  18
ATOM     18  C   LIG    1        1.020  -3.256   1.001  0.00  0.00    -0.090 A 
ATOM     19  C   LIG    1        0.034  -2.623   1.764  0.00  0.00    +0.070 A 
ATOM     20  C   LIG    1        0.094  -1.263   1.971  0.00  0.00    +0.000 A 
ATOM     21  C   LIG    1        1.133  -0.519   1.423  0.00  0.00    +0.190 A 
ATOM     22  C   LIG    1        2.113  -1.144   0.658  0.00  0.00    -0.010 A 
ATOM     23  C   LIG    1        2.063  -2.505   0.451  0.00  0.00    +0.090 A 
BRANCH  21  24
ATOM     24  N   LIG    1        1.190   0.859   1.635  0.00  0.00    -0.590 N 
ATOM     25  C   LIG    1        0.158   1.730   1.069  0.00  0.00    +0.290 C 
BRANCH  24  26
ATOM     26  C   LIG    1        2.235   1.407   2.383  0.00  0.00    +0.200 A 
ATOM     27  C   LIG    1        3.270   0.597   2.833  0.00  0.00    -0.070 A 
ATOM     28  C   LIG    1        4.304   1.144   3.567  0.00  0.00    +0.040 A 
ATOM     29  C   LIG    1        4.305   2.494   3.863  0.00  0.00    -0.050 A 
ATOM     30  C   LIG    1        3.273   3.303   3.421  0.00  0.00    +0.040 A 
ATOM     31  C   LIG    1        2.239   2.764   2.682  0.00  0.00    -0.070 A 
ENDBRANCH  24  26
ENDBRANCH  21  24
ENDBRANCH   2  18
TORSDOF 6
