REMARK  Name = ZINCtV000002M1xP.0
REMARK                            x       y       z     vdW  Elec       q    Type
REMARK                         _______ _______ _______ _____ _____    ______ ____
ROOT
ATOM      1  O   LIG    1        2.610   2.155  -0.027  0.00  0.00    -0.490 OA
ATOM      2  C   LIG    1        3.305   2.297   0.956  0.00  0.00    +0.520 C 
ATOM      3  N   LIG    1        2.760   2.728   2.111  0.00  0.00    -0.670 N 
ATOM      4  H   LIG    1        3.326   2.910   2.877  0.00  0.00    +0.400 HD
ENDROOT
BRANCH   3   5
ATOM      5  C   LIG    1        1.374   2.913   2.205  0.00  0.00    +0.130 A 
ATOM      6  C   LIG    1        0.527   2.289   1.302  0.00  0.00    +0.040 A 
ATOM      7  C   LIG    1       -0.840   2.473   1.396  0.00  0.00    +0.020 A 
ATOM      8  C   LIG    1       -1.367   3.277   2.389  0.00  0.00    +0.010 A 
ATOM      9  C   LIG    1       -0.530   3.904   3.294  0.00  0.00    +0.040 A 
ATOM     10  C   LIG    1        0.843   3.720   3.210  0.00  0.00    +0.110 A 
BRANCH  10  11
ATOM     11  N   LIG    1        1.692   4.348   4.129  0.00  0.00    -0.670 N 
ATOM     12  H   LIG    1        2.548   3.949   4.349  0.00  0.00    +0.400 HD
ATOM     13  C   LIG    1        1.320   5.507   4.707  0.00  0.00    +0.600 C 
ATOM     14  O   LIG    1        0.214   5.967   4.493  0.00  0.00    -0.500 OA
BRANCH  13  15
ATOM     15  C   LIG    1        2.249   6.215   5.593  0.00  0.00    -0.280 A 
ATOM     16  C   LIG    1        1.990   7.394   6.234  0.00  0.00    +0.120 A 
ATOM     17  C   LIG    1        3.039   7.835   7.005  0.00  0.00    +0.000 A 
ATOM     18  C   LIG    1        4.121   7.048   6.996  0.00  0.00    -0.050 A 
ATOM     19  S   LIG    1        3.872   5.681   6.005  0.00  0.00    +0.190 S 
ENDBRANCH  13  15
ENDBRANCH  10  11
ENDBRANCH   3   5
BRANCH   2  20
ATOM     20  C   LIG    1        4.779   1.992   0.887  0.00  0.00    +0.090 C 
BRANCH  20  21
ATOM     21  C   LIG    1        5.115   1.405  -0.485  0.00  0.00    -0.060 C 
ATOM     22  C   LIG    1        4.952   2.405  -1.642  0.00  0.00    +0.070 C 
ATOM     23  C   LIG    1        6.416   2.807  -1.397  0.00  0.00    +0.020 C 
ATOM     24  C   LIG    1        6.620   1.403  -0.803  0.00  0.00    +0.060 C 
BRANCH  21  25
ATOM     25  S   LIG    1        4.307  -0.191  -0.785  0.00  0.00    -0.070 S 
BRANCH  25  26
ATOM     26  C   LIG    1        5.059  -1.246   0.410  0.00  0.00    -0.090 A 
ATOM     27  C   LIG    1        4.628  -2.560   0.548  0.00  0.00    +0.030 A 
ATOM     28  C   LIG    1        5.220  -3.384   1.484  0.00  0.00    +0.030 A 
ATOM     29  C   LIG    1        6.240  -2.904   2.285  0.00  0.00    -0.010 A 
ATOM     30  C   LIG    1        6.671  -1.596   2.151  0.00  0.00    +0.020 A 
ATOM     31  C   LIG    1        6.084  -0.766   1.216  0.00  0.00    -0.020 A 
ENDBRANCH  25  26
ENDBRANCH  21  25
ENDBRANCH  20  21
ENDBRANCH   2  20
TORSDOF 7
