REMARK  Name = ZINCpe00000gMbrg.0
REMARK                            x       y       z     vdW  Elec       q    Type
REMARK                         _______ _______ _______ _____ _____    ______ ____
ROOT
ATOM      1  C   LIG    1       -1.142  -0.780   2.425  0.00  0.00    +0.200 C 
ATOM      2  N   LIG    1       -1.246  -1.668   1.259  0.00  0.00    -0.520 NA
ATOM      3  C   LIG    1       -2.453  -2.501   1.338  0.00  0.00    +0.170 C 
ATOM      4  C   LIG    1       -2.432  -3.533   0.206  0.00  0.00    +0.320 C 
ATOM      5  N   LIG    1       -2.249  -2.823  -1.069  0.00  0.00    -0.990 NA
ATOM      6  C   LIG    1       -1.139  -1.865  -1.179  0.00  0.00    +0.330 C 
ATOM      7  C   LIG    1       -1.210  -0.899   0.008  0.00  0.00    +0.210 C 
ENDROOT
BRANCH   7   8
ATOM      8  C   LIG    1        0.002  -0.004   0.002  0.00  0.00    +0.210 A 
ATOM      9  N   LIG    1        1.244  -0.406  -0.012  0.00  0.00    -0.460 NA
ATOM     10  C   LIG    1        2.054   0.663  -0.014  0.00  0.00    +0.140 A 
ATOM     11  C   LIG    1        1.286   1.769  -0.001  0.00  0.00    +0.130 A 
ATOM     12  N   LIG    1       -0.016   1.346   0.009  0.00  0.00    -0.570 N 
ATOM     13  H   LIG    1       -0.805   1.911   0.016  0.00  0.00    +0.420 HD
ENDBRANCH   7   8
BRANCH   5  14
ATOM     14  S   LIG    1       -3.266  -3.096  -2.348  0.00  0.00    +2.700 S 
ATOM     15  O   LIG    1       -3.825  -4.387  -2.147  0.00  0.00    -0.940 OA
ATOM     16  O   LIG    1       -2.545  -2.735  -3.518  0.00  0.00    -0.950 OA
BRANCH  14  17
ATOM     17  C   LIG    1       -4.597  -1.950  -2.210  0.00  0.00    -0.680 A 
ATOM     18  C   LIG    1       -4.769  -0.973  -3.172  0.00  0.00    +0.130 A 
ATOM     19  C   LIG    1       -5.812  -0.072  -3.067  0.00  0.00    +0.010 A 
ATOM     20  C   LIG    1       -6.685  -0.144  -1.998  0.00  0.00    +0.080 A 
ATOM     21  C   LIG    1       -6.517  -1.121  -1.028  0.00  0.00    +0.030 A 
ATOM     22  O   LIG    1       -7.382  -1.177   0.021  0.00  0.00    -0.300 OA
ATOM     23  C   LIG    1       -7.407  -2.396   0.772  0.00  0.00    +0.230 C 
ATOM     24  C   LIG    1       -5.958  -2.815   1.055  0.00  0.00    +0.230 C 
ATOM     25  O   LIG    1       -5.291  -3.000  -0.199  0.00  0.00    -0.300 OA
ATOM     26  C   LIG    1       -5.474  -2.033  -1.139  0.00  0.00    +0.150 A 
ENDBRANCH  14  17
ENDBRANCH   5  14
TORSDOF 3
