REMARK  Name = ZINCpk00000iSpeE.0
REMARK                            x       y       z     vdW  Elec       q    Type
REMARK                         _______ _______ _______ _____ _____    ______ ____
ROOT
ATOM      1  C   LIG    1        0.569  -4.416   0.061  0.00  0.00    +0.250 C 
ATOM      2  C   LIG    1        2.050  -4.281   0.504  0.00  0.00    +0.040 C 
ATOM      3  C   LIG    1        2.446  -2.931  -0.149  0.00  0.00    +0.270 C 
ATOM      4  N   LIG    1        1.245  -2.087  -0.021  0.00  0.00    -0.600 N 
ATOM      5  C   LIG    1        0.066  -2.958   0.090  0.00  0.00    +0.280 C 
ENDROOT
BRANCH   4   6
ATOM      6  C   LIG    1        1.229  -0.702  -0.014  0.00  0.00    +0.270 A 
ATOM      7  C   LIG    1        0.028  -0.018   0.048  0.00  0.00    -0.240 A 
ATOM      8  C   LIG    1        0.043   1.384   0.054  0.00  0.00    +0.530 A 
ATOM      9  N   LIG    1        1.220   2.037  -0.001  0.00  0.00    -0.520 N 
ATOM     10  H   LIG    1        1.233   3.007   0.004  0.00  0.00    +0.440 HD
ATOM     11  N   LIG    1        2.425   1.328  -0.063  0.00  0.00    -0.180 NA
ATOM     12  O   LIG    1       -1.005   2.010   0.108  0.00  0.00    -0.530 OA
ATOM     13 CL   LIG    1       -1.476  -0.883   0.118  0.00  0.00    -0.030 Cl
ATOM     14  C   LIG    1        2.437   0.025  -0.070  0.00  0.00    +0.270 A 
ENDBRANCH   4   6
BRANCH   1  16
ATOM     15  C   LIG    1        0.378  -6.300  -1.474  0.00  0.00    +0.520 C 
ATOM     16  N   LIG    1        0.482  -4.968  -1.294  0.00  0.00    -0.730 N 
ATOM     17  H   LIG    1        0.499  -4.375  -2.061  0.00  0.00    +0.400 HD
ATOM     18  O   LIG    1        0.356  -7.041  -0.514  0.00  0.00    -0.530 OA
BRANCH  15  19
ATOM     19  C   LIG    1        0.288  -6.867  -2.867  0.00  0.00    +0.040 C 
BRANCH  19  20
ATOM     20  C   LIG    1        0.178  -8.391  -2.791  0.00  0.00    +0.130 C 
BRANCH  20  21
ATOM     21  C   LIG    1        0.087  -8.967  -4.205  0.00  0.00    +0.040 C 
ATOM     22  N   LIG    1        0.726  -8.236  -5.302  0.00  0.00    -0.120 NA
ATOM     23  N   LIG    1       -0.512  -8.145  -5.259  0.00  0.00    -0.120 NA
BRANCH  21  24
ATOM     24  C   LIG    1       -0.029 -10.489  -4.309  0.00  0.00    +0.120 C 
BRANCH  24  25
ATOM     25  C   LIG    1       -0.109 -10.896  -5.781  0.00  0.00    +0.160 C 
BRANCH  25  27
ATOM     26  C   LIG    1       -0.309 -13.528  -5.961  0.00  0.00    +0.030 C 
ATOM     27  C   LIG    1       -0.221 -12.360  -5.881  0.00  0.00    -0.190 C 
ENDBRANCH  25  27
ENDBRANCH  24  25
ENDBRANCH  21  24
ENDBRANCH  20  21
ENDBRANCH  19  20
ENDBRANCH  15  19
ENDBRANCH   1  16
TORSDOF 8
