REMARK  Name = ZINCrg00000SjSxt.1
REMARK                            x       y       z     vdW  Elec       q    Type
REMARK                         _______ _______ _______ _____ _____    ______ ____
ROOT
ATOM      1  C   LIG    1       -4.003   2.194  -5.324  0.00  0.00    +0.510 C 
ATOM      2  N   LIG    1       -3.177   3.073  -4.725  0.00  0.00    -0.670 N 
ATOM      3  H   LIG    1       -3.102   3.978  -5.065  0.00  0.00    +0.420 HD
ATOM      4  O   LIG    1       -4.170   1.093  -4.843  0.00  0.00    -0.500 OA
ENDROOT
BRANCH   2   5
ATOM      5  C   LIG    1       -2.427   2.681  -3.610  0.00  0.00    +0.200 A 
ATOM      6  C   LIG    1       -1.964   1.376  -3.508  0.00  0.00    +0.010 A 
ATOM      7  C   LIG    1       -1.224   0.991  -2.407  0.00  0.00    +0.150 A 
ATOM      8  C   LIG    1       -0.945   1.904  -1.407  0.00  0.00    -0.700 A 
ATOM      9  C   LIG    1       -1.409   3.203  -1.503  0.00  0.00    +0.150 A 
ATOM     10  C   LIG    1       -2.145   3.595  -2.604  0.00  0.00    -0.030 A 
BRANCH   8  11
ATOM     11  S   LIG    1       -0.002   1.410  -0.003  0.00  0.00    +2.710 S 
ATOM     12  O   LIG    1       -0.151   0.001   0.104  0.00  0.00    -0.960 OA
ATOM     13  O   LIG    1       -0.339   2.309   1.044  0.00  0.00    -0.960 OA
BRANCH  11  14
ATOM     14  N   LIG    1        1.591   1.685  -0.361  0.00  0.00    -1.240 NA
ATOM     15  H   LIG    1        1.995   2.542  -0.150  0.00  0.00    +0.420 HD
ATOM     16  H   LIG    1        2.121   0.990  -0.782  0.00  0.00    +0.420 HD
ENDBRANCH  11  14
ENDBRANCH   8  11
ENDBRANCH   2   5
BRANCH   1  18
ATOM     17  C   LIG    1       -3.694   2.918  -7.676  0.00  0.00    +0.060 C 
ATOM     18  C   LIG    1       -4.720   2.578  -6.593  0.00  0.00    +0.150 C 
BRANCH  18  19
ATOM     19  N   LIG    1       -5.553   1.456  -7.044  0.00  0.00    -0.670 NA
ATOM     20  H   LIG    1       -5.885   0.914  -6.260  0.00  0.00    +0.370 HD
BRANCH  19  21
ATOM     21  C   LIG    1       -6.673   1.929  -7.868  0.00  0.00    +0.220 C 
BRANCH  21  22
ATOM     22  C   LIG    1       -7.517   0.734  -8.318  0.00  0.00    +0.150 C 
ATOM     23  C   LIG    1       -8.614   1.208  -9.280  0.00  0.00    +0.230 C 
ATOM     24  O   LIG    1       -9.390   0.070  -9.670  0.00  0.00    -0.300 OA
ATOM     25  C   LIG    1       -9.778  -0.776  -8.676  0.00  0.00    +0.050 A 
ATOM     26  C   LIG    1      -10.807  -1.675  -8.910  0.00  0.00    +0.020 A 
ATOM     27  C   LIG    1      -11.210  -2.542  -7.912  0.00  0.00    +0.010 A 
ATOM     28  C   LIG    1      -10.587  -2.516  -6.678  0.00  0.00    +0.020 A 
ATOM     29  C   LIG    1       -9.561  -1.621  -6.438  0.00  0.00    +0.020 A 
ATOM     30  C   LIG    1       -9.153  -0.747  -7.435  0.00  0.00    +0.050 A 
ATOM     31  O   LIG    1       -8.146   0.132  -7.181  0.00  0.00    -0.310 OA
ENDBRANCH  21  22
ENDBRANCH  19  21
ENDBRANCH  18  19
ENDBRANCH   1  18
TORSDOF 7
