REMARK  Name = ZINCpk00000e9dX8.0
REMARK                            x       y       z     vdW  Elec       q    Type
REMARK                         _______ _______ _______ _____ _____    ______ ____
ROOT
ATOM      1  N   LIG    1       -0.018   1.461   0.010  0.00  0.00    -0.600 N 
ATOM      2  C   LIG    1       -1.194   2.119   0.019  0.00  0.00    +0.530 C 
ATOM      3  O   LIG    1       -1.210   3.331   0.026  0.00  0.00    -0.530 OA
ENDROOT
BRANCH   1   4
ATOM      4  C   LIG    1        1.241   2.211   0.002  0.00  0.00    +0.260 C 
ATOM      5  C   LIG    1        1.304   3.120  -1.237  0.00  0.00    +0.070 C 
ATOM      6  C   LIG    1        2.453   4.132  -1.050  0.00  0.00    -0.310 C 
ATOM      7  S   LIG    1        2.610   4.344   0.760  0.00  0.00    +2.390 S 
ATOM      8  O   LIG    1        2.196   5.655   1.118  0.00  0.00    -0.930 OA
ATOM      9  O   LIG    1        3.878   3.862   1.183  0.00  0.00    -0.930 OA
ATOM     10  C   LIG    1        1.313   3.140   1.241  0.00  0.00    -0.310 C 
ENDBRANCH   1   4
BRANCH   1  11
ATOM     11  C   LIG    1        0.002  -0.004   0.002  0.00  0.00    +0.280 C 
BRANCH  11  13
ATOM     12  C   LIG    1        0.043  -2.052   1.433  0.00  0.00    +0.030 C 
ATOM     13  C   LIG    1        0.023  -0.522   1.442  0.00  0.00    -0.010 C 
ENDBRANCH  11  13
ENDBRANCH   1  11
BRANCH   2  14
ATOM     14  C   LIG    1       -2.489   1.348   0.021  0.00  0.00    +0.050 C 
BRANCH  14  15
ATOM     15  C   LIG    1       -3.665   2.326   0.032  0.00  0.00    +0.370 C 
BRANCH  15  16
ATOM     16  N   LIG    1       -4.924   1.576   0.034  0.00  0.00    -0.550 N 
ATOM     17  C   LIG    1       -5.604   1.163   1.122  0.00  0.00    +0.640 A 
ATOM     18  O   LIG    1       -6.710   0.508   0.736  0.00  0.00    -0.240 OA
ATOM     19  C   LIG    1       -6.765   0.486  -0.619  0.00  0.00    +0.030 A 
ATOM     20  C   LIG    1       -7.673  -0.046  -1.519  0.00  0.00    +0.060 A 
ATOM     21  C   LIG    1       -7.466   0.105  -2.877  0.00  0.00    +0.030 A 
ATOM     22  C   LIG    1       -6.349   0.775  -3.343  0.00  0.00    +0.040 A 
ATOM     23  C   LIG    1       -5.436   1.306  -2.453  0.00  0.00    +0.030 A 
ATOM     24  O   LIG    1       -5.267   1.353   2.275  0.00  0.00    -0.480 OA
ATOM     25  C   LIG    1       -5.641   1.165  -1.089  0.00  0.00    +0.070 A 
ENDBRANCH  15  16
ENDBRANCH  14  15
ENDBRANCH   2  14
TORSDOF 6
