REMARK  Name = ZINCpe000000Xaba.0
REMARK                            x       y       z     vdW  Elec       q    Type
REMARK                         _______ _______ _______ _____ _____    ______ ____
ROOT
ATOM      1  C   LIG    1       -1.341  -0.183  -1.188  0.00  0.00    +0.500 C 
ATOM      2  N   LIG    1       -0.323   0.245  -0.416  0.00  0.00    -0.610 N 
ATOM      3  C   LIG    1       -0.003   1.677  -0.328  0.00  0.00    +0.290 C 
ATOM      4  C   LIG    1        1.472   1.874  -0.702  0.00  0.00    +0.290 C 
ATOM      5  N   LIG    1        2.282   0.919   0.066  0.00  0.00    -0.610 N 
ATOM      6  C   LIG    1        1.962  -0.513  -0.022  0.00  0.00    +0.280 C 
ATOM      7  C   LIG    1        3.300   1.348   0.838  0.00  0.00    +0.610 C 
ATOM      8  O   LIG    1        3.483   2.540   0.997  0.00  0.00    -0.520 OA
ATOM      9  C   LIG    1        0.488  -0.710   0.351  0.00  0.00    +0.280 C 
ATOM     10  O   LIG    1       -2.067   0.619  -1.735  0.00  0.00    -0.520 OA
ENDROOT
BRANCH   7  11
ATOM     11  C   LIG    1        4.188   0.377   1.487  0.00  0.00    -0.090 A 
ATOM     12  C   LIG    1        5.161   0.666   2.400  0.00  0.00    +0.050 A 
ATOM     13  C   LIG    1        5.758  -0.555   2.753  0.00  0.00    -0.060 A 
ATOM     14  C   LIG    1        5.136  -1.522   2.043  0.00  0.00    +0.200 A 
ATOM     15  O   LIG    1        4.191  -0.956   1.281  0.00  0.00    -0.160 OA
ENDBRANCH   7  11
BRANCH   1  17
ATOM     16  C   LIG    1       -2.035  -2.271  -0.044  0.00  0.00    +0.060 C 
ATOM     17  C   LIG    1       -1.578  -1.661  -1.370  0.00  0.00    +0.260 C 
BRANCH  17  18
ATOM     18  N   LIG    1       -2.613  -1.867  -2.386  0.00  0.00    -0.590 N 
ATOM     19  C   LIG    1       -3.956  -1.316  -2.187  0.00  0.00    +0.300 C 
BRANCH  18  20
ATOM     20  C   LIG    1       -2.320  -2.592  -3.547  0.00  0.00    +0.340 A 
ATOM     21  N   LIG    1       -3.126  -2.774  -4.566  0.00  0.00    -0.340 NA
ATOM     22  N   LIG    1       -2.455  -3.550  -5.521  0.00  0.00    -0.380 N 
ATOM     23  C   LIG    1       -1.226  -3.835  -5.039  0.00  0.00    +0.250 A 
ATOM     24  C   LIG    1       -2.994  -3.982  -6.812  0.00  0.00    +0.360 C 
ATOM     25  C   LIG    1       -1.113  -3.257  -3.822  0.00  0.00    -0.170 A 
ENDBRANCH  18  20
ENDBRANCH  17  18
ENDBRANCH   1  17
TORSDOF 4
