REMARK  Name = ZINCrg00000AyrB3.0
REMARK                            x       y       z     vdW  Elec       q    Type
REMARK                         _______ _______ _______ _____ _____    ______ ____
ROOT
ATOM      1  C   LIG    1        5.965   1.640  -1.109  0.00  0.00    +0.510 C 
ATOM      2  N   LIG    1        7.264   1.713  -1.461  0.00  0.00    -0.600 N 
ATOM      3  C   LIG    1        8.273   1.875  -0.452  0.00  0.00    +0.280 C 
ATOM      4  C   LIG    1        8.566   3.363  -0.140  0.00  0.00    +0.250 C 
ATOM      5  N   LIG    1        8.548   4.147  -1.406  0.00  0.00    -0.600 N 
ATOM      6  C   LIG    1        9.101   3.636  -2.627  0.00  0.00    +0.320 C 
ATOM      7  C   LIG    1        7.966   2.964  -3.417  0.00  0.00    +0.140 C 
ATOM      8  C   LIG    1        7.995   5.376  -1.404  0.00  0.00    +0.480 C 
ATOM      9  O   LIG    1        7.879   5.990  -2.443  0.00  0.00    -0.520 OA
ATOM     10  C   LIG    1        7.650   1.621  -2.889  0.00  0.00    +0.270 C 
ATOM     11  O   LIG    1        5.118   1.437  -1.953  0.00  0.00    -0.510 OA
ENDROOT
BRANCH   7  12
ATOM     12  O   LIG    1        8.358   2.844  -4.786  0.00  0.00    -0.560 OA
ATOM     13  H   LIG    1        7.692   2.428  -5.351  0.00  0.00    +0.380 HD
ENDBRANCH   7  12
BRANCH   8  14
ATOM     14  C   LIG    1        7.522   5.987  -0.110  0.00  0.00    +0.210 C 
ATOM     15  C   LIG    1        6.146   5.421   0.248  0.00  0.00    +0.040 C 
BRANCH  14  16
ATOM     16  O   LIG    1        7.429   7.405  -0.259  0.00  0.00    -0.540 OA
ATOM     17  H   LIG    1        6.815   7.689  -0.950  0.00  0.00    +0.390 HD
ENDBRANCH  14  16
ENDBRANCH   8  14
BRANCH   1  18
ATOM     18  C   LIG    1        5.565   1.810   0.334  0.00  0.00    +0.140 C 
BRANCH  18  24
ATOM     19  C   LIG    1       -0.204  -1.931   0.835  0.00  0.00    +0.090 C 
ATOM     20  C   LIG    1        0.980  -1.005   0.728  0.00  0.00    -0.060 A 
ATOM     21  C   LIG    1        2.260  -1.534   0.653  0.00  0.00    +0.000 A 
ATOM     22  C   LIG    1        3.352  -0.700   0.555  0.00  0.00    +0.050 A 
ATOM     23  C   LIG    1        3.163   0.681   0.532  0.00  0.00    -0.110 A 
ATOM     24  C   LIG    1        4.062   1.837   0.439  0.00  0.00    -0.160 A 
ATOM     25  C   LIG    1        3.277   2.923   0.465  0.00  0.00    +0.220 A 
ATOM     26  O   LIG    1        1.986   2.560   0.565  0.00  0.00    -0.190 OA
ATOM     27  C   LIG    1        1.867   1.217   0.609  0.00  0.00    +0.060 A 
ATOM     28  C   LIG    1        0.780   0.358   0.707  0.00  0.00    -0.070 A 
ATOM     29  C   LIG    1       -0.618   0.917   0.784  0.00  0.00    +0.090 C 
ENDBRANCH  18  24
ENDBRANCH   1  18
TORSDOF 5
