REMARK  Name = ZINCrH000004qVDN.0
REMARK                            x       y       z     vdW  Elec       q    Type
REMARK                         _______ _______ _______ _____ _____    ______ ____
ROOT
ATOM      1  C   LIG    1       -5.363  -4.160  -1.021  0.00  0.00    +0.490 C 
ATOM      2  N   LIG    1       -4.449  -3.826  -0.088  0.00  0.00    -0.730 N 
ATOM      3  H   LIG    1       -4.590  -4.071   0.839  0.00  0.00    +0.400 HD
ATOM      4  O   LIG    1       -5.186  -3.853  -2.181  0.00  0.00    -0.510 OA
ENDROOT
BRANCH   1   5
ATOM      5  C   LIG    1       -6.604  -4.916  -0.622  0.00  0.00    +0.330 C 
BRANCH   5  15
ATOM      6  C   LIG    1       -8.803  -3.013  -1.624  0.00  0.00    +0.140 C 
ATOM      7  C   LIG    1       -8.412  -4.320  -2.265  0.00  0.00    +0.090 A 
ATOM      8  C   LIG    1       -8.973  -4.833  -3.372  0.00  0.00    -0.050 A 
ATOM      9  C   LIG    1       -8.302  -6.108  -3.639  0.00  0.00    -0.100 A 
ATOM     10  C   LIG    1       -8.440  -7.088  -4.623  0.00  0.00    +0.050 A 
ATOM     11  C   LIG    1       -7.639  -8.196  -4.594  0.00  0.00    -0.030 A 
ATOM     12  C   LIG    1       -6.689  -8.353  -3.594  0.00  0.00    +0.020 A 
ATOM     13  C   LIG    1       -6.536  -7.397  -2.614  0.00  0.00    -0.020 A 
ATOM     14  C   LIG    1       -7.341  -6.262  -2.623  0.00  0.00    +0.110 A 
ATOM     15  N   LIG    1       -7.431  -5.157  -1.808  0.00  0.00    -0.470 N 
ENDBRANCH   5  15
ENDBRANCH   1   5
BRANCH   2  16
ATOM     16  C   LIG    1       -3.242  -3.092  -0.476  0.00  0.00    +0.260 C 
BRANCH  16  17
ATOM     17  C   LIG    1       -2.379  -2.840   0.762  0.00  0.00    +0.090 C 
BRANCH  17  18
ATOM     18  C   LIG    1       -1.137  -2.085   0.363  0.00  0.00    -0.070 A 
ATOM     19  C   LIG    1        0.002  -2.775  -0.007  0.00  0.00    +0.040 A 
ATOM     20  C   LIG    1        1.143  -2.085  -0.372  0.00  0.00    -0.030 A 
ATOM     21  C   LIG    1        1.148  -0.698  -0.367  0.00  0.00    +0.060 A 
ATOM     22  O   LIG    1        2.281  -0.032  -0.722  0.00  0.00    -0.290 OA
ATOM     23  C   LIG    1        2.135   1.351  -1.064  0.00  0.00    +0.230 C 
ATOM     24  C   LIG    1        1.254   2.018   0.001  0.00  0.00    +0.230 C 
ATOM     25  O   LIG    1       -0.016   1.357   0.009  0.00  0.00    -0.300 OA
ATOM     26  C   LIG    1        0.002  -0.004   0.002  0.00  0.00    +0.070 A 
ATOM     27 CL   LIG    1        2.572  -2.956  -0.837  0.00  0.00    -0.050 Cl
ATOM     28  C   LIG    1       -1.139  -0.702   0.368  0.00  0.00    +0.040 A 
ENDBRANCH  17  18
ENDBRANCH  16  17
ENDBRANCH   2  16
TORSDOF 5
