REMARK  Name = ZINCrH000004nBEk.0
REMARK                            x       y       z     vdW  Elec       q    Type
REMARK                         _______ _______ _______ _____ _____    ______ ____
ROOT
ATOM      1  N   LIG    1       10.063   1.312   0.609  0.00  0.00    -0.480 N 
ATOM      2  C   LIG    1       10.468  -0.091   0.767  0.00  0.00    +0.200 C 
ATOM      3  C   LIG    1        9.751  -0.947  -0.282  0.00  0.00    +0.300 C 
ATOM      4  N   LIG    1        8.305  -0.701  -0.177  0.00  0.00    -0.620 N 
ATOM      5  C   LIG    1        7.832   0.691  -0.195  0.00  0.00    +0.290 C 
ATOM      6  C   LIG    1        7.435  -1.726  -0.072  0.00  0.00    +0.600 C 
ATOM      7  O   LIG    1        7.840  -2.844   0.187  0.00  0.00    -0.520 OA
ATOM      8  C   LIG    1        8.625   1.483   0.857  0.00  0.00    +0.190 C 
ENDROOT
BRANCH   1  14
ATOM      9  C   LIG    1       12.184   2.308   1.216  0.00  0.00    +0.120 A 
ATOM     10  C   LIG    1       12.926   3.137   2.040  0.00  0.00    -0.060 A 
ATOM     11  C   LIG    1       12.311   3.804   3.084  0.00  0.00    +0.030 A 
ATOM     12  C   LIG    1       10.956   3.646   3.308  0.00  0.00    +0.000 A 
ATOM     13  C   LIG    1       10.207   2.825   2.485  0.00  0.00    +0.000 A 
ATOM     14  C   LIG    1       10.818   2.148   1.440  0.00  0.00    +0.070 A 
BRANCH   9  16
ATOM     15  C   LIG    1       14.191   1.862   0.019  0.00  0.00    +0.230 C 
ATOM     16  O   LIG    1       12.788   1.651   0.189  0.00  0.00    -0.310 OA
ENDBRANCH   9  16
ENDBRANCH   1  14
BRANCH   6  17
ATOM     17  C   LIG    1        6.002  -1.493  -0.270  0.00  0.00    -0.320 A 
ATOM     18  C   LIG    1        4.998  -2.395  -0.038  0.00  0.00    +0.330 A 
ATOM     19  N   LIG    1        3.802  -1.937  -0.294  0.00  0.00    -0.480 NA
ATOM     20  C   LIG    1        3.711  -0.711  -0.727  0.00  0.00    +0.080 A 
ATOM     21  S   LIG    1        5.262  -0.004  -0.854  0.00  0.00    +0.210 S 
BRANCH  20  22
ATOM     22  C   LIG    1        2.444  -0.029  -1.066  0.00  0.00    -0.040 A 
ATOM     23  C   LIG    1        1.228  -0.702  -0.931  0.00  0.00    +0.070 A 
ATOM     24  C   LIG    1        0.049  -0.059  -1.249  0.00  0.00    +0.010 A 
ATOM     25  C   LIG    1        0.070   1.248  -1.700  0.00  0.00    +0.030 A 
ATOM     26  C   LIG    1        1.272   1.920  -1.837  0.00  0.00    +0.010 A 
ATOM     27  C   LIG    1        2.458   1.290  -1.523  0.00  0.00    +0.020 A 
ENDBRANCH  20  22
ENDBRANCH   6  17
TORSDOF 4
