REMARK  Name = ZINCvU0000000Ig2.0
REMARK                            x       y       z     vdW  Elec       q    Type
REMARK                         _______ _______ _______ _____ _____    ______ ____
ROOT
ATOM      1  O   LIG    1       -8.171  -1.197  -0.319  0.00  0.00    -0.480 OA
ATOM      2  C   LIG    1       -7.160  -0.524  -0.253  0.00  0.00    +0.570 C 
ATOM      3  C   LIG    1       -7.266   0.940  -0.251  0.00  0.00    -0.160 A 
ATOM      4  C   LIG    1       -8.504   1.579  -0.322  0.00  0.00    +0.110 A 
ATOM      5  C   LIG    1       -8.562   2.957  -0.317  0.00  0.00    -0.010 A 
ATOM      6  C   LIG    1       -7.403   3.714  -0.243  0.00  0.00    +0.070 A 
ATOM      7  C   LIG    1       -6.168   3.102  -0.172  0.00  0.00    -0.010 A 
ATOM      8  C   LIG    1       -6.089   1.714  -0.175  0.00  0.00    +0.050 A 
ATOM      9  C   LIG    1       -4.793   1.009  -0.102  0.00  0.00    -0.300 C 
ATOM     10  C   LIG    1       -4.805  -0.459  -0.117  0.00  0.00    +0.580 C 
ATOM     11  O   LIG    1       -3.754  -1.071  -0.063  0.00  0.00    -0.520 OA
ATOM     12  C   LIG    1       -3.608   1.707  -0.027  0.00  0.00    +0.430 C 
ATOM     13  N   LIG    1       -5.965  -1.133  -0.185  0.00  0.00    -0.510 N 
ENDROOT
BRANCH  13  14
ATOM     14  C   LIG    1       -5.925  -2.533  -0.191  0.00  0.00    +0.120 A 
ATOM     15  C   LIG    1       -5.489  -3.221   0.934  0.00  0.00    +0.080 A 
ATOM     16  C   LIG    1       -5.452  -4.602   0.925  0.00  0.00    +0.040 A 
ATOM     17  C   LIG    1       -5.847  -5.299  -0.202  0.00  0.00    +0.090 A 
ATOM     18  C   LIG    1       -6.282  -4.617  -1.323  0.00  0.00    -0.170 A 
ATOM     19  C   LIG    1       -6.327  -3.236  -1.319  0.00  0.00    +0.100 A 
BRANCH  18  20
ATOM     20  C   LIG    1       -6.712  -5.380  -2.549  0.00  0.00    +0.510 C 
ATOM     21  F   LIG    1       -5.905  -5.016  -3.632  0.00  0.00    -0.170 F 
ATOM     22  F   LIG    1       -8.047  -5.080  -2.841  0.00  0.00    -0.170 F 
ATOM     23  F   LIG    1       -6.583  -6.753  -2.313  0.00  0.00    -0.170 F 
ENDBRANCH  18  20
ENDBRANCH  13  14
BRANCH  12  24
ATOM     24  N   LIG    1       -2.423   1.045  -0.099  0.00  0.00    -0.620 N 
ATOM     25  H   LIG    1       -2.410   0.076  -0.124  0.00  0.00    +0.430 HD
BRANCH  24  26
ATOM     26  C   LIG    1       -1.223   1.762  -0.136  0.00  0.00    +0.150 A 
ATOM     27  C   LIG    1       -0.011   1.087  -0.210  0.00  0.00    +0.000 A 
ATOM     28  C   LIG    1        1.172   1.797  -0.253  0.00  0.00    +0.070 A 
ATOM     29  C   LIG    1        1.152   3.180  -0.217  0.00  0.00    -0.060 A 
ATOM     30  C   LIG    1       -0.054   3.856  -0.138  0.00  0.00    +0.070 A 
ATOM     31 CL   LIG    1        2.641   4.070  -0.271  0.00  0.00    -0.060 Cl
ATOM     32  C   LIG    1       -1.240   3.150  -0.095  0.00  0.00    -0.010 A 
ENDBRANCH  24  26
ENDBRANCH  12  24
TORSDOF 4
