REMARK  Name = ZINCvU0000000IDR.0
REMARK                            x       y       z     vdW  Elec       q    Type
REMARK                         _______ _______ _______ _____ _____    ______ ____
ROOT
ATOM      1  C   LIG    1        7.412  -0.038  -0.253  0.00  0.00    +0.520 C 
ATOM      2  O   LIG    1        7.501   1.170  -0.346  0.00  0.00    -0.480 OA
ENDROOT
BRANCH   1   3
ATOM      3  C   LIG    1        8.633  -0.871  -0.252  0.00  0.00    -0.060 A 
ATOM      4  C   LIG    1        9.283  -1.186   0.944  0.00  0.00    -0.070 A 
ATOM      5  C   LIG    1        8.666  -0.658   2.215  0.00  0.00    +0.070 C 
ATOM      6  C   LIG    1        9.723  -0.431   3.296  0.00  0.00    +0.030 C 
ATOM      7  C   LIG    1        9.837  -1.706   4.133  0.00  0.00    +0.010 C 
ATOM      8  C   LIG    1       10.272  -2.869   3.247  0.00  0.00    +0.030 C 
ATOM      9  C   LIG    1       11.198  -2.313   2.162  0.00  0.00    +0.110 C 
ATOM     10  C   LIG    1       10.425  -1.970   0.914  0.00  0.00    +0.170 A 
ATOM     11  N   LIG    1       10.898  -2.441  -0.225  0.00  0.00    -0.460 NA
ATOM     12  C   LIG    1       10.335  -2.177  -1.403  0.00  0.00    +0.140 A 
ATOM     13  C   LIG    1       10.873  -2.686  -2.599  0.00  0.00    +0.060 A 
ATOM     14  C   LIG    1       10.277  -2.391  -3.786  0.00  0.00    +0.040 A 
ATOM     15  C   LIG    1        9.138  -1.590  -3.840  0.00  0.00    +0.030 A 
ATOM     16  C   LIG    1        8.588  -1.081  -2.701  0.00  0.00    +0.010 A 
ATOM     17  C   LIG    1        9.170  -1.373  -1.461  0.00  0.00    -0.070 A 
ENDBRANCH   1   3
BRANCH   1  18
ATOM     18  O   LIG    1        6.201  -0.618  -0.151  0.00  0.00    -0.330 OA
BRANCH  18  19
ATOM     19  C   LIG    1        5.046   0.262  -0.159  0.00  0.00    +0.240 C 
BRANCH  19  21
ATOM     20  O   LIG    1        3.858  -1.768   0.048  0.00  0.00    -0.420 OA
ATOM     21  C   LIG    1        3.788  -0.559  -0.037  0.00  0.00    +0.400 C 
BRANCH  21  22
ATOM     22  C   LIG    1        2.479   0.102  -0.021  0.00  0.00    -0.170 A 
ATOM     23  C   LIG    1        2.384   1.491  -0.001  0.00  0.00    +0.090 A 
ATOM     24  C   LIG    1        1.144   2.113   0.015  0.00  0.00    -0.010 A 
ATOM     25  C   LIG    1       -0.017   1.401   0.010  0.00  0.00    +0.070 A 
ATOM     26  C   LIG    1        0.002  -0.004  -0.011  0.00  0.00    -0.070 A 
ATOM     27  C   LIG    1       -1.188  -0.751  -0.016  0.00  0.00    +0.030 A 
ATOM     28  C   LIG    1       -1.130  -2.111  -0.036  0.00  0.00    +0.010 A 
ATOM     29  C   LIG    1        0.093  -2.776  -0.052  0.00  0.00    +0.030 A 
ATOM     30  C   LIG    1        1.268  -2.082  -0.047  0.00  0.00    +0.040 A 
ATOM     31  C   LIG    1        1.244  -0.684  -0.027  0.00  0.00    -0.010 A 
ENDBRANCH  21  22
ENDBRANCH  19  21
ENDBRANCH  18  19
ENDBRANCH   1  18
TORSDOF 5
