REMARK  Name = ZINCqH0000036mTf.0
REMARK                            x       y       z     vdW  Elec       q    Type
REMARK                         _______ _______ _______ _____ _____    ______ ____
ROOT
ATOM      1  C   LIG    1       -3.829   1.196   4.348  0.00  0.00    +0.350 C 
ENDROOT
BRANCH   1   2
ATOM      2  N   LIG    1       -5.216   0.883   3.999  0.00  0.00    -0.450 N 
ATOM      3  C   LIG    1       -6.338   1.581   4.399  0.00  0.00    +0.080 A 
ATOM      4  C   LIG    1       -6.547   2.712   5.176  0.00  0.00    +0.020 A 
ATOM      5  C   LIG    1       -7.831   3.171   5.384  0.00  0.00    +0.060 A 
ATOM      6  C   LIG    1       -8.913   2.512   4.817  0.00  0.00    +0.010 A 
ATOM      7  C   LIG    1       -8.726   1.401   4.045  0.00  0.00    +0.090 A 
ATOM      8  C   LIG    1       -7.434   0.918   3.821  0.00  0.00    +0.040 A 
ATOM      9  N   LIG    1       -6.936  -0.133   3.120  0.00  0.00    -0.420 NA
ATOM     10  C   LIG    1       -5.639  -0.153   3.225  0.00  0.00    +0.190 A 
BRANCH  10  11
ATOM     11  C   LIG    1       -4.737  -1.175   2.582  0.00  0.00    +0.560 C 
ATOM     12  F   LIG    1       -4.280  -2.071   3.554  0.00  0.00    -0.160 F 
ATOM     13  F   LIG    1       -3.644  -0.528   1.994  0.00  0.00    -0.160 F 
ATOM     14  F   LIG    1       -5.448  -1.873   1.601  0.00  0.00    -0.140 F 
ENDBRANCH  10  11
ENDBRANCH   1   2
BRANCH   1  16
ATOM     15  N   LIG    1       -1.973   2.549   3.429  0.00  0.00    -0.560 N 
ATOM     16  C   LIG    1       -3.247   2.124   3.313  0.00  0.00    +0.500 C 
ATOM     17  O   LIG    1       -3.925   2.488   2.376  0.00  0.00    -0.500 OA
ATOM     18  C   LIG    1       -1.154   2.109   4.561  0.00  0.00    +0.290 C 
BRANCH  15  24
ATOM     19  C   LIG    1       -0.787   2.893   1.346  0.00  0.00    +0.140 A 
ATOM     20  C   LIG    1       -0.259   3.750   0.396  0.00  0.00    -0.070 A 
ATOM     21  C   LIG    1       -0.368   5.119   0.562  0.00  0.00    +0.060 A 
ATOM     22  C   LIG    1       -1.004   5.635   1.676  0.00  0.00    -0.020 A 
ATOM     23  C   LIG    1       -1.533   4.786   2.630  0.00  0.00    +0.060 A 
ATOM     24  C   LIG    1       -1.432   3.412   2.467  0.00  0.00    +0.100 A 
BRANCH  19  26
ATOM     25  C   LIG    1       -0.013   1.086   0.008  0.00  0.00    +0.250 C 
ATOM     26  O   LIG    1       -0.682   1.547   1.184  0.00  0.00    -0.310 OA
ENDBRANCH  19  26
ENDBRANCH  15  24
ENDBRANCH   1  16
TORSDOF 5
