REMARK  Name = ZINCtV00001bB3AW.0
REMARK                            x       y       z     vdW  Elec       q    Type
REMARK                         _______ _______ _______ _____ _____    ______ ____
ROOT
ATOM      1  C   LIG    1        1.325   1.958  -1.127  0.00  0.00    -0.170 A 
ATOM      2  C   LIG    1        2.024   0.924  -1.685  0.00  0.00    +0.300 A 
ATOM      3  N   LIG    1        1.143  -0.039  -2.029  0.00  0.00    -0.310 N 
ATOM      4  N   LIG    1       -0.150   0.372  -1.690  0.00  0.00    -0.260 NA
ATOM      5  C   LIG    1       -0.087   1.568  -1.145  0.00  0.00    +0.140 A 
ENDROOT
BRANCH   3   6
ATOM      6  C   LIG    1        1.472  -1.260  -2.631  0.00  0.00    +0.150 A 
ATOM      7  C   LIG    1        2.796  -1.555  -2.926  0.00  0.00    -0.010 A 
ATOM      8  C   LIG    1        3.119  -2.762  -3.515  0.00  0.00    +0.050 A 
ATOM      9  C   LIG    1        2.123  -3.671  -3.821  0.00  0.00    +0.010 A 
ATOM     10  C   LIG    1        0.802  -3.378  -3.533  0.00  0.00    +0.040 A 
ATOM     11  C   LIG    1        0.474  -2.175  -2.939  0.00  0.00    +0.020 A 
ENDBRANCH   3   6
BRANCH   5  12
ATOM     12  C   LIG    1       -1.229   2.372  -0.649  0.00  0.00    +0.030 A 
ATOM     13  C   LIG    1       -1.137   3.088   0.549  0.00  0.00    -0.010 A 
ATOM     14  C   LIG    1       -2.222   3.828   0.971  0.00  0.00    +0.260 A 
ATOM     15  N   LIG    1       -3.338   3.855   0.268  0.00  0.00    -0.480 NA
ATOM     16  C   LIG    1       -3.468   3.190  -0.864  0.00  0.00    +0.260 A 
ATOM     17  C   LIG    1       -2.431   2.429  -1.362  0.00  0.00    +0.000 A 
ENDBRANCH   5  12
BRANCH   1  19
ATOM     18  N   LIG    1        3.150   3.473  -0.741  0.00  0.00    -0.230 NA
ATOM     19  C   LIG    1        1.884   3.221  -0.609  0.00  0.00    +0.260 C 
BRANCH  18  20
ATOM     20  N   LIG    1        3.700   4.624  -0.162  0.00  0.00    -0.580 N 
ATOM     21  H   LIG    1        3.123   5.268   0.277  0.00  0.00    +0.400 HD
BRANCH  20  30
ATOM     22 CL   LIG    1        5.346   2.156   0.057  0.00  0.00    -0.030 Cl
ATOM     23  C   LIG    1        5.958   3.771  -0.125  0.00  0.00    -0.050 A 
ATOM     24  C   LIG    1        7.321   3.991  -0.185  0.00  0.00    +0.100 A 
ATOM     25  C   LIG    1        7.811   5.278  -0.323  0.00  0.00    -0.110 A 
ATOM     26  C   LIG    1        6.937   6.348  -0.408  0.00  0.00    +0.110 A 
ATOM     27  C   LIG    1        5.573   6.135  -0.355  0.00  0.00    -0.070 A 
ATOM     28 CL   LIG    1        4.479   7.478  -0.462  0.00  0.00    -0.040 Cl
ATOM     29 BR   LIG    1        9.677   5.575  -0.396  0.00  0.00    -0.020 Br
ATOM     30  C   LIG    1        5.078   4.843  -0.216  0.00  0.00    +0.250 A 
ENDBRANCH  20  30
ENDBRANCH  18  20
ENDBRANCH   1  19
TORSDOF 5
