REMARK  Name = ZINCqH0000036hux.0
REMARK                            x       y       z     vdW  Elec       q    Type
REMARK                         _______ _______ _______ _____ _____    ______ ____
ROOT
ATOM      1  N   LIG    1       -3.930   2.832   0.234  0.00  0.00    -0.640 NA
ATOM      2  H   LIG    1       -4.849   2.591  -0.104  0.00  0.00    +0.350 HD
ENDROOT
BRANCH   1   3
ATOM      3  C   LIG    1       -3.345   3.920  -0.561  0.00  0.00    +0.190 C 
ATOM      4  C   LIG    1       -2.385   4.730   0.312  0.00  0.00    +0.040 C 
BRANCH   3  10
ATOM      5  C   LIG    1       -4.439   5.244  -2.387  0.00  0.00    +0.150 A 
ATOM      6  C   LIG    1       -5.451   6.072  -2.851  0.00  0.00    -0.090 A 
ATOM      7  C   LIG    1       -6.464   6.471  -2.000  0.00  0.00    +0.070 A 
ATOM      8  C   LIG    1       -6.471   6.048  -0.685  0.00  0.00    -0.060 A 
ATOM      9  C   LIG    1       -5.463   5.216  -0.217  0.00  0.00    +0.170 A 
ATOM     10  C   LIG    1       -4.443   4.818  -1.067  0.00  0.00    -0.160 A 
BRANCH   5  12
ATOM     11  C   LIG    1       -3.502   5.328  -4.571  0.00  0.00    +0.250 C 
ATOM     12  O   LIG    1       -3.443   4.851  -3.225  0.00  0.00    -0.320 OA
ENDBRANCH   5  12
BRANCH   9  13
ATOM     13  O   LIG    1       -5.473   4.795   1.075  0.00  0.00    -0.470 OA
ATOM     14  H   LIG    1       -5.004   5.382   1.684  0.00  0.00    +0.390 HD
ENDBRANCH   9  13
ENDBRANCH   3  10
ENDBRANCH   1   3
BRANCH   1  15
ATOM     15  C   LIG    1       -3.049   1.656   0.247  0.00  0.00    +0.280 C 
BRANCH  15  16
ATOM     16  C   LIG    1       -3.868   0.417   0.503  0.00  0.00    -0.120 A 
ATOM     17  C   LIG    1       -5.119   0.523   1.081  0.00  0.00    +0.090 A 
ATOM     18  C   LIG    1       -5.870  -0.613   1.315  0.00  0.00    +0.000 A 
ATOM     19  C   LIG    1       -5.371  -1.856   0.974  0.00  0.00    +0.040 A 
ATOM     20  C   LIG    1       -4.120  -1.964   0.396  0.00  0.00    -0.020 A 
ATOM     21  C   LIG    1       -3.369  -0.827   0.155  0.00  0.00    +0.100 A 
ATOM     22  F   LIG    1       -2.149  -0.930  -0.415  0.00  0.00    -0.140 F 
ENDBRANCH  15  16
BRANCH  15  23
ATOM     23  C   LIG    1       -2.019   1.812   1.337  0.00  0.00    +0.220 A 
ATOM     24  N   LIG    1       -2.256   2.211   2.556  0.00  0.00    -0.450 NA
ATOM     25  C   LIG    1       -1.106   2.236   3.245  0.00  0.00    +0.140 A 
ATOM     26  C   LIG    1       -0.119   1.831   2.423  0.00  0.00    +0.110 A 
ATOM     27  N   LIG    1       -0.698   1.558   1.213  0.00  0.00    -0.460 N 
ATOM     28  C   LIG    1       -0.013   1.086   0.008  0.00  0.00    +0.320 C 
ENDBRANCH  15  23
ENDBRANCH   1  15
TORSDOF 7
