REMARK  Name = ZINCpe000000X9mj.0
REMARK                            x       y       z     vdW  Elec       q    Type
REMARK                         _______ _______ _______ _____ _____    ______ ____
ROOT
ATOM      1  N   LIG    1       -4.391  -2.210  -3.639  0.00  0.00    -0.600 N 
ATOM      2  C   LIG    1       -5.618  -1.452  -3.911  0.00  0.00    +0.410 C 
ATOM      3  C   LIG    1       -6.711  -2.475  -4.092  0.00  0.00    +0.080 A 
ATOM      4  C   LIG    1       -6.122  -3.714  -3.929  0.00  0.00    -0.300 A 
ATOM      5  C   LIG    1       -7.141  -4.680  -4.097  0.00  0.00    +0.330 A 
ATOM      6  N   LIG    1       -8.258  -4.052  -4.343  0.00  0.00    -0.280 NA
ATOM      7  N   LIG    1       -8.013  -2.674  -4.344  0.00  0.00    -0.280 N 
ATOM      8  C   LIG    1       -4.690  -3.521  -3.656  0.00  0.00    +0.600 C 
ATOM      9  O   LIG    1       -3.891  -4.419  -3.470  0.00  0.00    -0.520 OA
ENDROOT
BRANCH   7  10
ATOM     10  C   LIG    1       -8.967  -1.671  -4.570  0.00  0.00    +0.130 A 
ATOM     11  C   LIG    1       -8.882  -0.465  -3.889  0.00  0.00    +0.010 A 
ATOM     12  C   LIG    1       -9.820   0.523  -4.117  0.00  0.00    +0.040 A 
ATOM     13  C   LIG    1      -10.849   0.307  -5.016  0.00  0.00    +0.020 A 
ATOM     14  C   LIG    1      -10.939  -0.896  -5.692  0.00  0.00    +0.040 A 
ATOM     15  C   LIG    1      -10.000  -1.886  -5.472  0.00  0.00    +0.040 A 
ENDBRANCH   7  10
BRANCH   1  16
ATOM     16  C   LIG    1       -3.065  -1.637  -3.395  0.00  0.00    +0.370 C 
BRANCH  16  22
ATOM     17  C   LIG    1        0.752  -0.540   1.223  0.00  0.00    +0.040 C 
ATOM     18  C   LIG    1        0.002  -0.004   0.002  0.00  0.00    +0.120 C 
ATOM     19  C   LIG    1        0.637  -0.537  -1.310  0.00  0.00    +0.020 C 
ATOM     20  C   LIG    1       -0.575  -0.482  -2.281  0.00  0.00    +0.260 C 
ATOM     21  N   LIG    1       -1.738  -0.861  -1.457  0.00  0.00    -0.620 N 
ATOM     22  C   LIG    1       -2.889  -1.389  -1.919  0.00  0.00    +0.510 C 
ATOM     23  O   LIG    1       -3.782  -1.665  -1.147  0.00  0.00    -0.520 OA
ATOM     24  C   LIG    1       -1.433  -0.569  -0.049  0.00  0.00    +0.280 C 
BRANCH  18  25
ATOM     25  O   LIG    1       -0.017   1.425   0.010  0.00  0.00    -0.550 OA
ATOM     26  H   LIG    1        0.861   1.830   0.004  0.00  0.00    +0.380 HD
ENDBRANCH  18  25
ENDBRANCH  16  22
ENDBRANCH   1  16
TORSDOF 4
