REMARK  Name = ZINCb80000002oT0.0
REMARK                            x       y       z     vdW  Elec       q    Type
REMARK                         _______ _______ _______ _____ _____    ______ ____
ROOT
ATOM      1  N   LIG    1        0.002  -0.004   0.002  0.00  0.00    -0.620 N 
ATOM      2  C   LIG    1        1.376  -0.518  -0.024  0.00  0.00    +0.270 C 
ATOM      3  C   LIG    1        2.269   0.668   0.404  0.00  0.00    +0.010 C 
ATOM      4  C   LIG    1        1.397   1.879  -0.001  0.00  0.00    +0.070 C 
ATOM      5  C   LIG    1       -0.016   1.340   0.009  0.00  0.00    +0.520 C 
ATOM      6  O   LIG    1       -1.020   2.021   0.018  0.00  0.00    -0.530 OA
ENDROOT
BRANCH   1   8
ATOM      7  C   LIG    1       -2.007  -0.558   1.282  0.00  0.00    +0.030 C 
ATOM      8  C   LIG    1       -1.196  -0.847   0.017  0.00  0.00    +0.240 C 
ATOM      9  C   LIG    1       -2.049  -0.544  -1.216  0.00  0.00    +0.030 C 
ENDBRANCH   1   8
BRANCH   3  10
ATOM     10  C   LIG    1        2.516   0.651   1.913  0.00  0.00    +0.180 C 
BRANCH  10  11
ATOM     11  O   LIG    1        3.436   1.690   2.257  0.00  0.00    -0.570 OA
ATOM     12  H   LIG    1        3.639   1.738   3.201  0.00  0.00    +0.380 HD
ENDBRANCH  10  11
ENDBRANCH   3  10
TORSDOF 3
