REMARK  Name = ZINCqH000000507F.0
REMARK                            x       y       z     vdW  Elec       q    Type
REMARK                         _______ _______ _______ _____ _____    ______ ____
ROOT
ATOM      1  C   LIG    1       -1.224   3.316   0.152  0.00  0.00    +0.120 A 
ATOM      2  C   LIG    1       -0.060   4.078   0.146  0.00  0.00    +0.020 A 
ATOM      3  C   LIG    1        1.169   3.436   0.088  0.00  0.00    +0.120 A 
ATOM      4  C   LIG    1        1.191   2.054   0.040  0.00  0.00    +0.000 A 
ATOM      5  C   LIG    1       -0.012   1.352   0.050  0.00  0.00    +0.310 A 
ATOM      6  N   LIG    1       -1.165   1.990   0.099  0.00  0.00    -0.510 NA
ENDROOT
BRANCH   1   9
ATOM      7  N   LIG    1       -3.674   3.259   0.220  0.00  0.00    -0.710 N 
ATOM      8  H   LIG    1       -3.625   2.291   0.185  0.00  0.00    +0.410 HD
ATOM      9  C   LIG    1       -2.542   3.991   0.213  0.00  0.00    +0.570 C 
ATOM     10  O   LIG    1       -2.602   5.204   0.257  0.00  0.00    -0.530 OA
BRANCH   7  11
ATOM     11  C   LIG    1       -4.977   3.926   0.280  0.00  0.00    +0.260 C 
BRANCH  11  12
ATOM     12  C   LIG    1       -6.088   2.874   0.275  0.00  0.00    +0.040 C 
BRANCH  12  13
ATOM     13  C   LIG    1       -7.449   3.571   0.337  0.00  0.00    +0.060 C 
BRANCH  13  16
ATOM     14  C   LIG    1      -10.899   1.913   0.378  0.00  0.00    +0.290 C 
ATOM     15  N   LIG    1       -9.835   2.919   0.382  0.00  0.00    -0.620 N 
ATOM     16  C   LIG    1       -8.544   2.535   0.333  0.00  0.00    +0.510 C 
ATOM     17  O   LIG    1       -8.264   1.356   0.284  0.00  0.00    -0.540 OA
ATOM     18  C   LIG    1      -10.174   4.343   0.441  0.00  0.00    +0.280 C 
ENDBRANCH  13  16
ENDBRANCH  12  13
ENDBRANCH  11  12
ENDBRANCH   7  11
ENDBRANCH   1   9
BRANCH   5  19
ATOM     19  O   LIG    1        0.002  -0.004   0.002  0.00  0.00    -0.240 OA
BRANCH  19  20
ATOM     20  C   LIG    1       -1.184  -0.659   0.114  0.00  0.00    +0.110 A 
ATOM     21  C   LIG    1       -2.050  -0.716  -0.967  0.00  0.00    +0.040 A 
ATOM     22  C   LIG    1       -3.256  -1.382  -0.852  0.00  0.00    +0.070 A 
ATOM     23  C   LIG    1       -3.599  -1.992   0.342  0.00  0.00    -0.030 A 
ATOM     24  C   LIG    1       -2.735  -1.935   1.423  0.00  0.00    -0.020 A 
ATOM     25 CL   LIG    1       -3.168  -2.700   2.920  0.00  0.00    -0.040 Cl
ATOM     26 CL   LIG    1       -5.114  -2.827   0.485  0.00  0.00    -0.040 Cl
ATOM     27  C   LIG    1       -1.526  -1.276   1.309  0.00  0.00    +0.050 A 
ENDBRANCH  19  20
ENDBRANCH   5  19
TORSDOF 7
