REMARK  Name = ZINCpe000000Vpyh.0
REMARK                            x       y       z     vdW  Elec       q    Type
REMARK                         _______ _______ _______ _____ _____    ______ ____
ROOT
ATOM      1  N   LIG    1        0.365   3.308   2.625  0.00  0.00    -0.640 NA
ATOM      2  H   LIG    1        0.824   4.173   2.869  0.00  0.00    +0.370 HD
ENDROOT
BRANCH   1   3
ATOM      3  C   LIG    1        0.251   2.425   3.794  0.00  0.00    +0.160 C 
ATOM      4  C   LIG    1       -0.980   1.530   3.637  0.00  0.00    +0.060 C 
ATOM      5  C   LIG    1       -1.236   0.820   4.973  0.00  0.00    +0.030 C 
ATOM      6  C   LIG    1       -1.665   1.862   6.006  0.00  0.00    +0.270 C 
ATOM      7  N   LIG    1       -0.726   2.977   6.027  0.00  0.00    -0.510 N 
ATOM      8  C   LIG    1        0.123   3.257   5.037  0.00  0.00    +0.520 C 
ATOM      9  O   LIG    1        0.831   4.236   5.148  0.00  0.00    -0.530 OA
BRANCH   7  10
ATOM     10  C   LIG    1       -0.715   3.810   7.161  0.00  0.00    -0.010 A 
ATOM     11  C   LIG    1       -1.562   3.731   8.219  0.00  0.00    +0.200 A 
ATOM     12  N   LIG    1       -1.217   4.710   9.095  0.00  0.00    -0.380 N 
ATOM     13  N   LIG    1       -0.128   5.406   8.554  0.00  0.00    -0.290 NA
ATOM     14  C   LIG    1       -1.868   4.989  10.377  0.00  0.00    +0.370 C 
ATOM     15  C   LIG    1        0.176   4.866   7.402  0.00  0.00    +0.270 A 
ENDBRANCH   7  10
ENDBRANCH   1   3
BRANCH   1  16
ATOM     16  C   LIG    1        1.062   2.634   1.522  0.00  0.00    +0.220 C 
BRANCH  16  17
ATOM     17  C   LIG    1        2.550   2.801   1.692  0.00  0.00    +0.420 C 
ATOM     18  O   LIG    1        2.985   3.728   2.335  0.00  0.00    -0.490 OA
BRANCH  17  20
ATOM     19  C   LIG    1        4.813   2.145   1.334  0.00  0.00    +0.250 C 
ATOM     20  O   LIG    1        3.393   1.922   1.129  0.00  0.00    -0.360 OA
ENDBRANCH  17  20
ENDBRANCH  16  17
BRANCH  16  21
ATOM     21  C   LIG    1        0.628   3.252   0.191  0.00  0.00    +0.140 C 
BRANCH  21  22
ATOM     22  C   LIG    1       -0.836   2.977  -0.036  0.00  0.00    -0.170 A 
ATOM     23  C   LIG    1       -1.866   3.750   0.351  0.00  0.00    +0.190 A 
ATOM     24  O   LIG    1       -3.009   3.161  -0.039  0.00  0.00    -0.180 OA
ATOM     25  C   LIG    1       -2.726   2.013  -0.675  0.00  0.00    +0.150 A 
ATOM     26  C   LIG    1       -1.390   1.857  -0.698  0.00  0.00    -0.060 A 
ENDBRANCH  21  22
ENDBRANCH  16  21
ENDBRANCH   1  16
TORSDOF 7
