REMARK  Name = ZINCrg000000t3in.1
REMARK                            x       y       z     vdW  Elec       q    Type
REMARK                         _______ _______ _______ _____ _____    ______ ____
ROOT
ATOM      1  C   LIG    1        0.126   1.999  -0.065  0.00  0.00    -0.690 A 
ATOM      2  C   LIG    1        1.265   2.780  -0.133  0.00  0.00    +0.120 A 
ATOM      3  C   LIG    1        1.153   4.154  -0.162  0.00  0.00    -0.020 A 
ATOM      4  C   LIG    1       -0.096   4.762  -0.120  0.00  0.00    -0.010 A 
ATOM      5  C   LIG    1       -0.145   6.267  -0.161  0.00  0.00    +0.080 C 
ATOM      6  C   LIG    1       -1.504   6.772   0.320  0.00  0.00    +0.020 C 
ATOM      7  C   LIG    1       -2.598   6.029  -0.456  0.00  0.00    -0.010 C 
ATOM      8  C   LIG    1       -2.615   4.574   0.009  0.00  0.00    +0.220 C 
ATOM      9  C   LIG    1       -1.230   3.984  -0.048  0.00  0.00    -0.100 A 
ATOM     10  C   LIG    1       -1.115   2.600  -0.029  0.00  0.00    +0.170 A 
ENDROOT
BRANCH   1  11
ATOM     11  S   LIG    1        0.259   0.243  -0.031  0.00  0.00    +2.700 S 
ATOM     12  O   LIG    1        1.510  -0.077  -0.625  0.00  0.00    -0.960 OA
ATOM     13  O   LIG    1       -0.980  -0.263  -0.509  0.00  0.00    -0.960 OA
BRANCH  11  14
ATOM     14  N   LIG    1        0.367  -0.210   1.558  0.00  0.00    -1.250 NA
ATOM     15  H   LIG    1        0.448  -1.149   1.791  0.00  0.00    +0.420 HD
ATOM     16  H   LIG    1        0.349   0.463   2.257  0.00  0.00    +0.420 HD
ENDBRANCH  11  14
ENDBRANCH   1  11
BRANCH   8  17
ATOM     17  N   LIG    1       -3.508   3.798  -0.860  0.00  0.00    -0.670 NA
ATOM     18  H   LIG    1       -3.437   4.105  -1.819  0.00  0.00    +0.360 HD
BRANCH  17  19
ATOM     19  C   LIG    1       -4.897   3.870  -0.387  0.00  0.00    +0.140 C 
ATOM     20  C   LIG    1       -5.184   2.736   0.624  0.00  0.00    +0.060 C 
ATOM     21  C   LIG    1       -6.642   2.365   0.277  0.00  0.00    +0.250 C 
ATOM     22  N   LIG    1       -6.822   2.755  -1.127  0.00  0.00    -0.610 N 
ATOM     23  C   LIG    1       -5.859   3.605  -1.524  0.00  0.00    +0.520 C 
ATOM     24  O   LIG    1       -5.774   4.089  -2.633  0.00  0.00    -0.520 OA
BRANCH  22  25
ATOM     25  C   LIG    1       -7.911   2.281  -1.984  0.00  0.00    +0.250 C 
ATOM     26  C   LIG    1       -7.327   1.543  -3.193  0.00  0.00    -0.000 C 
ATOM     27  C   LIG    1       -8.468   1.122  -4.123  0.00  0.00    +0.220 C 
ATOM     28  O   LIG    1       -9.212   2.277  -4.518  0.00  0.00    -0.380 OA
ATOM     29  C   LIG    1       -9.820   2.978  -3.432  0.00  0.00    +0.220 C 
ATOM     30  C   LIG    1       -8.734   3.476  -2.475  0.00  0.00    -0.010 C 
ENDBRANCH  22  25
ENDBRANCH  17  19
ENDBRANCH   8  17
TORSDOF 5
