REMARK  Name = ZINCrD000000BUEQ.0
REMARK                            x       y       z     vdW  Elec       q    Type
REMARK                         _______ _______ _______ _____ _____    ______ ____
ROOT
ATOM      1  O   UNK A  0       -2.684   3.298   0.018  0.00  0.00    -0.530 OA
ATOM      2  C   UNK A  0       -3.040   2.274   0.569  0.00  0.00    +0.700 C 
ATOM      3  N   TRP A  1       -2.141   1.513   1.224  0.00  0.00    -0.720 N 
ATOM      4  H   TRP A  1       -2.425   0.696   1.663  0.00  0.00    +0.400 HD
ATOM      5  N   UNK A  0       -4.334   1.899   0.524  0.00  0.00    -0.670 N 
ATOM      6  H   UNK A  0       -4.605   1.047   0.899  0.00  0.00    +0.420 HD
ENDROOT
BRANCH   5   7
ATOM      7  C   UNK A  0       -5.282   2.737  -0.061  0.00  0.00    +0.390 A 
ATOM      8  C   UNK A  0       -6.628   2.394  -0.011  0.00  0.00    -0.020 A 
ATOM      9  C   UNK A  0       -7.559   3.235  -0.596  0.00  0.00    -0.110 A 
ATOM     10  C   UNK A  0       -7.109   4.394  -1.213  0.00  0.00    -0.010 A 
ATOM     11  C   UNK A  0       -5.756   4.672  -1.226  0.00  0.00    +0.310 A 
ATOM     12  N   UNK A  0       -4.893   3.854  -0.656  0.00  0.00    -0.450 NA
BRANCH   9  13
ATOM     13  C   UNK A  0       -9.028   2.900  -0.563  0.00  0.00    +0.510 C 
ATOM     14  F   UNK A  0       -9.189   1.510  -0.546  0.00  0.00    -0.170 F 
ATOM     15  F   UNK A  0       -9.652   3.427  -1.699  0.00  0.00    -0.170 F 
ATOM     16  F   UNK A  0       -9.607   3.450   0.585  0.00  0.00    -0.170 F 
ENDBRANCH   9  13
ENDBRANCH   5   7
BRANCH   3  17
ATOM     17  CA  TRP A  1       -0.734   1.920   1.273  0.00  0.00    +0.270 C 
BRANCH  17  18
ATOM     18  CB  TRP A  1       -0.070   1.314   2.511  0.00  0.00    +0.130 C 
BRANCH  18  19
ATOM     19  CG  TRP A  1       -0.697   1.894   3.752  0.00  0.00    -0.170 A 
ATOM     20  CD1 TRP A  1       -0.241   2.937   4.464  0.00  0.00    +0.230 A 
ATOM     21  NE1 TRP A  1       -1.073   3.178   5.523  0.00  0.00    -0.590 N 
ATOM     22  HE1 TRP A  1       -0.951   3.884   6.178  0.00  0.00    +0.420 HD
ATOM     23  CE2 TRP A  1       -2.106   2.268   5.524  0.00  0.00    +0.090 A 
ATOM     24  CZ2 TRP A  1       -3.200   2.062   6.358  0.00  0.00    -0.010 A 
ATOM     25  CH2 TRP A  1       -4.082   1.038   6.089  0.00  0.00    +0.020 A 
ATOM     26  CZ3 TRP A  1       -3.890   0.208   4.993  0.00  0.00    -0.020 A 
ATOM     27  CE3 TRP A  1       -2.822   0.392   4.161  0.00  0.00    +0.040 A 
ATOM     28  CD2 TRP A  1       -1.916   1.424   4.415  0.00  0.00    -0.090 A 
ENDBRANCH  18  19
ENDBRANCH  17  18
BRANCH  17  29
ATOM     29  C   TRP A  1       -0.017   1.427   0.015  0.00  0.00    +0.170 C 
BRANCH  29  30
ATOM     30  O   TRP A  1        0.004  -0.002   0.008  0.00  0.00    -0.570 OA
ATOM     31  H   TRP A  1        0.444  -0.386  -0.762  0.00  0.00    +0.380 HD
ENDBRANCH  29  30
ENDBRANCH  17  29
ENDBRANCH   3  17
TORSDOF 7
