REMARK  Name = ZINCpe000000Zt6N.0
REMARK                            x       y       z     vdW  Elec       q    Type
REMARK                         _______ _______ _______ _____ _____    ______ ____
ROOT
ATOM      1  O   LIG    1       -0.306   4.057  -2.811  0.00  0.00    -0.520 OA
ATOM      2  C   LIG    1       -0.741   4.392  -1.730  0.00  0.00    +0.520 C 
ATOM      3  N   LIG    1       -1.062   3.458  -0.813  0.00  0.00    -0.610 N 
ATOM      4  C   LIG    1       -0.893   2.026  -1.103  0.00  0.00    +0.300 C 
ATOM      5  C   LIG    1       -0.097   1.388   0.041  0.00  0.00    +0.180 C 
ATOM      6  N   LIG    1       -0.756   1.689   1.319  0.00  0.00    -0.510 NA
ATOM      7  C   LIG    1       -0.767   3.134   1.586  0.00  0.00    +0.180 C 
ATOM      8  C   LIG    1       -1.590   3.843   0.505  0.00  0.00    +0.280 C 
ENDROOT
BRANCH   2   9
ATOM      9  C   LIG    1       -0.923   5.854  -1.411  0.00  0.00    +0.150 C 
ATOM     10  C   LIG    1       -2.423   6.189  -1.257  0.00  0.00    +0.030 C 
ATOM     11  C   LIG    1       -2.560   7.596  -1.879  0.00  0.00    +0.010 C 
ATOM     12  C   LIG    1       -1.126   7.945  -2.337  0.00  0.00    +0.200 C 
ATOM     13  O   LIG    1       -0.472   6.669  -2.515  0.00  0.00    -0.340 OA
ENDBRANCH   2   9
BRANCH   6  14
ATOM     14  C   LIG    1       -0.123   0.955   2.423  0.00  0.00    +0.270 C 
BRANCH  14  15
ATOM     15  C   LIG    1        1.300   1.423   2.588  0.00  0.00    +0.490 C 
ATOM     16  N   LIG    1        2.065   0.918   3.575  0.00  0.00    -0.550 N 
ATOM     17  C   LIG    1        3.458   1.293   3.834  0.00  0.00    +0.260 C 
ATOM     18  C   LIG    1        3.883   0.452   5.048  0.00  0.00    +0.090 C 
ATOM     19  C   LIG    1        2.658  -0.363   5.395  0.00  0.00    -0.130 A 
ATOM     20  C   LIG    1        2.441  -1.294   6.393  0.00  0.00    +0.060 A 
ATOM     21  C   LIG    1        1.211  -1.915   6.508  0.00  0.00    -0.010 A 
ATOM     22  C   LIG    1        0.197  -1.602   5.622  0.00  0.00    +0.050 A 
ATOM     23  C   LIG    1        0.408  -0.673   4.625  0.00  0.00    -0.020 A 
ATOM     24  C   LIG    1        1.645  -0.038   4.506  0.00  0.00    +0.140 A 
ATOM     25  O   LIG    1        1.756   2.255   1.832  0.00  0.00    -0.510 OA
ENDBRANCH  14  15
ENDBRANCH   6  14
TORSDOF 3
