REMARK  Name = ZINCrH00000No53K.0
REMARK                            x       y       z     vdW  Elec       q    Type
REMARK                         _______ _______ _______ _____ _____    ______ ____
ROOT
ATOM      1  N   LIG    1        6.255   6.967  -0.021  0.00  0.00    -0.590 N 
ENDROOT
BRANCH   1   2
ATOM      2  C   LIG    1        6.179   7.665  -1.221  0.00  0.00    +0.380 A 
ATOM      3  C   LIG    1        6.128   6.973  -2.428  0.00  0.00    +0.160 A 
ATOM      4  N   LIG    1        6.056   7.639  -3.566  0.00  0.00    -0.380 NA
ATOM      5  C   LIG    1        6.033   8.961  -3.560  0.00  0.00    +0.170 A 
ATOM      6  C   LIG    1        6.084   9.652  -2.362  0.00  0.00    +0.180 A 
ATOM      7 CL   LIG    1        6.052  11.388  -2.361  0.00  0.00    -0.010 Cl
ATOM      8  N   LIG    1        6.151   8.992  -1.218  0.00  0.00    -0.490 NA
ENDBRANCH   1   2
BRANCH   1   9
ATOM      9  C   LIG    1        6.199   7.690   1.252  0.00  0.00    +0.300 C 
BRANCH   9  11
ATOM     10  C   LIG    1        8.201   9.070   0.677  0.00  0.00    +0.030 C 
ATOM     11  C   LIG    1        7.615   8.076   1.682  0.00  0.00    -0.030 C 
BRANCH  11  12
ATOM     12  C   LIG    1        7.570   8.720   3.069  0.00  0.00    -0.030 C 
ATOM     13  C   LIG    1        6.987   7.724   4.077  0.00  0.00    +0.010 C 
ATOM     14  C   LIG    1        7.019   8.351   5.474  0.00  0.00    -0.020 C 
ATOM     15  C   LIG    1        8.458   8.749   5.815  0.00  0.00    +0.200 C 
ATOM     16  O   LIG    1        8.949   9.652   4.822  0.00  0.00    -0.380 OA
ATOM     17  C   LIG    1        8.987   9.104   3.502  0.00  0.00    +0.220 C 
ENDBRANCH  11  12
ENDBRANCH   9  11
ENDBRANCH   1   9
BRANCH   1  18
ATOM     18  C   LIG    1        6.391   5.508  -0.029  0.00  0.00    +0.350 C 
BRANCH  18  19
ATOM     19  C   LIG    1        5.023   4.876  -0.020  0.00  0.00    -0.120 A 
ATOM     20  C   LIG    1        4.384   4.592  -1.212  0.00  0.00    +0.020 A 
ATOM     21  C   LIG    1        3.129   4.013  -1.204  0.00  0.00    +0.010 A 
ATOM     22  C   LIG    1        2.513   3.717  -0.002  0.00  0.00    -0.080 A 
ATOM     23  C   LIG    1        3.150   4.005   1.191  0.00  0.00    +0.010 A 
ATOM     24  C   LIG    1        4.406   4.581   1.182  0.00  0.00    +0.020 A 
BRANCH  22  25
ATOM     25  C   LIG    1        1.145   3.085   0.008  0.00  0.00    +0.080 C 
BRANCH  25  26
ATOM     26  C   LIG    1        1.286   1.562  -0.002  0.00  0.00    +0.180 C 
BRANCH  26  27
ATOM     27  O   LIG    1       -0.011   0.963   0.007  0.00  0.00    -0.580 OA
ATOM     28  H   LIG    1        0.002  -0.004   0.002  0.00  0.00    +0.380 HD
ENDBRANCH  26  27
ENDBRANCH  25  26
ENDBRANCH  22  25
ENDBRANCH  18  19
ENDBRANCH   1  18
TORSDOF 9
