REMARK  Name = ZINCrH000004ner7.0
REMARK                            x       y       z     vdW  Elec       q    Type
REMARK                         _______ _______ _______ _____ _____    ______ ____
ROOT
ATOM      1  C   LIG    1        3.703  -0.722  -0.034  0.00  0.00    +0.030 C 
ATOM      2  C   LIG    1        3.101  -1.629  -1.109  0.00  0.00    +0.070 C 
ENDROOT
BRANCH   1   8
ATOM      3  C   LIG    1        1.431   5.325  -0.077  0.00  0.00    +0.130 A 
ATOM      4  C   LIG    1        0.778   4.149   0.158  0.00  0.00    -0.030 A 
ATOM      5  C   LIG    1        1.491   2.939   0.118  0.00  0.00    -0.010 A 
ATOM      6  C   LIG    1        0.854   1.710   0.359  0.00  0.00    +0.010 A 
ATOM      7  C   LIG    1        1.575   0.556   0.306  0.00  0.00    +0.060 A 
ATOM      8  C   LIG    1        2.938   0.575   0.016  0.00  0.00    -0.080 A 
ATOM      9  C   LIG    1        3.588   1.747  -0.223  0.00  0.00    +0.040 A 
ATOM     10  C   LIG    1        2.877   2.958  -0.178  0.00  0.00    -0.080 A 
ATOM     11  C   LIG    1        3.516   4.187  -0.420  0.00  0.00    +0.070 A 
ATOM     12  C   LIG    1        2.798   5.341  -0.368  0.00  0.00    -0.060 A 
BRANCH   3  14
ATOM     13  C   LIG    1        1.477   7.692  -0.292  0.00  0.00    +0.250 C 
ATOM     14  O   LIG    1        0.741   6.495  -0.032  0.00  0.00    -0.320 OA
ENDBRANCH   3  14
ENDBRANCH   1   8
BRANCH   1  15
ATOM     15  C   LIG    1        3.619  -1.408   1.306  0.00  0.00    +0.520 C 
ATOM     16  N   LIG    1        4.519  -2.355   1.636  0.00  0.00    -0.620 N 
ATOM     17  C   LIG    1        5.649  -2.665   0.748  0.00  0.00    +0.300 C 
ATOM     18  C   LIG    1        6.942  -2.614   1.577  0.00  0.00    +0.200 C 
ATOM     19  N   LIG    1        6.807  -3.500   2.741  0.00  0.00    -0.450 N 
ATOM     20  C   LIG    1        5.733  -3.045   3.634  0.00  0.00    +0.220 C 
ATOM     21  C   LIG    1        4.394  -3.110   2.892  0.00  0.00    +0.300 C 
ATOM     22  O   LIG    1        2.741  -1.107   2.086  0.00  0.00    -0.520 OA
BRANCH  19  23
ATOM     23  C   LIG    1        8.008  -3.611   3.423  0.00  0.00    +0.220 A 
ATOM     24  N   LIG    1        8.174  -3.345   4.682  0.00  0.00    -0.520 NA
ATOM     25  C   LIG    1        9.390  -3.509   5.171  0.00  0.00    +0.240 A 
ATOM     26  C   LIG    1       10.294  -3.924   4.283  0.00  0.00    -0.100 A 
ATOM     27  S   LIG    1        9.488  -4.110   2.728  0.00  0.00    +0.140 S 
ENDBRANCH  19  23
ENDBRANCH   1  15
TORSDOF 4
