REMARK  Name = ZINCpk00000xI7Rz.0
REMARK                            x       y       z     vdW  Elec       q    Type
REMARK                         _______ _______ _______ _____ _____    ______ ____
ROOT
ATOM      1  C   LIG    1       -1.156  -0.694   0.009  0.00  0.00    +0.540 C 
ATOM      2  N   LIG    1        0.002  -0.004   0.002  0.00  0.00    -0.680 N 
ATOM      3  H   LIG    1        0.849  -0.478  -0.009  0.00  0.00    +0.410 HD
ATOM      4  C   LIG    1       -0.016   1.344   0.009  0.00  0.00    +0.700 C 
ATOM      5  N   LIG    1        1.142   2.033   0.002  0.00  0.00    -0.730 N 
ATOM      6  H   LIG    1        1.988   1.560  -0.009  0.00  0.00    +0.400 HD
ATOM      7  O   LIG    1       -1.077   1.937   0.018  0.00  0.00    -0.520 OA
ATOM      8  O   LIG    1       -2.214  -0.102   0.023  0.00  0.00    -0.440 OA
ENDROOT
BRANCH   1  10
ATOM      9  C   LIG    1       -0.989  -2.717   1.434  0.00  0.00    +0.100 C 
ATOM     10  C   LIG    1       -1.135  -2.201   0.001  0.00  0.00    +0.010 C 
BRANCH  10  11
ATOM     11  S   LIG    1       -2.680  -2.821  -0.709  0.00  0.00    +0.110 S 
BRANCH  11  12
ATOM     12  C   LIG    1       -2.333  -4.548  -0.737  0.00  0.00    +0.250 A 
ATOM     13  N   LIG    1       -1.227  -5.106  -0.336  0.00  0.00    -0.280 NA
ATOM     14  N   LIG    1       -1.348  -6.491  -0.520  0.00  0.00    -0.540 N 
ATOM     15  H   LIG    1       -0.679  -7.159  -0.307  0.00  0.00    +0.460 HD
ATOM     16  C   LIG    1       -2.566  -6.722  -1.053  0.00  0.00    +0.650 A 
ATOM     17  O   LIG    1       -3.025  -7.809  -1.355  0.00  0.00    -0.540 OA
ATOM     18  N   LIG    1       -3.182  -5.531  -1.192  0.00  0.00    -0.500 N 
BRANCH  18  19
ATOM     19  C   LIG    1       -4.527  -5.319  -1.733  0.00  0.00    +0.210 C 
ATOM     20  C   LIG    1       -5.387  -6.558  -1.993  0.00  0.00    +0.070 C 
ATOM     21  C   LIG    1       -4.791  -5.778  -3.168  0.00  0.00    +0.040 C 
ENDBRANCH  18  19
ENDBRANCH  11  12
ENDBRANCH  10  11
ENDBRANCH   1  10
BRANCH   5  22
ATOM     22  C   LIG    1        1.122   3.498   0.010  0.00  0.00    +0.340 C 
BRANCH  22  23
ATOM     23  C   LIG    1        2.536   4.020  -0.001  0.00  0.00    -0.110 A 
ATOM     24  C   LIG    1        3.193   4.258   1.192  0.00  0.00    +0.030 A 
ATOM     25  C   LIG    1        4.492   4.732   1.182  0.00  0.00    +0.010 A 
ATOM     26  C   LIG    1        5.129   4.977  -0.020  0.00  0.00    +0.010 A 
ATOM     27  C   LIG    1        4.469   4.744  -1.212  0.00  0.00    +0.010 A 
ATOM     28  C   LIG    1        3.173   4.265  -1.203  0.00  0.00    +0.030 A 
ENDBRANCH  22  23
ENDBRANCH   5  22
TORSDOF 6
