REMARK  Name = ZINCbw0000000pw8.0
REMARK                            x       y       z     vdW  Elec       q    Type
REMARK                         _______ _______ _______ _____ _____    ______ ____
ROOT
ATOM      1  C   LIG    1       -1.238   3.133   0.030  0.00  0.00    -0.070 A 
ATOM      2  C   LIG    1       -1.219   1.751   0.017  0.00  0.00    +0.020 A 
ATOM      3  C   LIG    1       -0.013   1.076   0.008  0.00  0.00    +0.040 A 
ATOM      4  C   LIG    1        1.176   1.784   0.000  0.00  0.00    -0.090 A 
ATOM      5  C   LIG    1        1.156   3.167   0.007  0.00  0.00    +0.040 A 
ATOM      6 BR   LIG    1        2.826   0.861  -0.020  0.00  0.00    -0.050 Br
ATOM      7  C   LIG    1       -0.050   3.841   0.022  0.00  0.00    +0.020 A 
ENDROOT
BRANCH   1   8
ATOM      8  C   LIG    1       -2.553   3.868   0.047  0.00  0.00    +0.100 C 
BRANCH   8   9
ATOM      9  C   LIG    1       -3.012   4.124  -1.390  0.00  0.00    +0.170 C 
BRANCH   9  11
ATOM     10  C   LIG    1       -4.779   5.112  -2.674  0.00  0.00    +0.200 C 
ATOM     11  O   LIG    1       -4.259   4.822  -1.375  0.00  0.00    -0.390 OA
ENDBRANCH   9  11
ENDBRANCH   8   9
ENDBRANCH   1   8
TORSDOF 3
