REMARK  Name = ZINCkj00000dDsYX.0
REMARK                            x       y       z     vdW  Elec       q    Type
REMARK                         _______ _______ _______ _____ _____    ______ ____
ROOT
ATOM      1  C   LIG    1       -0.280   3.952  -1.688  0.00  0.00    +0.510 C 
ATOM      2  N   LIG    1       -0.927   3.027  -0.952  0.00  0.00    -0.580 N 
ATOM      3  C   LIG    1       -0.664   1.589  -1.126  0.00  0.00    +0.290 C 
ATOM      4  C   LIG    1       -0.060   1.061   0.175  0.00  0.00    +0.100 C 
ATOM      5  C   LIG    1       -0.856   1.531   1.364  0.00  0.00    -0.130 A 
ATOM      6  C   LIG    1       -0.708   0.828   2.557  0.00  0.00    +0.140 A 
ATOM      7  C   LIG    1       -1.401   1.212   3.689  0.00  0.00    -0.020 A 
ATOM      8  C   LIG    1       -2.248   2.305   3.639  0.00  0.00    +0.140 A 
ATOM      9  C   LIG    1       -2.397   3.002   2.454  0.00  0.00    -0.010 A 
ATOM     10  F   LIG    1       -2.925   2.690   4.742  0.00  0.00    -0.120 F 
ATOM     11  F   LIG    1        0.118  -0.239   2.607  0.00  0.00    -0.120 F 
ATOM     12  C   LIG    1       -1.704   2.614   1.316  0.00  0.00    -0.040 A 
ATOM     13  C   LIG    1       -1.922   3.412   0.055  0.00  0.00    +0.300 C 
ATOM     14  C   LIG    1       -1.781   4.903   0.366  0.00  0.00    +0.070 C 
ATOM     15  O   LIG    1       -0.585   5.122  -1.596  0.00  0.00    -0.510 OA
ENDROOT
BRANCH   1  16
ATOM     16  C   LIG    1        0.823   3.532  -2.625  0.00  0.00    +0.180 C 
BRANCH  16  17
ATOM     17  N   LIG    1        1.036   4.581  -3.631  0.00  0.00    -0.620 N 
ATOM     18  H   LIG    1        1.295   5.441  -3.171  0.00  0.00    +0.440 HD
ATOM     19  H   LIG    1        0.186   4.723  -4.155  0.00  0.00    +0.440 HD
ATOM     20  H   LIG    1        1.775   4.300  -4.259  0.00  0.00    +0.450 HD
ENDBRANCH  16  17
BRANCH  16  21
ATOM     21  C   LIG    1        2.113   3.317  -1.831  0.00  0.00    +0.230 C 
BRANCH  21  23
ATOM     22  C   LIG    1        4.380   2.571  -2.053  0.00  0.00    +0.260 C 
ATOM     23  O   LIG    1        3.127   2.808  -2.699  0.00  0.00    -0.400 OA
ENDBRANCH  21  23
ENDBRANCH  16  21
ENDBRANCH   1  16
TORSDOF 4
