REMARK  Name = ZINCrH000004szgk.0
REMARK                            x       y       z     vdW  Elec       q    Type
REMARK                         _______ _______ _______ _____ _____    ______ ____
ROOT
ATOM      1  N   LIG    1       -0.754  10.187  -0.210  0.00  0.00    -0.670 N 
ATOM      2  H   LIG    1        0.122  10.567  -0.378  0.00  0.00    +0.420 HD
ATOM      3  C   LIG    1       -0.883   8.862   0.006  0.00  0.00    +0.510 C 
ATOM      4  O   LIG    1       -1.986   8.373   0.134  0.00  0.00    -0.490 OA
ENDROOT
BRANCH   1  11
ATOM      5  C   LIG    1       -7.691  13.258  -0.854  0.00  0.00    +0.190 C 
ATOM      6  C   LIG    1       -6.306  12.680  -0.713  0.00  0.00    +0.090 A 
ATOM      7  N   LIG    1       -5.311  13.311  -0.217  0.00  0.00    -0.470 NA
ATOM      8  C   LIG    1       -4.128  12.669  -0.152  0.00  0.00    +0.070 A 
ATOM      9  C   LIG    1       -2.886  13.120   0.341  0.00  0.00    +0.100 A 
ATOM     10  C   LIG    1       -1.796  12.306   0.318  0.00  0.00    +0.020 A 
ATOM     11  C   LIG    1       -1.885  11.012  -0.192  0.00  0.00    +0.160 A 
ATOM     12  C   LIG    1       -3.090  10.547  -0.686  0.00  0.00    +0.080 A 
ATOM     13  C   LIG    1       -4.214  11.369  -0.663  0.00  0.00    -0.170 A 
ATOM     14  S   LIG    1       -5.871  11.101  -1.194  0.00  0.00    +0.110 S 
ENDBRANCH   1  11
BRANCH   3  15
ATOM     15  C   LIG    1        0.342   7.989   0.089  0.00  0.00    +0.240 C 
BRANCH  15  16
ATOM     16  O   LIG    1       -0.052   6.636   0.322  0.00  0.00    -0.290 OA
BRANCH  16  17
ATOM     17  C   LIG    1        0.941   5.713   0.423  0.00  0.00    +0.160 A 
ATOM     18  C   LIG    1        2.267   6.103   0.301  0.00  0.00    -0.110 A 
ATOM     19  C   LIG    1        3.277   5.166   0.404  0.00  0.00    +0.080 A 
ATOM     20  C   LIG    1        2.971   3.839   0.635  0.00  0.00    -0.060 A 
ATOM     21  C   LIG    1        1.645   3.442   0.752  0.00  0.00    +0.210 A 
ATOM     22  C   LIG    1        0.629   4.381   0.649  0.00  0.00    -0.030 A 
BRANCH  21  23
ATOM     23  N   LIG    1        1.334   2.096   0.980  0.00  0.00    -0.560 N 
ATOM     24  C   LIG    1        2.319   1.008   0.986  0.00  0.00    +0.260 C 
ATOM     25  C   LIG    1        1.621  -0.175   1.692  0.00  0.00    +0.060 C 
ATOM     26  C   LIG    1        0.130   0.137   1.431  0.00  0.00    +0.070 C 
ATOM     27  C   LIG    1        0.095   1.635   1.222  0.00  0.00    +0.510 C 
ATOM     28  O   LIG    1       -0.906   2.318   1.261  0.00  0.00    -0.500 OA
ENDBRANCH  21  23
ENDBRANCH  16  17
ENDBRANCH  15  16
ENDBRANCH   3  15
TORSDOF 5
