REMARK  Name = ZINCkj00000a7BXK.0
REMARK                            x       y       z     vdW  Elec       q    Type
REMARK                         _______ _______ _______ _____ _____    ______ ____
ROOT
ATOM      1  C   LIG    1        2.475   1.075  -0.016  0.00  0.00    +0.270 A 
ATOM      2  N   LIG    1        2.650  -0.234  -0.024  0.00  0.00    -0.480 NA
ATOM      3  C   LIG    1        3.984  -0.420  -0.038  0.00  0.00    +0.340 A 
ATOM      4  N   LIG    1        4.544   0.761  -0.037  0.00  0.00    -0.410 NA
ATOM      5  O   LIG    1        3.697   1.630  -0.030  0.00  0.00    +0.090 OA
ENDROOT
BRANCH   3   6
ATOM      6  N   LIG    1        4.643  -1.642  -0.051  0.00  0.00    -0.440 N 
ATOM      7  C   LIG    1        4.234  -2.473   1.091  0.00  0.00    +0.240 C 
ATOM      8  C   LIG    1        4.937  -3.829   1.008  0.00  0.00    +0.300 C 
ATOM      9  N   LIG    1        6.392  -3.630   1.022  0.00  0.00    -0.510 N 
ATOM     10  C   LIG    1        6.788  -2.819  -0.137  0.00  0.00    +0.300 C 
ATOM     11  H   LIG    1        6.658  -3.154   1.871  0.00  0.00    +0.430 HD
ATOM     12  H   LIG    1        6.855  -4.525   0.980  0.00  0.00    +0.440 HD
ATOM     13  C   LIG    1        6.101  -1.454  -0.064  0.00  0.00    +0.240 C 
ENDBRANCH   3   6
BRANCH   1  20
ATOM     14  C   LIG    1        2.448   3.964  -0.001  0.00  0.00    +0.120 C 
ATOM     15  C   LIG    1        1.156   3.188   0.008  0.00  0.00    -0.010 A 
ATOM     16  C   LIG    1       -0.050   3.860   0.023  0.00  0.00    +0.030 A 
ATOM     17  C   LIG    1       -1.239   3.156   0.030  0.00  0.00    +0.120 A 
ATOM     18  C   LIG    1       -1.227   1.760   0.017  0.00  0.00    -0.030 A 
ATOM     19  C   LIG    1       -0.013   1.076   0.008  0.00  0.00    +0.140 A 
ATOM     20  C   LIG    1        1.182   1.792   0.000  0.00  0.00    -0.050 A 
BRANCH  18  21
ATOM     21  C   LIG    1       -2.461   1.032   0.019  0.00  0.00    +0.240 C 
ATOM     22  N   LIG    1       -3.439   0.454   0.021  0.00  0.00    -0.390 NA
ENDBRANCH  18  21
ENDBRANCH   1  20
TORSDOF 3
