REMARK  Name = ZINCvU0000000InF.0
REMARK                            x       y       z     vdW  Elec       q    Type
REMARK                         _______ _______ _______ _____ _____    ______ ____
ROOT
ATOM      1  N   LIG    1        1.817   6.951   0.849  0.00  0.00    -0.650 N 
ATOM      2  H   LIG    1        2.707   7.099   1.207  0.00  0.00    +0.410 HD
ATOM      3  C   LIG    1        0.942   7.973   0.773  0.00  0.00    +0.560 C 
ATOM      4  O   LIG    1       -0.197   7.772   0.397  0.00  0.00    -0.520 OA
ENDROOT
BRANCH   1  11
ATOM      5  C   LIG    1        1.414   6.158  -2.136  0.00  0.00    +0.170 C 
ATOM      6  C   LIG    1        1.250   5.277  -0.925  0.00  0.00    +0.100 A 
ATOM      7  N   LIG    1        0.906   4.014  -0.939  0.00  0.00    -0.280 NA
ATOM      8  N   LIG    1        0.865   3.554   0.384  0.00  0.00    -0.320 N 
ATOM      9  C   LIG    1        1.193   4.593   1.198  0.00  0.00    +0.100 A 
ATOM     10  C   LIG    1        1.271   4.556   2.703  0.00  0.00    +0.160 C 
ATOM     11  C   LIG    1        1.441   5.669   0.408  0.00  0.00    -0.010 A 
BRANCH   8  12
ATOM     12  C   LIG    1        0.537   2.255   0.795  0.00  0.00    +0.150 A 
ATOM     13  C   LIG    1       -0.421   1.526   0.102  0.00  0.00    +0.020 A 
ATOM     14  C   LIG    1       -0.742   0.246   0.510  0.00  0.00    +0.030 A 
ATOM     15  C   LIG    1       -0.111  -0.310   1.608  0.00  0.00    +0.010 A 
ATOM     16  C   LIG    1        0.843   0.413   2.300  0.00  0.00    +0.030 A 
ATOM     17  C   LIG    1        1.168   1.694   1.897  0.00  0.00    +0.000 A 
ENDBRANCH   8  12
ENDBRANCH   1  11
BRANCH   3  18
ATOM     18  C   LIG    1        1.367   9.339   1.146  0.00  0.00    -0.120 A 
ATOM     19  C   LIG    1        2.672   9.573   1.582  0.00  0.00    +0.040 A 
ATOM     20  C   LIG    1        3.064  10.851   1.924  0.00  0.00    +0.030 A 
ATOM     21  C   LIG    1        2.163  11.898   1.845  0.00  0.00    -0.070 A 
ATOM     22  C   LIG    1        0.867  11.672   1.418  0.00  0.00    +0.030 A 
ATOM     23  C   LIG    1        0.464  10.400   1.068  0.00  0.00    +0.080 A 
BRANCH  21  24
ATOM     24  C   LIG    1        2.596  13.290   2.225  0.00  0.00    +0.260 C 
BRANCH  24  25
ATOM     25  O   LIG    1        2.354  13.500   3.618  0.00  0.00    -0.300 OA
BRANCH  25  26
ATOM     26  C   LIG    1        2.691  14.715   4.127  0.00  0.00    +0.140 A 
ATOM     27  C   LIG    1        3.249  15.682   3.303  0.00  0.00    -0.060 A 
ATOM     28  C   LIG    1        3.587  16.917   3.821  0.00  0.00    +0.070 A 
ATOM     29  C   LIG    1        3.379  17.187   5.162  0.00  0.00    -0.070 A 
ATOM     30  C   LIG    1        2.827  16.222   5.986  0.00  0.00    +0.070 A 
ATOM     31 CL   LIG    1        3.810  18.738   5.812  0.00  0.00    -0.070 Cl
ATOM     32  C   LIG    1        2.483  14.987   5.471  0.00  0.00    +0.000 A 
ENDBRANCH  25  26
ENDBRANCH  24  25
ENDBRANCH  21  24
ENDBRANCH   3  18
TORSDOF 6
