REMARK  Name = ZINCpe00000gMUT0.0
REMARK                            x       y       z     vdW  Elec       q    Type
REMARK                         _______ _______ _______ _____ _____    ______ ____
ROOT
ATOM      1  C   LIG    1       -0.742   1.585  -1.213  0.00  0.00    +0.500 C 
ATOM      2  N   LIG    1       -0.288   1.272  -2.443  0.00  0.00    -0.610 N 
ATOM      3  C   LIG    1        0.919   0.451  -2.609  0.00  0.00    +0.270 C 
ATOM      4  C   LIG    1        0.564  -0.761  -3.487  0.00  0.00    +0.300 C 
ATOM      5  N   LIG    1       -0.137  -0.282  -4.686  0.00  0.00    -1.000 NA
ATOM      6  C   LIG    1       -1.341   0.545  -4.521  0.00  0.00    +0.310 C 
ATOM      7  C   LIG    1       -0.989   1.752  -3.643  0.00  0.00    +0.290 C 
ATOM      8  O   LIG    1       -1.736   2.268  -1.088  0.00  0.00    -0.500 OA
ENDROOT
BRANCH   5   9
ATOM      9  S   LIG    1        0.420  -0.665  -6.198  0.00  0.00    +2.690 S 
ATOM     10  O   LIG    1       -0.693  -0.561  -7.075  0.00  0.00    -0.940 OA
ATOM     11  O   LIG    1        1.188  -1.852  -6.054  0.00  0.00    -0.940 OA
BRANCH   9  12
ATOM     12  C   LIG    1        1.549   0.602  -6.675  0.00  0.00    -0.650 A 
ATOM     13  C   LIG    1        2.892   0.480  -6.373  0.00  0.00    +0.120 A 
ATOM     14  C   LIG    1        3.778   1.473  -6.746  0.00  0.00    +0.040 A 
ATOM     15  C   LIG    1        3.322   2.588  -7.423  0.00  0.00    +0.050 A 
ATOM     16  C   LIG    1        1.977   2.712  -7.726  0.00  0.00    +0.080 A 
ATOM     17  F   LIG    1        1.530   3.801  -8.387  0.00  0.00    -0.130 F 
ATOM     18  C   LIG    1        1.091   1.714  -7.356  0.00  0.00    +0.090 A 
ENDBRANCH   9  12
ENDBRANCH   5   9
BRANCH   1  19
ATOM     19  C   LIG    1       -0.013   1.086   0.008  0.00  0.00    +0.360 C 
BRANCH  19  23
ATOM     20  C   LIG    1       -2.359   1.168   4.436  0.00  0.00    +0.110 C 
ATOM     21  C   LIG    1       -1.721   1.601   3.142  0.00  0.00    -0.230 A 
ATOM     22  C   LIG    1       -1.156   0.786   2.221  0.00  0.00    +0.220 A 
ATOM     23  N   LIG    1       -0.698   1.558   1.213  0.00  0.00    -0.370 N 
ATOM     24  N   LIG    1       -1.000   2.891   1.521  0.00  0.00    -0.270 NA
ATOM     25  C   LIG    1       -1.613   2.915   2.677  0.00  0.00    +0.230 A 
ENDBRANCH  19  23
ENDBRANCH   1  19
TORSDOF 4
