REMARK  Name = ZINCnE000001KUfc.0
REMARK                            x       y       z     vdW  Elec       q    Type
REMARK                         _______ _______ _______ _____ _____    ______ ____
ROOT
ATOM      1  C   LIG    1        4.355   0.447  -0.628  0.00  0.00    +0.120 A 
ATOM      2  C   LIG    1        4.041  -0.777  -0.030  0.00  0.00    +0.160 A 
ATOM      3  C   LIG    1        2.817  -0.948   0.586  0.00  0.00    +0.110 A 
ATOM      4  C   LIG    1        1.895   0.096   0.613  0.00  0.00    -0.190 A 
ATOM      5  S   LIG    1        0.278   0.209   1.300  0.00  0.00    +0.110 S 
ATOM      6  C   LIG    1        0.135   1.823   0.763  0.00  0.00    +0.080 A 
ATOM      7  N   LIG    1        1.187   2.207   0.145  0.00  0.00    -0.470 NA
ATOM      8  C   LIG    1       -1.081   2.685   0.983  0.00  0.00    +0.180 C 
ATOM      9  C   LIG    1        2.199   1.326   0.018  0.00  0.00    +0.100 A 
ATOM     10  C   LIG    1        3.453   1.484  -0.607  0.00  0.00    -0.010 A 
ENDROOT
BRANCH   2  11
ATOM     11  N   LIG    1        4.967  -1.829  -0.056  0.00  0.00    -0.670 N 
ATOM     12  H   LIG    1        5.914  -1.639  -0.145  0.00  0.00    +0.420 HD
ATOM     13  C   LIG    1        4.542  -3.104   0.044  0.00  0.00    +0.510 C 
ATOM     14  O   LIG    1        3.354  -3.348   0.054  0.00  0.00    -0.500 OA
BRANCH  13  15
ATOM     15  C   LIG    1        5.542  -4.226   0.142  0.00  0.00    +0.050 C 
BRANCH  15  16
ATOM     16  C   LIG    1        4.802  -5.562   0.244  0.00  0.00    -0.020 C 
ATOM     17  C   LIG    1        3.934  -5.760  -1.000  0.00  0.00    +0.020 C 
ATOM     18  C   LIG    1        3.915  -5.559   1.490  0.00  0.00    +0.020 C 
BRANCH  16  19
ATOM     19  C   LIG    1        5.818  -6.702   0.343  0.00  0.00    -0.080 C 
BRANCH  19  20
ATOM     20  C   LIG    1        5.089  -8.017   0.443  0.00  0.00    +0.490 C 
ATOM     21  O   LIG    1        5.718  -9.057   0.532  0.00  0.00    -0.710 OA
ATOM     22  O   LIG    1        3.870  -8.040   0.436  0.00  0.00    -0.680 OA
ENDBRANCH  19  20
ENDBRANCH  16  19
ENDBRANCH  15  16
ENDBRANCH  13  15
ENDBRANCH   2  11
BRANCH   1  24
ATOM     23  C   LIG    1        5.821   1.887  -1.825  0.00  0.00    +0.250 C 
ATOM     24  O   LIG    1        5.561   0.613  -1.234  0.00  0.00    -0.310 OA
ENDBRANCH   1  24
TORSDOF 6
