REMARK  Name = ZINCpe000000YT5A.0
REMARK                            x       y       z     vdW  Elec       q    Type
REMARK                         _______ _______ _______ _____ _____    ______ ____
ROOT
ATOM      1  O   LIG    1        2.328   1.207  -0.014  0.00  0.00    -0.450 OA
ATOM      2  C   LIG    1        1.396   1.982  -0.001  0.00  0.00    +0.510 C 
ATOM      3  N   LIG    1        1.624   3.311   0.004  0.00  0.00    -0.690 N 
ATOM      4  H   LIG    1        0.879   3.931   0.015  0.00  0.00    +0.410 HD
ATOM      5  C   LIG    1        2.889   3.777  -0.005  0.00  0.00    +0.700 C 
ATOM      6  N   LIG    1        3.117   5.106  -0.000  0.00  0.00    -0.740 N 
ATOM      7  H   LIG    1        2.371   5.726   0.010  0.00  0.00    +0.400 HD
ATOM      8  O   LIG    1        3.823   3.000  -0.018  0.00  0.00    -0.520 OA
ENDROOT
BRANCH   6   9
ATOM      9  C   LIG    1        4.491   5.612  -0.011  0.00  0.00    +0.410 C 
BRANCH   9  10
ATOM     10  C   LIG    1        4.471   7.119  -0.002  0.00  0.00    -0.050 A 
ATOM     11  C   LIG    1        4.471   7.900   1.093  0.00  0.00    -0.030 A 
ATOM     12  C   LIG    1        4.448   9.240   0.641  0.00  0.00    -0.070 A 
ATOM     13  C   LIG    1        4.436   9.197  -0.703  0.00  0.00    +0.190 A 
ATOM     14  O   LIG    1        4.456   7.911  -1.087  0.00  0.00    -0.170 OA
ENDBRANCH   9  10
ENDBRANCH   6   9
BRANCH   2  15
ATOM     15  C   LIG    1       -0.018   1.461   0.010  0.00  0.00    +0.370 C 
BRANCH  15  16
ATOM     16  N   LIG    1        0.002  -0.004   0.002  0.00  0.00    -0.570 N 
ATOM     17  C   LIG    1       -0.004  -0.750  -1.109  0.00  0.00    +0.710 C 
ATOM     18  N   LIG    1        0.021  -2.070  -0.842  0.00  0.00    -0.710 N 
ATOM     19  H   LIG    1        0.024  -2.794  -1.488  0.00  0.00    +0.440 HD
ATOM     20  C   LIG    1        0.037  -2.197   0.621  0.00  0.00    +0.130 C 
ATOM     21  C   LIG    1       -1.203  -2.939   1.107  0.00  0.00    +0.060 C 
ATOM     22  C   LIG    1       -1.184  -4.374   0.575  0.00  0.00    +0.030 C 
ATOM     23  C   LIG    1        0.080  -5.082   1.067  0.00  0.00    +0.010 C 
ATOM     24  C   LIG    1        1.315  -4.341   0.551  0.00  0.00    +0.020 C 
ATOM     25  C   LIG    1        1.306  -2.906   1.083  0.00  0.00    +0.050 C 
ATOM     26  O   LIG    1       -0.027  -0.289  -2.233  0.00  0.00    -0.540 OA
ATOM     27  C   LIG    1        0.023  -0.768   1.114  0.00  0.00    +0.540 C 
ATOM     28  O   LIG    1        0.030  -0.389   2.265  0.00  0.00    -0.460 OA
ENDBRANCH  15  16
ENDBRANCH   2  15
TORSDOF 4
