REMARK  Name = ZINCnE000001RcAi.0
REMARK                            x       y       z     vdW  Elec       q    Type
REMARK                         _______ _______ _______ _____ _____    ______ ____
ROOT
ATOM      1  C   LIG    1        2.704  -1.654  -0.390  0.00  0.00    +0.600 C 
ATOM      2  N   LIG    1        2.733  -2.276   0.805  0.00  0.00    -0.540 N 
ATOM      3  C   LIG    1        3.140  -3.667   1.019  0.00  0.00    +0.310 C 
ATOM      4  C   LIG    1        3.005  -3.899   2.533  0.00  0.00    +0.070 C 
ATOM      5  C   LIG    1        2.507  -2.578   3.077  0.00  0.00    -0.110 A 
ATOM      6  C   LIG    1        2.198  -2.188   4.365  0.00  0.00    +0.050 A 
ATOM      7  C   LIG    1        1.753  -0.903   4.614  0.00  0.00    -0.020 A 
ATOM      8  C   LIG    1        1.617  -0.008   3.569  0.00  0.00    +0.020 A 
ATOM      9  C   LIG    1        1.923  -0.393   2.281  0.00  0.00    -0.020 A 
ATOM     10  C   LIG    1        2.373  -1.689   2.022  0.00  0.00    +0.140 A 
ATOM     11  O   LIG    1        3.038  -2.253  -1.395  0.00  0.00    -0.510 OA
ENDROOT
BRANCH   1  15
ATOM     12  C   LIG    1       -0.161   2.536  -0.896  0.00  0.00    +0.180 C 
ATOM     13  C   LIG    1        0.992   1.585  -0.703  0.00  0.00    -0.020 A 
ATOM     14  C   LIG    1        0.901   0.246  -0.691  0.00  0.00    -0.140 A 
ATOM     15  C   LIG    1        2.270  -0.249  -0.480  0.00  0.00    -0.220 A 
ATOM     16  C   LIG    1        3.053   0.864  -0.385  0.00  0.00    +0.040 A 
ATOM     17  C   LIG    1        4.544   0.877  -0.166  0.00  0.00    +0.190 C 
ATOM     18  C   LIG    1       -0.347  -0.581  -0.859  0.00  0.00    +0.120 C 
ATOM     19  O   LIG    1        2.273   1.941  -0.520  0.00  0.00    -0.170 OA
ENDBRANCH   1  15
BRANCH   4  20
ATOM     20  C   LIG    1        4.359  -4.253   3.149  0.00  0.00    -0.040 C 
BRANCH  20  21
ATOM     21  C   LIG    1        4.769  -5.632   2.702  0.00  0.00    +0.490 C 
ATOM     22  O   LIG    1        5.870  -6.067   2.997  0.00  0.00    -0.700 OA
ATOM     23  O   LIG    1        4.001  -6.314   2.046  0.00  0.00    -0.690 OA
ENDBRANCH  20  21
ENDBRANCH   4  20
TORSDOF 3
