REMARK  Name = ZINCvU0000000I2t.0
REMARK                            x       y       z     vdW  Elec       q    Type
REMARK                         _______ _______ _______ _____ _____    ______ ____
ROOT
ATOM      1  N   LIG    1       -1.057   6.019   0.892  0.00  0.00    -0.660 NA
ATOM      2  H   LIG    1       -1.255   6.951   0.561  0.00  0.00    +0.360 HD
ENDROOT
BRANCH   1   3
ATOM      3  C   LIG    1       -0.608   6.041   2.291  0.00  0.00    +0.280 C 
BRANCH   3   7
ATOM      4  C   LIG    1       -2.461   9.306   4.328  0.00  0.00    -0.070 A 
ATOM      5  C   LIG    1       -1.135   9.001   4.574  0.00  0.00    +0.000 A 
ATOM      6  C   LIG    1       -0.536   7.945   3.915  0.00  0.00    +0.020 A 
ATOM      7  C   LIG    1       -1.262   7.193   3.010  0.00  0.00    -0.100 A 
ATOM      8  C   LIG    1       -2.586   7.501   2.760  0.00  0.00    +0.040 A 
ATOM      9  C   LIG    1       -3.187   8.555   3.423  0.00  0.00    +0.010 A 
BRANCH   4  11
ATOM     10  C   LIG    1       -3.606  11.485   4.025  0.00  0.00    +0.040 C 
ATOM     11  C   LIG    1       -3.115  10.458   5.048  0.00  0.00    +0.020 C 
ATOM     12  C   LIG    1       -4.302   9.942   5.863  0.00  0.00    +0.040 C 
ENDBRANCH   4  11
ENDBRANCH   3   7
BRANCH   3  13
ATOM     13  C   LIG    1       -0.990   4.747   2.962  0.00  0.00    -0.160 A 
ATOM     14  C   LIG    1       -0.227   4.074   3.824  0.00  0.00    -0.010 A 
ATOM     15  C   LIG    1       -0.790   2.908   4.314  0.00  0.00    +0.000 A 
ATOM     16  C   LIG    1       -2.010   2.635   3.849  0.00  0.00    -0.070 A 
ATOM     17  S   LIG    1       -2.514   3.899   2.735  0.00  0.00    +0.160 S 
ENDBRANCH   3  13
ENDBRANCH   1   3
BRANCH   1  18
ATOM     18  C   LIG    1       -0.069   5.353   0.033  0.00  0.00    +0.190 C 
BRANCH  18  19
ATOM     19  C   LIG    1       -0.214   5.855  -1.381  0.00  0.00    +0.520 C 
ATOM     20  N   LIG    1        0.839   5.814  -2.222  0.00  0.00    -0.610 N 
ATOM     21  C   LIG    1        2.106   5.184  -1.819  0.00  0.00    +0.240 C 
ATOM     22  C   LIG    1        2.522   4.196  -2.921  0.00  0.00    +0.220 C 
ATOM     23  O   LIG    1        2.521   4.871  -4.181  0.00  0.00    -0.380 OA
ATOM     24  C   LIG    1        1.239   5.360  -4.582  0.00  0.00    +0.220 C 
ATOM     25  C   LIG    1        0.756   6.403  -3.568  0.00  0.00    +0.260 C 
ATOM     26  O   LIG    1       -1.277   6.296  -1.762  0.00  0.00    -0.520 OA
ENDBRANCH  18  19
BRANCH  18  27
ATOM     27  C   LIG    1       -0.298   3.864   0.063  0.00  0.00    -0.080 A 
ATOM     28  C   LIG    1        0.774   3.002   0.203  0.00  0.00    +0.010 A 
ATOM     29  C   LIG    1        0.563   1.637   0.231  0.00  0.00    +0.000 A 
ATOM     30  C   LIG    1       -0.719   1.132   0.119  0.00  0.00    +0.010 A 
ATOM     31  C   LIG    1       -1.790   1.994  -0.026  0.00  0.00    +0.000 A 
ATOM     32  C   LIG    1       -1.580   3.360  -0.050  0.00  0.00    +0.070 A 
ENDBRANCH  18  27
ENDBRANCH   1  18
TORSDOF 7
