REMARK  Name = ZINCpe000000V018.0
REMARK                            x       y       z     vdW  Elec       q    Type
REMARK                         _______ _______ _______ _____ _____    ______ ____
ROOT
ATOM      1  C   LIG    1        0.675   1.715  -1.391  0.00  0.00    +0.520 C 
ATOM      2  N   LIG    1        1.058   2.208  -0.197  0.00  0.00    -0.720 N 
ATOM      3  H   LIG    1        1.294   1.605   0.525  0.00  0.00    +0.410 HD
ATOM      4  O   LIG    1        0.386   2.470  -2.295  0.00  0.00    -0.530 OA
ENDROOT
BRANCH   1   8
ATOM      5  N   LIG    1        1.345  -2.189  -2.885  0.00  0.00    -1.010 NA
ATOM      6  C   LIG    1        0.055  -1.582  -3.238  0.00  0.00    +0.300 C 
ATOM      7  C   LIG    1        0.151  -0.067  -3.035  0.00  0.00    +0.060 C 
ATOM      8  C   LIG    1        0.612   0.224  -1.605  0.00  0.00    +0.000 C 
ATOM      9  C   LIG    1        1.999  -0.382  -1.381  0.00  0.00    +0.030 C 
ATOM     10  C   LIG    1        1.924  -1.901  -1.565  0.00  0.00    +0.300 C 
BRANCH   5  11
ATOM     11  S   LIG    1        2.132  -3.180  -3.953  0.00  0.00    +2.790 S 
ATOM     12  O   LIG    1        1.140  -3.693  -4.830  0.00  0.00    -0.970 OA
ATOM     13  O   LIG    1        2.987  -4.009  -3.176  0.00  0.00    -0.970 OA
BRANCH  11  15
ATOM     14  C   LIG    1        4.240  -1.511  -4.251  0.00  0.00    +0.290 C 
ATOM     15  N   LIG    1        3.120  -2.222  -4.874  0.00  0.00    -1.130 NA
ATOM     16  H   LIG    1        2.958  -2.131  -5.826  0.00  0.00    +0.420 HD
ENDBRANCH  11  15
ENDBRANCH   5  11
ENDBRANCH   1   8
BRANCH   2  17
ATOM     17  CA  LIG    1        1.120   3.657   0.011  0.00  0.00    +0.300 C 
BRANCH  17  18
ATOM     18  C   LIG    1        2.443   4.180  -0.485  0.00  0.00    -0.110 A 
ATOM     19  C   LIG    1        3.534   3.336  -0.563  0.00  0.00    +0.070 A 
ATOM     20  C   LIG    1        4.749   3.815  -1.019  0.00  0.00    +0.020 A 
ATOM     21  C   LIG    1        4.874   5.139  -1.396  0.00  0.00    +0.060 A 
ATOM     22  C   LIG    1        3.783   5.986  -1.318  0.00  0.00    -0.070 A 
ATOM     23 CL   LIG    1        3.940   7.649  -1.792  0.00  0.00    -0.050 Cl
ATOM     24  C   LIG    1        2.565   5.505  -0.867  0.00  0.00    +0.120 A 
ATOM     25  F   LIG    1        1.497   6.330  -0.795  0.00  0.00    -0.130 F 
ENDBRANCH  17  18
BRANCH  17  26
ATOM     26  C   LIG    1        0.976   3.965   1.503  0.00  0.00    +0.200 C 
BRANCH  26  27
ATOM     27  O   LIG    1        2.099   3.434   2.209  0.00  0.00    -0.570 OA
ATOM     28  H   LIG    1        2.075   3.592   3.163  0.00  0.00    +0.390 HD
ENDBRANCH  26  27
ENDBRANCH  17  26
ENDBRANCH   2  17
TORSDOF 7
