REMARK  Name = ZINCtV00000L6kx3.0
REMARK                            x       y       z     vdW  Elec       q    Type
REMARK                         _______ _______ _______ _____ _____    ______ ____
ROOT
ATOM      1  C   LIG    1        1.077   1.842   0.002  0.00  0.00    -0.040 A 
ATOM      2  C   LIG    1       -0.013   1.076   0.008  0.00  0.00    +0.010 A 
ATOM      3  S   LIG    1       -1.473   2.045   0.019  0.00  0.00    +0.200 S 
ATOM      4  C   LIG    1       -0.563   3.548   0.025  0.00  0.00    +0.090 A 
ATOM      5  N   LIG    1       -0.971   4.824   0.035  0.00  0.00    -0.490 NA
ATOM      6  C   LIG    1       -0.106   5.812   0.032  0.00  0.00    +0.530 A 
ATOM      7  N   LIG    1        1.198   5.604   0.018  0.00  0.00    -0.450 NA
ATOM      8  C   LIG    1        1.696   4.376   0.009  0.00  0.00    +0.170 A 
ATOM      9  C   LIG    1        0.806   3.274   0.011  0.00  0.00    -0.150 A 
ENDROOT
BRANCH   1  14
ATOM     10 CL   LIG    1        6.625  -0.408  -0.060  0.00  0.00    -0.060 Cl
ATOM     11  C   LIG    1        5.016   0.244  -0.042  0.00  0.00    -0.030 A 
ATOM     12  C   LIG    1        4.095  -0.216   0.883  0.00  0.00    +0.040 A 
ATOM     13  C   LIG    1        2.816   0.299   0.902  0.00  0.00    +0.060 A 
ATOM     14  C   LIG    1        2.450   1.285  -0.014  0.00  0.00    -0.030 A 
ATOM     15  C   LIG    1        3.380   1.741  -0.947  0.00  0.00    +0.050 A 
ATOM     16  C   LIG    1        4.659   1.224  -0.953  0.00  0.00    +0.040 A 
ENDBRANCH   1  14
BRANCH   8  17
ATOM     17  S   LIG    1        3.439   4.118  -0.008  0.00  0.00    +0.190 S 
BRANCH  17  18
ATOM     18  C   LIG    1        3.996   5.789  -0.005  0.00  0.00    +0.150 A 
ATOM     19  C   LIG    1        5.383   6.089  -0.015  0.00  0.00    -0.140 A 
ATOM     20  C   LIG    1        5.758   7.429  -0.013  0.00  0.00    +0.090 A 
ATOM     21  S   LIG    1        7.508   7.549  -0.029  0.00  0.00    +0.200 S 
ATOM     22  C   LIG    1        7.704   5.797  -0.038  0.00  0.00    -0.180 A 
ATOM     23  C   LIG    1        8.843   4.781  -0.052  0.00  0.00    +0.120 C 
ATOM     24  C   LIG    1        8.197   3.456   0.399  0.00  0.00    +0.050 C 
ATOM     25  C   LIG    1        6.732   3.664  -0.035  0.00  0.00    +0.110 C 
ATOM     26  N   LIG    1        4.807   8.373   0.001  0.00  0.00    -0.490 NA
ATOM     27  C   LIG    1        3.534   8.047   0.011  0.00  0.00    +0.520 A 
ATOM     28  C   LIG    1        6.531   5.179  -0.029  0.00  0.00    -0.100 A 
ATOM     29  N   LIG    1        3.128   6.791   0.003  0.00  0.00    -0.450 NA
ENDBRANCH  17  18
ENDBRANCH   8  17
TORSDOF 3
