REMARK  Name = ZINCrH000004skwh.0
REMARK                            x       y       z     vdW  Elec       q    Type
REMARK                         _______ _______ _______ _____ _____    ______ ____
ROOT
ATOM      1  C   LIG    1        6.615   5.389   1.264  0.00  0.00    +0.070 C 
ENDROOT
BRANCH   1   2
ATOM      2  C   LIG    1        6.044   4.849  -0.021  0.00  0.00    +0.520 C 
ATOM      3  N   LIG    1        5.389   3.671  -0.025  0.00  0.00    -0.600 N 
ATOM      4  C   LIG    1        4.827   3.131  -1.271  0.00  0.00    +0.290 C 
ATOM      5  C   LIG    1        3.344   2.820  -1.048  0.00  0.00    +0.040 C 
ATOM      6  C   LIG    1        3.197   1.893   0.162  0.00  0.00    +0.080 C 
ATOM      7  C   LIG    1        3.737   2.593   1.411  0.00  0.00    +0.040 C 
ATOM      8  C   LIG    1        5.224   2.902   1.216  0.00  0.00    +0.270 C 
ATOM      9  O   LIG    1        6.174   5.474  -1.053  0.00  0.00    -0.530 OA
BRANCH   6  10
ATOM     10  C   LIG    1        1.742   1.558   0.363  0.00  0.00    +0.050 A 
ATOM     11  N   LIG    1        0.809   2.421   0.591  0.00  0.00    -0.460 NA
ATOM     12  C   LIG    1       -0.414   1.957   0.744  0.00  0.00    +0.210 A 
ATOM     13  C   LIG    1       -0.520   0.628   0.640  0.00  0.00    -0.220 A 
ATOM     14  C   LIG    1       -1.791  -0.172   0.769  0.00  0.00    +0.150 C 
ATOM     15  S   LIG    1        1.087  -0.021   0.324  0.00  0.00    +0.120 S 
ENDBRANCH   6  10
ENDBRANCH   1   2
BRANCH   1  16
ATOM     16  C   LIG    1        7.274   6.745   1.000  0.00  0.00    +0.200 C 
BRANCH  16  21
ATOM     17  C   LIG    1       11.065   8.206  -1.850  0.00  0.00    +0.160 C 
ATOM     18  C   LIG    1       10.110   7.196  -1.267  0.00  0.00    +0.070 A 
ATOM     19  C   LIG    1       10.155   5.897  -1.575  0.00  0.00    -0.070 A 
ATOM     20  S   LIG    1        8.879   5.081  -0.675  0.00  0.00    +0.170 S 
ATOM     21  C   LIG    1        8.406   6.570   0.020  0.00  0.00    -0.010 A 
ATOM     22  N   LIG    1        9.163   7.522  -0.410  0.00  0.00    -0.430 NA
ENDBRANCH  16  21
BRANCH  16  23
ATOM     23  C   LIG    1        7.818   7.312   2.312  0.00  0.00    +0.480 C 
ATOM     24  F   LIG    1        6.774   7.431   3.236  0.00  0.00    -0.170 F 
ATOM     25  F   LIG    1        8.379   8.572   2.078  0.00  0.00    -0.150 F 
ATOM     26  F   LIG    1        8.797   6.453   2.822  0.00  0.00    -0.170 F 
ENDBRANCH  16  23
BRANCH  16  27
ATOM     27  O   LIG    1        6.308   7.645   0.455  0.00  0.00    -0.520 OA
ATOM     28  H   LIG    1        5.920   7.349  -0.380  0.00  0.00    +0.410 HD
ENDBRANCH  16  27
ENDBRANCH   1  16
TORSDOF 6
