REMARK  Name = ZINCpe000000Y3oJ.0
REMARK                            x       y       z     vdW  Elec       q    Type
REMARK                         _______ _______ _______ _____ _____    ______ ____
ROOT
ATOM      1  N   LIG    1        7.298   1.537  -2.872  0.00  0.00    -0.700 N 
ATOM      2  H   LIG    1        6.654   1.421  -3.588  0.00  0.00    +0.420 HD
ATOM      3  C   LIG    1        8.617   1.557  -3.147  0.00  0.00    +0.510 C 
ATOM      4  O   LIG    1        9.422   1.702  -2.251  0.00  0.00    -0.510 OA
ENDROOT
BRANCH   3   5
ATOM      5  C   LIG    1        9.088   1.399  -4.557  0.00  0.00    +0.510 C 
ATOM      6  N   LIG    1       10.405   1.282  -4.818  0.00  0.00    -0.580 N 
ATOM      7  C   LIG    1       11.374   1.123  -3.725  0.00  0.00    +0.280 C 
ATOM      8  C   LIG    1       12.223  -0.127  -4.003  0.00  0.00    +0.030 C 
ATOM      9  C   LIG    1       12.856  -0.007  -5.391  0.00  0.00    +0.030 C 
ATOM     10  C   LIG    1       11.755   0.072  -6.451  0.00  0.00    +0.150 C 
ATOM     11  C   LIG    1       10.900   1.318  -6.201  0.00  0.00    +0.260 C 
ATOM     12  O   LIG    1        8.285   1.377  -5.466  0.00  0.00    -0.520 OA
BRANCH  10  13
ATOM     13  O   LIG    1       12.348   0.153  -7.749  0.00  0.00    -0.560 OA
ATOM     14  H   LIG    1       11.707   0.208  -8.471  0.00  0.00    +0.380 HD
ENDBRANCH  10  13
ENDBRANCH   3   5
BRANCH   1  15
ATOM     15  C   LIG    1        6.836   1.692  -1.490  0.00  0.00    +0.280 C 
BRANCH  15  16
ATOM     16  C   LIG    1        5.307   1.633  -1.454  0.00  0.00    +0.010 C 
BRANCH  16  17
ATOM     17  C   LIG    1        4.825   1.794  -0.011  0.00  0.00    +0.320 C 
BRANCH  17  27
ATOM     18  C   LIG    1        2.936   4.228  -0.283  0.00  0.00    +0.190 C 
ATOM     19  C   LIG    1        2.511   2.794  -0.093  0.00  0.00    +0.280 A 
ATOM     20  N   LIG    1        1.278   2.386  -0.018  0.00  0.00    -0.490 NA
ATOM     21  C   LIG    1        1.252   1.039   0.151  0.00  0.00    +0.050 A 
ATOM     22  C   LIG    1        0.223   0.105   0.289  0.00  0.00    +0.070 A 
ATOM     23  C   LIG    1        0.522  -1.219   0.451  0.00  0.00    +0.000 A 
ATOM     24  C   LIG    1        1.841  -1.648   0.481  0.00  0.00    +0.030 A 
ATOM     25  C   LIG    1        2.874  -0.743   0.347  0.00  0.00    +0.010 A 
ATOM     26  C   LIG    1        2.589   0.605   0.181  0.00  0.00    +0.050 A 
ATOM     27  N   LIG    1        3.361   1.739   0.024  0.00  0.00    -0.490 N 
ENDBRANCH  17  27
ENDBRANCH  16  17
ENDBRANCH  15  16
ENDBRANCH   1  15
TORSDOF 6
