REMARK  Name = ZINCvU0000000Cto.0
REMARK                            x       y       z     vdW  Elec       q    Type
REMARK                         _______ _______ _______ _____ _____    ______ ____
ROOT
ATOM      1  N   LIG    1       -3.302  -5.082   0.256  0.00  0.00    -0.640 N 
ATOM      2  H   LIG    1       -4.164  -4.637   0.240  0.00  0.00    +0.430 HD
ATOM      3  C   LIG    1       -2.168  -4.355   0.215  0.00  0.00    +0.570 C 
ATOM      4  O   LIG    1       -1.087  -4.912   0.235  0.00  0.00    -0.500 OA
ENDROOT
BRANCH   1   9
ATOM      5  C   LIG    1       -1.542  -9.746   0.461  0.00  0.00    +0.180 C 
ATOM      6  C   LIG    1       -2.482  -8.569   0.412  0.00  0.00    +0.120 A 
ATOM      7  N   LIG    1       -3.788  -8.632   0.422  0.00  0.00    -0.290 NA
ATOM      8  N   LIG    1       -4.296  -7.328   0.365  0.00  0.00    -0.330 N 
ATOM      9  C   LIG    1       -3.236  -6.471   0.320  0.00  0.00    +0.350 A 
ATOM     10  C   LIG    1       -2.103  -7.224   0.342  0.00  0.00    -0.070 A 
BRANCH   8  11
ATOM     11  C   LIG    1       -5.639  -6.971   0.356  0.00  0.00    +0.540 A 
ATOM     12  N   LIG    1       -6.089  -5.745   0.301  0.00  0.00    -0.520 NA
ATOM     13  C   LIG    1       -7.447  -5.757   0.308  0.00  0.00    +0.070 A 
ATOM     14  C   LIG    1       -8.417  -4.753   0.266  0.00  0.00    +0.060 A 
ATOM     15  C   LIG    1       -9.752  -5.090   0.289  0.00  0.00    +0.020 A 
ATOM     16  C   LIG    1      -10.142  -6.419   0.353  0.00  0.00    +0.040 A 
ATOM     17  C   LIG    1       -9.197  -7.423   0.395  0.00  0.00    +0.030 A 
ATOM     18  C   LIG    1       -7.848  -7.103   0.373  0.00  0.00    +0.060 A 
ATOM     19  N   LIG    1       -6.683  -7.849   0.397  0.00  0.00    -0.590 N 
ATOM     20  H   LIG    1       -6.620  -8.816   0.438  0.00  0.00    +0.430 HD
ENDBRANCH   8  11
ENDBRANCH   1   9
BRANCH   3  21
ATOM     21  C   LIG    1       -2.237  -2.880   0.148  0.00  0.00    -0.120 A 
ATOM     22  C   LIG    1       -3.476  -2.237   0.125  0.00  0.00    +0.060 A 
ATOM     23  C   LIG    1       -3.537  -0.860   0.062  0.00  0.00    +0.030 A 
ATOM     24  C   LIG    1       -2.375  -0.113   0.021  0.00  0.00    +0.050 A 
ATOM     25  C   LIG    1       -1.137  -0.743   0.043  0.00  0.00    +0.080 A 
ATOM     26  C   LIG    1       -1.064  -2.125   0.100  0.00  0.00    +0.090 A 
BRANCH  25  27
ATOM     27  O   LIG    1        0.002  -0.004   0.002  0.00  0.00    -0.260 OA
BRANCH  27  28
ATOM     28  C   LIG    1        0.544   0.398   1.181  0.00  0.00    +0.120 A 
ATOM     29  C   LIG    1       -0.062   0.049   2.380  0.00  0.00    -0.060 A 
ATOM     30  C   LIG    1        0.493   0.455   3.578  0.00  0.00    +0.050 A 
ATOM     31  C   LIG    1        1.647   1.217   3.583  0.00  0.00    -0.020 A 
ATOM     32  C   LIG    1        2.251   1.570   2.390  0.00  0.00    +0.050 A 
ATOM     33  C   LIG    1        1.702   1.162   1.189  0.00  0.00    -0.010 A 
ENDBRANCH  27  28
ENDBRANCH  25  27
ENDBRANCH   3  21
TORSDOF 5
