REMARK  Name = ZINCtV00000oGSJe.0
REMARK                            x       y       z     vdW  Elec       q    Type
REMARK                         _______ _______ _______ _____ _____    ______ ____
ROOT
ATOM      1  C   LIG    1       -3.606  -0.811  -0.709  0.00  0.00    -0.060 A 
ATOM      2  C   LIG    1       -3.923  -1.404   0.505  0.00  0.00    +0.020 A 
ATOM      3  C   LIG    1       -5.218  -1.905   0.710  0.00  0.00    +0.200 A 
ATOM      4  N   LIG    1       -6.154  -1.833  -0.212  0.00  0.00    -0.450 NA
ATOM      5  C   LIG    1       -5.937  -1.280  -1.407  0.00  0.00    +0.130 A 
ATOM      6  C   LIG    1       -6.957  -1.218  -2.374  0.00  0.00    +0.050 A 
ATOM      7  C   LIG    1       -6.706  -0.647  -3.584  0.00  0.00    +0.030 A 
ATOM      8  C   LIG    1       -5.452  -0.122  -3.885  0.00  0.00    +0.020 A 
ATOM      9  C   LIG    1       -4.439  -0.164  -2.972  0.00  0.00    +0.050 A 
ATOM     10  C   LIG    1       -4.664  -0.738  -1.717  0.00  0.00    -0.070 A 
ENDROOT
BRANCH   1  22
ATOM     11  C   LIG    1        0.426   0.725   0.169  0.00  0.00    +0.040 C 
ATOM     12  C   LIG    1        0.230  -0.526  -0.689  0.00  0.00    +0.270 C 
ATOM     13  C   LIG    1        1.100  -1.643  -0.170  0.00  0.00    -0.100 A 
ATOM     14  C   LIG    1        2.474  -1.740  -0.032  0.00  0.00    +0.040 A 
ATOM     15  C   LIG    1        3.039  -2.892   0.480  0.00  0.00    +0.020 A 
ATOM     16  C   LIG    1        2.232  -3.950   0.855  0.00  0.00    +0.020 A 
ATOM     17  C   LIG    1        0.861  -3.854   0.717  0.00  0.00    +0.040 A 
ATOM     18  C   LIG    1        0.294  -2.700   0.205  0.00  0.00    -0.100 A 
ATOM     19  C   LIG    1       -1.145  -2.329  -0.050  0.00  0.00    +0.260 C 
ATOM     20  C   LIG    1       -1.764  -3.308  -1.050  0.00  0.00    +0.050 C 
ATOM     21  N   LIG    1       -1.164  -0.972  -0.606  0.00  0.00    -0.600 N 
ATOM     22  C   LIG    1       -2.255  -0.269  -0.971  0.00  0.00    +0.590 C 
ATOM     23  O   LIG    1       -2.128   0.810  -1.516  0.00  0.00    -0.510 OA
ENDBRANCH   1  22
BRANCH   3  24
ATOM     24  C   LIG    1       -5.542  -2.536   2.012  0.00  0.00    -0.060 A 
ATOM     25  C   LIG    1       -4.569  -2.632   3.005  0.00  0.00    +0.020 A 
ATOM     26  C   LIG    1       -4.879  -3.216   4.217  0.00  0.00    +0.010 A 
ATOM     27  C   LIG    1       -6.149  -3.716   4.442  0.00  0.00    +0.030 A 
ATOM     28  C   LIG    1       -7.117  -3.630   3.457  0.00  0.00    +0.010 A 
ATOM     29  C   LIG    1       -6.820  -3.042   2.244  0.00  0.00    +0.070 A 
ENDBRANCH   3  24
TORSDOF 2
