REMARK  Name = ZINCqH00000060tg.0
REMARK                            x       y       z     vdW  Elec       q    Type
REMARK                         _______ _______ _______ _____ _____    ______ ____
ROOT
ATOM      1  N   LIG    1       -2.489  -0.339   0.013  0.00  0.00    -0.670 N 
ATOM      2  H   LIG    1       -1.648  -0.815  -0.069  0.00  0.00    +0.410 HD
ATOM      3  C   LIG    1       -2.501   1.009   0.022  0.00  0.00    +0.560 C 
ATOM      4  O   LIG    1       -3.560   1.607   0.039  0.00  0.00    -0.500 OA
ENDROOT
BRANCH   1   9
ATOM      5  C   LIG    1       -6.038  -1.266  -0.351  0.00  0.00    -0.110 A 
ATOM      6  C   LIG    1       -6.061  -2.476   0.345  0.00  0.00    +0.060 A 
ATOM      7  C   LIG    1       -4.905  -2.962   0.922  0.00  0.00    +0.030 A 
ATOM      8  C   LIG    1       -3.721  -2.258   0.807  0.00  0.00    +0.020 A 
ATOM      9  C   LIG    1       -3.688  -1.050   0.121  0.00  0.00    +0.140 A 
ATOM     10  C   LIG    1       -4.844  -0.553  -0.462  0.00  0.00    +0.100 A 
BRANCH   5  11
ATOM     11  C   LIG    1       -7.274  -0.743  -0.969  0.00  0.00    +0.510 C 
ATOM     12  O   LIG    1       -7.252   0.310  -1.574  0.00  0.00    -0.500 OA
BRANCH  11  14
ATOM     13  C   LIG    1       -9.600  -0.860  -1.492  0.00  0.00    +0.260 C 
ATOM     14  O   LIG    1       -8.425  -1.433  -0.861  0.00  0.00    -0.350 OA
ENDBRANCH  11  14
ENDBRANCH   5  11
ENDBRANCH   1   9
BRANCH   3  15
ATOM     15  C   LIG    1       -1.231   1.759   0.011  0.00  0.00    -0.180 A 
ATOM     16  C   LIG    1       -0.013   1.076  -0.008  0.00  0.00    +0.080 A 
ATOM     17  C   LIG    1        1.171   1.782  -0.024  0.00  0.00    -0.030 A 
ATOM     18  C   LIG    1        1.159   3.167  -0.014  0.00  0.00    +0.090 A 
ATOM     19  C   LIG    1       -0.039   3.854   0.011  0.00  0.00    -0.080 A 
ATOM     20  C   LIG    1       -1.239   3.160   0.026  0.00  0.00    +0.200 A 
BRANCH  20  21
ATOM     21  O   LIG    1       -2.416   3.835   0.051  0.00  0.00    -0.280 OA
BRANCH  21  22
ATOM     22  C   LIG    1       -2.346   5.262   0.060  0.00  0.00    +0.320 C 
BRANCH  22  23
ATOM     23  C   LIG    1       -3.740   5.833   0.087  0.00  0.00    +0.040 A 
ATOM     24  C   LIG    1       -4.835   5.067   0.099  0.00  0.00    -0.020 A 
ATOM     25  S   LIG    1       -6.240   6.130   0.130  0.00  0.00    +0.130 S 
ATOM     26  C   LIG    1       -5.215   7.499   0.123  0.00  0.00    +0.220 A 
ATOM     27  N   LIG    1       -3.979   7.129   0.106  0.00  0.00    -0.470 NA
ENDBRANCH  22  23
ENDBRANCH  21  22
ENDBRANCH  20  21
ENDBRANCH   3  15
TORSDOF 7
