REMARK  Name = ZINCrg000000oJv3.0
REMARK                            x       y       z     vdW  Elec       q    Type
REMARK                         _______ _______ _______ _____ _____    ______ ____
ROOT
ATOM      1  C   LIG    1        1.082   2.335   0.083  0.00  0.00    -0.080 A 
ATOM      2  C   LIG    1        2.388   1.844   0.028  0.00  0.00    +0.030 A 
ATOM      3  C   LIG    1        3.453   2.720   0.064  0.00  0.00    +0.120 A 
ATOM      4  C   LIG    1        3.229   4.082   0.162  0.00  0.00    -0.660 A 
ATOM      5  C   LIG    1        1.938   4.575   0.221  0.00  0.00    +0.130 A 
ATOM      6  C   LIG    1        0.864   3.710   0.182  0.00  0.00    +0.070 A 
ENDROOT
BRANCH   1   9
ATOM      7  C   LIG    1        1.329  -0.168  -1.198  0.00  0.00    +0.300 C 
ATOM      8  N   LIG    1        0.077   0.186  -0.524  0.00  0.00    -0.600 N 
ATOM      9  C   LIG    1       -0.064   1.402   0.041  0.00  0.00    +0.560 C 
ATOM     10  O   LIG    1       -1.135   1.733   0.512  0.00  0.00    -0.520 OA
BRANCH   8  11
ATOM     11  C   LIG    1       -1.022  -0.781  -0.465  0.00  0.00    +0.270 C 
ATOM     12  C   LIG    1       -0.549  -2.075   0.221  0.00  0.00    +0.060 C 
ATOM     13  C   LIG    1       -1.595  -3.179  -0.032  0.00  0.00    -0.300 C 
ATOM     14  S   LIG    1       -2.385  -2.732  -1.620  0.00  0.00    +2.400 S 
ATOM     15  O   LIG    1       -2.020  -3.680  -2.614  0.00  0.00    -0.930 OA
ATOM     16  O   LIG    1       -3.756  -2.434  -1.396  0.00  0.00    -0.930 OA
ATOM     17  C   LIG    1       -1.462  -1.173  -1.899  0.00  0.00    -0.320 C 
ENDBRANCH   8  11
ENDBRANCH   1   9
BRANCH   4  18
ATOM     18  S   LIG    1        4.595   5.194   0.213  0.00  0.00    +2.700 S 
ATOM     19  O   LIG    1        4.107   6.450  -0.236  0.00  0.00    -0.950 OA
ATOM     20  O   LIG    1        5.685   4.519  -0.401  0.00  0.00    -0.950 OA
BRANCH  18  21
ATOM     21  N   LIG    1        5.005   5.394   1.805  0.00  0.00    -1.110 NA
ATOM     22  H   LIG    1        4.906   6.262   2.226  0.00  0.00    +0.420 HD
BRANCH  21  23
ATOM     23  C   LIG    1        5.519   4.260   2.577  0.00  0.00    +0.400 C 
BRANCH  23  24
ATOM     24  C   LIG    1        6.153   4.763   3.848  0.00  0.00    -0.040 A 
ATOM     25  C   LIG    1        5.523   4.945   5.022  0.00  0.00    -0.030 A 
ATOM     26  C   LIG    1        6.491   5.423   5.936  0.00  0.00    -0.070 A 
ATOM     27  C   LIG    1        7.652   5.512   5.263  0.00  0.00    +0.190 A 
ATOM     28  O   LIG    1        7.441   5.111   3.999  0.00  0.00    -0.170 OA
ENDBRANCH  23  24
ENDBRANCH  21  23
ENDBRANCH  18  21
ENDBRANCH   4  18
TORSDOF 6
