REMARK  Name = ZINCpk00000KfKRo.0
REMARK                            x       y       z     vdW  Elec       q    Type
REMARK                         _______ _______ _______ _____ _____    ______ ____
ROOT
ATOM      1  C   LIG    1       -2.974   2.555  -1.492  0.00  0.00    +0.570 C 
ATOM      2  N   LIG    1       -2.223   1.463  -1.246  0.00  0.00    -0.600 N 
ATOM      3  C   LIG    1       -0.771   1.528  -1.500  0.00  0.00    +0.280 C 
ATOM      4  C   LIG    1        0.024   0.837  -0.380  0.00  0.00    +0.050 C 
ATOM      5  C   LIG    1       -0.601   1.161   0.959  0.00  0.00    +0.220 C 
ATOM      6  N   LIG    1       -1.568   0.119   1.300  0.00  0.00    -0.510 N 
ATOM      7  C   LIG    1       -2.881   0.296   0.807  0.00  0.00    +0.180 C 
ATOM      8  C   LIG    1       -2.873   0.270  -0.741  0.00  0.00    +0.300 C 
ATOM      9  O   LIG    1       -2.439   3.611  -1.770  0.00  0.00    -0.530 OA
ENDROOT
BRANCH   1  14
ATOM     10  C   LIG    1       -7.114   0.436   1.776  0.00  0.00    +0.180 C 
ATOM     11  C   LIG    1       -7.400   1.200   0.509  0.00  0.00    +0.150 A 
ATOM     12  C   LIG    1       -6.458   1.749  -0.345  0.00  0.00    -0.270 A 
ATOM     13  C   LIG    1       -5.052   1.800  -0.370  0.00  0.00    +0.190 A 
ATOM     14  C   LIG    1       -4.445   2.469  -1.425  0.00  0.00    -0.230 A 
ATOM     15  C   LIG    1       -5.230   3.061  -2.433  0.00  0.00    +0.410 A 
ATOM     16  N   LIG    1       -6.534   3.014  -2.421  0.00  0.00    -0.470 NA
ATOM     17  C   LIG    1       -7.207   2.393  -1.437  0.00  0.00    +0.280 A 
ATOM     18  N   LIG    1       -8.486   2.197  -1.181  0.00  0.00    -0.290 NA
ATOM     19  N   LIG    1       -8.610   1.468   0.007  0.00  0.00    -0.400 N 
ATOM     20  H   LIG    1       -9.451   1.198   0.408  0.00  0.00    +0.450 HD
ENDBRANCH   1  14
BRANCH   6  21
ATOM     21  C   LIG    1       -1.578  -0.123   2.670  0.00  0.00    +0.250 A 
ATOM     22  C   LIG    1       -2.188   0.783   3.536  0.00  0.00    +0.000 A 
ATOM     23  C   LIG    1       -2.171   0.496   4.892  0.00  0.00    +0.050 A 
ATOM     24  C   LIG    1       -1.549  -0.675   5.303  0.00  0.00    +0.220 A 
ATOM     25  N   LIG    1       -0.997  -1.476   4.414  0.00  0.00    -0.230 NA
ATOM     26  N   LIG    1       -1.014  -1.219   3.156  0.00  0.00    -0.220 NA
ENDBRANCH   6  21
TORSDOF 2
