REMARK  Name = ZINCnE000001Mo9J.0
REMARK                            x       y       z     vdW  Elec       q    Type
REMARK                         _______ _______ _______ _____ _____    ______ ____
ROOT
ATOM      1  C   LIG    1       -4.017   2.748   1.490  0.00  0.00    +0.010 C 
ATOM      2  C   LIG    1       -3.650   3.117   0.051  0.00  0.00    +0.240 C 
ENDROOT
BRANCH   2   3
ATOM      3  N   LIG    1       -2.380   3.848   0.043  0.00  0.00    -0.720 N 
ATOM      4  H   LIG    1       -2.378   4.817   0.047  0.00  0.00    +0.390 HD
BRANCH   3   5
ATOM      5  C   LIG    1       -1.183   3.154   0.029  0.00  0.00    +0.390 A 
ATOM      6  C   LIG    1       -1.198   1.760   0.017  0.00  0.00    -0.130 A 
ATOM      7  C   LIG    1       -0.013   1.076   0.008  0.00  0.00    +0.120 A 
ATOM      8  C   LIG    1        1.185   1.811   0.001  0.00  0.00    -0.240 A 
ATOM      9  C   LIG    1        1.123   3.207   0.008  0.00  0.00    +0.330 A 
ATOM     10  N   LIG    1       -0.039   3.824   0.022  0.00  0.00    -0.560 NA
BRANCH   8  11
ATOM     11  C   LIG    1        2.484   1.121  -0.015  0.00  0.00    +0.530 C 
ATOM     12  O   LIG    1        3.522   1.769  -0.021  0.00  0.00    -0.690 OA
ATOM     13  O   LIG    1        2.528  -0.102  -0.021  0.00  0.00    -0.690 OA
ENDBRANCH   8  11
ENDBRANCH   3   5
ENDBRANCH   2   3
BRANCH   2  14
ATOM     14  C   LIG    1       -4.749   3.999  -0.545  0.00  0.00    +0.120 C 
BRANCH  14  15
ATOM     15  C   LIG    1       -4.450   4.262  -1.999  0.00  0.00    -0.170 A 
ATOM     16  C   LIG    1       -3.818   5.334  -2.502  0.00  0.00    +0.240 A 
ATOM     17  N   LIG    1       -3.726   5.224  -3.863  0.00  0.00    -0.590 N 
ATOM     18  H   LIG    1       -3.308   5.876  -4.448  0.00  0.00    +0.420 HD
ATOM     19  C   LIG    1       -4.319   4.052  -4.280  0.00  0.00    +0.090 A 
ATOM     20  C   LIG    1       -4.506   3.466  -5.527  0.00  0.00    +0.030 A 
ATOM     21  C   LIG    1       -5.154   2.255  -5.628  0.00  0.00    +0.010 A 
ATOM     22  C   LIG    1       -5.628   1.608  -4.493  0.00  0.00    +0.070 A 
ATOM     23  C   LIG    1       -5.455   2.172  -3.247  0.00  0.00    +0.020 A 
ATOM     24  F   LIG    1       -6.262   0.421  -4.611  0.00  0.00    -0.140 F 
ATOM     25  C   LIG    1       -4.798   3.399  -3.130  0.00  0.00    -0.070 A 
ENDBRANCH  14  15
ENDBRANCH   2  14
TORSDOF 5
