REMARK  Name = ZINCrD000000D7br.0
REMARK                            x       y       z     vdW  Elec       q    Type
REMARK                         _______ _______ _______ _____ _____    ______ ____
ROOT
ATOM      1  S   LIG    1       -1.789   4.505   1.399  0.00  0.00    +2.700 S 
ATOM      2  O   LIG    1       -0.914   5.530   1.850  0.00  0.00    -0.940 OA
ATOM      3  O   LIG    1       -2.416   3.578   2.275  0.00  0.00    -0.940 OA
ENDROOT
BRANCH   1  11
ATOM      4  O   LIG    1       -5.635   9.484  -2.528  0.00  0.00    -0.540 OA
ATOM      5  C   LIG    1       -5.223   8.530  -1.896  0.00  0.00    +0.690 A 
ATOM      6  N   LIG    1       -5.936   7.426  -1.605  0.00  0.00    -0.640 N 
ATOM      7  H   LIG    1       -6.857   7.260  -1.864  0.00  0.00    +0.440 HD
ATOM      8  C   LIG    1       -5.128   6.561  -0.871  0.00  0.00    +0.150 A 
ATOM      9  C   LIG    1       -5.333   5.307  -0.317  0.00  0.00    +0.020 A 
ATOM     10  C   LIG    1       -4.312   4.685   0.374  0.00  0.00    +0.150 A 
ATOM     11  C   LIG    1       -3.084   5.309   0.516  0.00  0.00    -0.670 A 
ATOM     12  C   LIG    1       -2.872   6.561  -0.028  0.00  0.00    +0.150 A 
ATOM     13  C   LIG    1       -3.889   7.190  -0.728  0.00  0.00    +0.070 A 
ATOM     14  N   LIG    1       -3.984   8.417  -1.380  0.00  0.00    -0.640 N 
ATOM     15  H   LIG    1       -3.278   9.079  -1.451  0.00  0.00    +0.440 HD
ENDBRANCH   1  11
BRANCH   1  16
ATOM     16  N   LIG    1       -0.931   3.607   0.304  0.00  0.00    -0.990 NA
ATOM     17  C   LIG    1        0.218   4.184  -0.410  0.00  0.00    +0.310 C 
ATOM     18  C   LIG    1        1.484   3.436   0.017  0.00  0.00    +0.120 C 
ATOM     19  C   LIG    1        1.208   1.947   0.001  0.00  0.00    -0.160 A 
ATOM     20  C   LIG    1       -0.017   1.387   0.010  0.00  0.00    -0.110 A 
ATOM     21  C   LIG    1        0.002  -0.004   0.002  0.00  0.00    +0.020 A 
ATOM     22  C   LIG    1        1.208  -0.563  -0.018  0.00  0.00    -0.040 A 
ATOM     23  S   LIG    1        2.439   0.691  -0.026  0.00  0.00    +0.110 S 
ATOM     24  C   LIG    1       -1.298   2.213   0.020  0.00  0.00    +0.420 C 
BRANCH  24  25
ATOM     25  C   LIG    1       -1.972   2.126  -1.326  0.00  0.00    -0.190 A 
ATOM     26  C   LIG    1       -3.005   1.335  -1.619  0.00  0.00    +0.020 A 
ATOM     27  C   LIG    1       -3.458   1.426  -2.924  0.00  0.00    +0.010 A 
ATOM     28  C   LIG    1       -2.792   2.291  -3.690  0.00  0.00    -0.060 A 
ATOM     29  S   LIG    1       -1.520   3.058  -2.748  0.00  0.00    +0.120 S 
ENDBRANCH  24  25
ENDBRANCH   1  16
TORSDOF 3
