REMARK  Name = ZINCrg000000sc6a.0
REMARK                            x       y       z     vdW  Elec       q    Type
REMARK                         _______ _______ _______ _____ _____    ______ ____
ROOT
ATOM      1  C   LIG    1       -5.252   4.729   5.999  0.00  0.00    +0.130 C 
ATOM      2  C   LIG    1       -4.046   4.541   5.114  0.00  0.00    +0.040 A 
ATOM      3  C   LIG    1       -3.305   3.380   5.192  0.00  0.00    -0.010 A 
ATOM      4  C   LIG    1       -2.197   3.207   4.381  0.00  0.00    +0.160 A 
ATOM      5  C   LIG    1       -1.827   4.194   3.486  0.00  0.00    -0.690 A 
ATOM      6  C   LIG    1       -2.557   5.362   3.400  0.00  0.00    +0.160 A 
ATOM      7  C   LIG    1       -3.677   5.541   4.212  0.00  0.00    -0.160 A 
ENDROOT
BRANCH   7   8
ATOM      8  C   LIG    1       -4.467   6.788   4.122  0.00  0.00    +0.560 C 
ATOM      9  N   LIG    1       -4.184   7.698   3.170  0.00  0.00    -0.730 N 
ATOM     10  H   LIG    1       -3.461   7.535   2.544  0.00  0.00    +0.400 HD
ATOM     11  O   LIG    1       -5.373   6.991   4.907  0.00  0.00    -0.520 OA
BRANCH   9  12
ATOM     12  C   LIG    1       -4.966   8.933   3.081  0.00  0.00    +0.280 C 
BRANCH  12  13
ATOM     13  C   LIG    1       -4.443   9.786   1.924  0.00  0.00    +0.010 C 
BRANCH  13  14
ATOM     14  C   LIG    1       -5.261  11.076   1.831  0.00  0.00    +0.310 C 
BRANCH  14  15
ATOM     15  N   LIG    1       -4.760  11.893   0.722  0.00  0.00    -0.460 N 
ATOM     16  C   LIG    1       -5.188  11.849  -0.577  0.00  0.00    +0.110 A 
ATOM     17  C   LIG    1       -4.465  12.760  -1.256  0.00  0.00    +0.140 A 
ATOM     18  N   LIG    1       -3.619  13.344  -0.395  0.00  0.00    -0.490 NA
ATOM     19  C   LIG    1       -3.794  12.834   0.793  0.00  0.00    +0.380 A 
ENDBRANCH  14  15
ENDBRANCH  13  14
ENDBRANCH  12  13
ENDBRANCH   9  12
ENDBRANCH   7   8
BRANCH   5  20
ATOM     20  S   LIG    1       -0.415   3.962   2.457  0.00  0.00    +2.690 S 
ATOM     21  O   LIG    1        0.031   5.260   2.090  0.00  0.00    -0.950 OA
ATOM     22  O   LIG    1        0.411   3.013   3.117  0.00  0.00    -0.950 OA
BRANCH  20  23
ATOM     23  N   LIG    1       -0.938   3.237   1.063  0.00  0.00    -1.000 NA
ATOM     24  C   LIG    1       -0.984   1.771   0.944  0.00  0.00    +0.270 C 
ATOM     25  C   LIG    1       -0.271   1.369  -0.352  0.00  0.00    +0.220 C 
ATOM     26  O   LIG    1       -0.820   2.112  -1.443  0.00  0.00    -0.380 OA
ATOM     27  C   LIG    1       -0.637   3.526  -1.338  0.00  0.00    +0.220 C 
ATOM     28  C   LIG    1       -1.369   4.039  -0.093  0.00  0.00    +0.260 C 
ENDBRANCH  20  23
ENDBRANCH   5  20
TORSDOF 7
