REMARK  Name = ZINCnE000001TD3I.0
REMARK                            x       y       z     vdW  Elec       q    Type
REMARK                         _______ _______ _______ _____ _____    ______ ____
ROOT
ATOM      1  N   LIG    1        0.326  -2.844  -0.016  0.00  0.00    -0.650 N 
ATOM      2  H   LIG    1       -0.567  -2.475   0.063  0.00  0.00    +0.420 HD
ATOM      3  C   LIG    1        1.397  -2.025  -0.015  0.00  0.00    +0.590 C 
ATOM      4  O   LIG    1        2.520  -2.492  -0.032  0.00  0.00    -0.500 OA
ENDROOT
BRANCH   1   9
ATOM      5  C   LIG    1        1.777  -6.217   0.333  0.00  0.00    -0.120 A 
ATOM      6  C   LIG    1        0.839  -6.977  -0.371  0.00  0.00    +0.070 A 
ATOM      7  C   LIG    1       -0.254  -6.364  -0.946  0.00  0.00    -0.020 A 
ATOM      8  C   LIG    1       -0.426  -4.995  -0.829  0.00  0.00    +0.060 A 
ATOM      9  C   LIG    1        0.504  -4.228  -0.130  0.00  0.00    +0.090 A 
ATOM     10  F   LIG    1       -1.499  -4.400  -1.396  0.00  0.00    -0.150 F 
ATOM     11  C   LIG    1        1.606  -4.835   0.446  0.00  0.00    +0.090 A 
BRANCH   5  13
ATOM     12  O   LIG    1        3.096  -8.080   0.844  0.00  0.00    -0.680 OA
ATOM     13  C   LIG    1        2.946  -6.871   0.949  0.00  0.00    +0.520 C 
ATOM     14  O   LIG    1        3.766  -6.204   1.564  0.00  0.00    -0.680 OA
ENDBRANCH   5  13
ENDBRANCH   1   9
BRANCH   3  15
ATOM     15  C   LIG    1        1.206  -0.565   0.005  0.00  0.00    +0.020 A 
ATOM     16  C   LIG    1        2.244   0.300   0.006  0.00  0.00    -0.010 A 
ATOM     17  S   LIG    1        1.639   1.900   0.034  0.00  0.00    +0.190 S 
ATOM     18  C   LIG    1       -0.014   1.294   0.042  0.00  0.00    +0.130 A 
ATOM     19  N   LIG    1        0.003  -0.004   0.024  0.00  0.00    -0.440 NA
BRANCH  18  20
ATOM     20  C   LIG    1       -1.231   2.133   0.059  0.00  0.00    -0.140 A 
ATOM     21  C   LIG    1       -2.523   1.706   0.061  0.00  0.00    +0.260 A 
ATOM     22  O   LIG    1       -3.324   2.780   0.079  0.00  0.00    -0.180 OA
ATOM     23  C   LIG    1       -2.604   3.912   0.090  0.00  0.00    +0.180 A 
ATOM     24  C   LIG    1       -1.297   3.600   0.085  0.00  0.00    -0.040 A 
ENDBRANCH  18  20
ENDBRANCH   3  15
TORSDOF 4
