REMARK  Name = ZINCrD000000Ar7K.0
REMARK                            x       y       z     vdW  Elec       q    Type
REMARK                         _______ _______ _______ _____ _____    ______ ____
ROOT
ATOM      1  O   LIG    1        4.647  -0.170  -0.043  0.00  0.00    -0.510 OA
ATOM      2  C   LIG    1        3.683  -0.906  -0.038  0.00  0.00    +0.520 C 
ATOM      3  N   LIG    1        3.857  -2.243  -0.047  0.00  0.00    -0.730 N 
ATOM      4  H   LIG    1        3.086  -2.832  -0.043  0.00  0.00    +0.400 HD
ENDROOT
BRANCH   3   5
ATOM      5  C   LIG    1        5.209  -2.806  -0.063  0.00  0.00    +0.280 C 
BRANCH   5   6
ATOM      6  C   LIG    1        5.126  -4.333  -0.070  0.00  0.00    +0.160 C 
BRANCH   6   7
ATOM      7  C   LIG    1        6.517  -4.912  -0.087  0.00  0.00    +0.140 A 
ATOM      8  N   LIG    1        7.241  -5.215   0.960  0.00  0.00    -0.240 NA
ATOM      9  N   LIG    1        8.380  -5.689   0.593  0.00  0.00    -0.280 NA
ATOM     10  C   LIG    1        8.442  -5.713  -0.729  0.00  0.00    +0.200 A 
ATOM     11  C   LIG    1        9.430  -6.124  -1.644  0.00  0.00    +0.080 A 
ATOM     12  C   LIG    1        9.178  -6.034  -2.978  0.00  0.00    +0.060 A 
ATOM     13  C   LIG    1        7.947  -5.522  -3.422  0.00  0.00    +0.030 A 
ATOM     14  C   LIG    1        7.011  -5.128  -2.533  0.00  0.00    +0.230 A 
ATOM     15  N   LIG    1        7.247  -5.221  -1.193  0.00  0.00    -0.390 N 
ENDBRANCH   6   7
ENDBRANCH   5   6
ENDBRANCH   3   5
BRANCH   2  16
ATOM     16  C   LIG    1        2.292  -0.327  -0.022  0.00  0.00    +0.240 C 
BRANCH  16  17
ATOM     17  O   LIG    1        2.370   1.100  -0.015  0.00  0.00    -0.290 OA
BRANCH  17  18
ATOM     18  C   LIG    1        1.195   1.782   0.000  0.00  0.00    +0.140 A 
ATOM     19  C   LIG    1        1.208   3.147   0.007  0.00  0.00    -0.010 A 
ATOM     20  C   LIG    1       -0.006   3.853   0.022  0.00  0.00    -0.000 A 
ATOM     21  C   LIG    1       -0.032   5.259   0.029  0.00  0.00    +0.040 A 
ATOM     22  C   LIG    1       -1.226   5.911   0.043  0.00  0.00    +0.060 A 
ATOM     23  C   LIG    1       -2.429   5.205   0.050  0.00  0.00    -0.100 A 
ATOM     24  C   LIG    1       -2.442   3.843   0.044  0.00  0.00    +0.080 A 
ATOM     25 BR   LIG    1       -4.065   6.153   0.069  0.00  0.00    -0.050 Br
ATOM     26  C   LIG    1       -1.229   3.136   0.030  0.00  0.00    -0.080 A 
ATOM     27  C   LIG    1       -1.205   1.730   0.017  0.00  0.00    +0.080 A 
ATOM     28  C   LIG    1       -0.013   1.076   0.008  0.00  0.00    -0.060 A 
ENDBRANCH  17  18
ENDBRANCH  16  17
ENDBRANCH   2  16
TORSDOF 6
