REMARK  Name = ZINCpe00000yYhRo.0
REMARK                            x       y       z     vdW  Elec       q    Type
REMARK                         _______ _______ _______ _____ _____    ______ ____
ROOT
ATOM      1  C   LIG    1        0.040  -2.024   1.440  0.00  0.00    +0.550 C 
ATOM      2  N   LIG    1       -0.021  -2.704   2.602  0.00  0.00    -0.650 N 
ATOM      3  C   LIG    1       -0.201  -2.362   4.021  0.00  0.00    +0.280 C 
ATOM      4  C   LIG    1       -0.800  -3.763   4.224  0.00  0.00    +0.000 C 
ATOM      5  C   LIG    1        0.071  -4.114   3.010  0.00  0.00    +0.280 C 
ATOM      6  O   LIG    1        0.210  -2.619   0.398  0.00  0.00    -0.530 OA
ENDROOT
BRANCH   1   7
ATOM      7  C   LIG    1       -0.104  -0.523   1.437  0.00  0.00    +0.050 C 
BRANCH   7   9
ATOM      8  C   LIG    1       -1.180  -0.526  -0.817  0.00  0.00    +0.060 C 
ATOM      9  C   LIG    1        0.002  -0.004   0.002  0.00  0.00    +0.290 C 
BRANCH   9  10
ATOM     10  N   LIG    1       -0.018   1.461   0.010  0.00  0.00    -0.370 N 
ATOM     11  C   LIG    1       -1.120   2.240   0.019  0.00  0.00    +0.220 A 
ATOM     12  C   LIG    1       -0.712   3.530   0.028  0.00  0.00    -0.120 A 
ATOM     13  C   LIG    1        0.686   3.540   0.015  0.00  0.00    +0.220 A 
ATOM     14  N   LIG    1        1.104   2.300   0.004  0.00  0.00    -0.300 NA
ENDBRANCH   9  10
ENDBRANCH   7   9
ENDBRANCH   1   7
BRANCH   4  15
ATOM     15  C   LIG    1       -0.371  -4.449   5.523  0.00  0.00    +0.160 C 
BRANCH  15  16
ATOM     16  C   LIG    1       -1.364  -4.130   6.611  0.00  0.00    -0.020 A 
ATOM     17  C   LIG    1       -2.046  -5.018   7.371  0.00  0.00    +0.140 A 
ATOM     18  N   LIG    1       -2.813  -4.285   8.211  0.00  0.00    -0.270 N 
ATOM     19  N   LIG    1       -2.608  -3.039   7.961  0.00  0.00    -0.080 NA
ATOM     20  N   LIG    1       -1.749  -2.913   7.012  0.00  0.00    -0.260 NA
BRANCH  18  21
ATOM     21  C   LIG    1       -3.725  -4.818   9.226  0.00  0.00    +0.240 C 
ATOM     22  C   LIG    1       -4.018  -6.319   9.064  0.00  0.00    +0.040 C 
ATOM     23  C   LIG    1       -2.789  -6.572   9.959  0.00  0.00    +0.160 C 
ATOM     24  C   LIG    1       -3.032  -5.173  10.552  0.00  0.00    +0.080 C 
BRANCH  23  25
ATOM     25  O   LIG    1       -2.974  -7.632  10.899  0.00  0.00    -0.550 OA
ATOM     26  H   LIG    1       -2.823  -8.514  10.533  0.00  0.00    +0.380 HD
ENDBRANCH  23  25
ENDBRANCH  18  21
ENDBRANCH  15  16
ENDBRANCH   4  15
TORSDOF 7
