REMARK  Name = ZINCpe00000bz8I2.0
REMARK                            x       y       z     vdW  Elec       q    Type
REMARK                         _______ _______ _______ _____ _____    ______ ____
ROOT
ATOM      1  C   LIG    1       -5.521   5.827   0.073  0.00  0.00    +0.140 C 
ATOM      2  C   LIG    1       -5.162   5.552  -1.393  0.00  0.00    +0.310 C 
ATOM      3  N   LIG    1       -3.858   5.057  -0.927  0.00  0.00    -0.650 N 
ATOM      4  C   LIG    1       -2.938   4.177  -1.371  0.00  0.00    +0.550 C 
ATOM      5  O   LIG    1       -3.123   3.579  -2.410  0.00  0.00    -0.520 OA
ATOM      6  C   LIG    1       -4.002   5.939   0.241  0.00  0.00    +0.300 C 
ENDROOT
BRANCH   4   7
ATOM      7  C   LIG    1       -1.681   3.936  -0.576  0.00  0.00    +0.000 C 
ATOM      8  C   LIG    1       -0.778   2.890  -1.277  0.00  0.00    +0.080 C 
ATOM      9  C   LIG    1        0.066   2.303  -0.126  0.00  0.00    +0.020 C 
ATOM     10  C   LIG    1       -0.710   2.539   1.153  0.00  0.00    +0.370 C 
ATOM     11  O   LIG    1       -0.367   2.224   2.267  0.00  0.00    -0.440 OA
ATOM     12  C   LIG    1       -2.001   3.245   0.773  0.00  0.00    +0.040 C 
ENDBRANCH   4   7
BRANCH   1  14
ATOM     13  C   LIG    1       -7.240   4.114   0.293  0.00  0.00    +0.600 C 
ATOM     14  N   LIG    1       -6.116   4.685   0.771  0.00  0.00    -0.700 N 
ATOM     15  H   LIG    1       -5.701   4.339   1.577  0.00  0.00    +0.400 HD
ATOM     16  O   LIG    1       -7.708   4.486  -0.767  0.00  0.00    -0.520 OA
BRANCH  13  22
ATOM     17  N   LIG    1       -7.435   2.465   2.210  0.00  0.00    -0.420 N 
ATOM     18  C   LIG    1       -8.320   1.516   2.604  0.00  0.00    +0.220 A 
ATOM     19  C   LIG    1       -9.344   1.476   1.717  0.00  0.00    -0.130 A 
ATOM     20  C   LIG    1       -9.095   2.439   0.732  0.00  0.00    +0.070 A 
ATOM     21 CL   LIG    1      -10.722   0.424   1.792  0.00  0.00    -0.040 Cl
ATOM     22  C   LIG    1       -7.898   3.044   1.050  0.00  0.00    -0.050 A 
BRANCH  17  24
ATOM     23  C   LIG    1       -6.405   4.098   3.712  0.00  0.00    +0.040 C 
ATOM     24  C   LIG    1       -6.193   2.816   2.903  0.00  0.00    +0.290 C 
ENDBRANCH  17  24
ENDBRANCH  13  22
ENDBRANCH   1  14
BRANCH   1  25
ATOM     25  C   LIG    1       -6.278   7.138   0.298  0.00  0.00    +0.220 C 
BRANCH  25  26
ATOM     26  O   LIG    1       -6.656   7.241   1.672  0.00  0.00    -0.570 OA
ATOM     27  H   LIG    1       -7.141   8.049   1.888  0.00  0.00    +0.390 HD
ENDBRANCH  25  26
ENDBRANCH   1  25
TORSDOF 6
