REMARK  Name = ZINCrD0000072HeS.0
REMARK                            x       y       z     vdW  Elec       q    Type
REMARK                         _______ _______ _______ _____ _____    ______ ____
ROOT
ATOM      1  C   LIG    1       -0.014   1.209   0.009  0.00  0.00    +0.510 C 
ATOM      2  N   LIG    1       -1.191   1.867   0.018  0.00  0.00    -0.630 N 
ATOM      3  H   LIG    1       -1.204   2.837   0.023  0.00  0.00    +0.420 HD
ATOM      4  O   LIG    1        0.002  -0.004   0.002  0.00  0.00    -0.470 OA
ENDROOT
BRANCH   2   5
ATOM      5  C   LIG    1       -2.383   1.156   0.020  0.00  0.00    +0.050 A 
ATOM      6  C   LIG    1       -3.625   1.725   0.029  0.00  0.00    -0.100 A 
ATOM      7  C   LIG    1       -4.703   0.753   0.027  0.00  0.00    -0.040 A 
ATOM      8  C   LIG    1       -4.253  -0.507   0.018  0.00  0.00    -0.240 A 
ATOM      9  C   LIG    1       -5.146  -1.734   0.014  0.00  0.00    +0.120 C 
ATOM     10  C   LIG    1       -6.560  -1.311  -0.395  0.00  0.00    -0.010 C 
ATOM     11  C   LIG    1       -6.988  -0.111   0.456  0.00  0.00    +0.030 C 
ATOM     12  C   LIG    1       -7.527  -2.474  -0.167  0.00  0.00    +0.030 C 
ATOM     13  C   LIG    1       -6.179   1.118   0.035  0.00  0.00    +0.100 C 
ATOM     14  S   LIG    1       -2.498  -0.542   0.004  0.00  0.00    +0.330 S 
BRANCH   6  15
ATOM     15  C   LIG    1       -3.842   3.140   0.037  0.00  0.00    +0.270 C 
ATOM     16  N   LIG    1       -4.014   4.263   0.045  0.00  0.00    -0.420 NA
ENDBRANCH   6  15
ENDBRANCH   2   5
BRANCH   1  17
ATOM     17  C   LIG    1        1.280   1.980   0.001  0.00  0.00    +0.280 C 
BRANCH  17  18
ATOM     18  O   LIG    1        2.397   1.051  -0.015  0.00  0.00    -0.320 OA
BRANCH  18  19
ATOM     19  C   LIG    1        3.636   1.584  -0.024  0.00  0.00    +0.560 C 
ATOM     20  O   LIG    1        3.779   2.792  -0.019  0.00  0.00    -0.490 OA
BRANCH  19  22
ATOM     21  C   LIG    1        5.432   0.244   1.115  0.00  0.00    +0.160 A 
ATOM     22  C   LIG    1        4.810   0.707  -0.040  0.00  0.00    -0.320 A 
ATOM     23  C   LIG    1        5.408   0.251  -1.215  0.00  0.00    +0.200 A 
ATOM     24  N   LIG    1        6.442  -0.515  -1.088  0.00  0.00    -0.480 NA
ATOM     25  C   LIG    1        4.876   0.637  -2.571  0.00  0.00    +0.170 C 
ATOM     26  S   LIG    1        6.738  -0.732   0.566  0.00  0.00    +0.280 S 
BRANCH  21  28
ATOM     27  C   LIG    1        5.853  -0.066   3.523  0.00  0.00    +0.300 C 
ATOM     28  N   LIG    1        5.078   0.511   2.422  0.00  0.00    -0.680 N 
ATOM     29  H   LIG    1        4.316   1.080   2.611  0.00  0.00    +0.410 HD
ENDBRANCH  21  28
ENDBRANCH  19  22
ENDBRANCH  18  19
ENDBRANCH  17  18
ENDBRANCH   1  17
TORSDOF 7
