REMARK  Name = ZINCvU0000000Bxz.0
REMARK                            x       y       z     vdW  Elec       q    Type
REMARK                         _______ _______ _______ _____ _____    ______ ____
ROOT
ATOM      1  C   LIG    1       -2.502   1.008   0.019  0.00  0.00    +0.210 A 
ATOM      2  N   LIG    1       -2.633  -0.296   0.013  0.00  0.00    -0.260 NA
ATOM      3  N   LIG    1       -3.884  -0.601   0.018  0.00  0.00    -0.280 NA
ATOM      4  C   LIG    1       -4.601   0.499   0.026  0.00  0.00    +0.130 A 
ATOM      5  O   LIG    1       -3.745   1.539   0.034  0.00  0.00    -0.200 OA
ENDROOT
BRANCH   1  10
ATOM      6  C   LIG    1        1.172   1.783   0.000  0.00  0.00    -0.680 A 
ATOM      7  C   LIG    1        1.155   3.167   0.008  0.00  0.00    +0.150 A 
ATOM      8  C   LIG    1       -0.048   3.850   0.022  0.00  0.00    +0.020 A 
ATOM      9  C   LIG    1       -1.240   3.155   0.029  0.00  0.00    +0.110 A 
ATOM     10  C   LIG    1       -1.230   1.759   0.017  0.00  0.00    -0.040 A 
ATOM     11  C   LIG    1       -0.013   1.076   0.008  0.00  0.00    +0.190 A 
BRANCH   6  12
ATOM     12  S   LIG    1        2.709   0.923  -0.018  0.00  0.00    +2.690 S 
ATOM     13  O   LIG    1        2.455  -0.366   0.522  0.00  0.00    -0.950 OA
ATOM     14  O   LIG    1        3.675   1.815   0.522  0.00  0.00    -0.950 OA
BRANCH  12  15
ATOM     15  N   LIG    1        3.123   0.692  -1.605  0.00  0.00    -0.990 NA
BRANCH  15  17
ATOM     16  C   LIG    1        5.402   1.305  -2.245  0.00  0.00    +0.010 C 
ATOM     17  C   LIG    1        3.925   1.697  -2.307  0.00  0.00    +0.280 C 
ENDBRANCH  15  17
BRANCH  15  18
ATOM     18  C   LIG    1        2.686  -0.518  -2.307  0.00  0.00    +0.300 C 
ATOM     19  C   LIG    1        1.390  -0.227  -3.066  0.00  0.00    +0.000 C 
ENDBRANCH  15  18
ENDBRANCH  12  15
ENDBRANCH   6  12
ENDBRANCH   1  10
BRANCH   4  20
ATOM     20  S   LIG    1       -6.360   0.597   0.035  0.00  0.00    +0.080 S 
BRANCH  20  21
ATOM     21  C   LIG    1       -6.773  -1.165   0.029  0.00  0.00    +0.150 C 
BRANCH  21  22
ATOM     22  C   LIG    1       -8.271  -1.331   0.035  0.00  0.00    -0.080 A 
ATOM     23  C   LIG    1       -8.956  -1.400  -1.138  0.00  0.00    +0.050 A 
ATOM     24  C   LIG    1      -10.341  -1.554  -1.152  0.00  0.00    +0.010 A 
ATOM     25  C   LIG    1      -11.049  -1.638   0.007  0.00  0.00    +0.040 A 
ATOM     26  C   LIG    1      -10.375  -1.570   1.239  0.00  0.00    -0.050 A 
ATOM     27  C   LIG    1      -11.071  -1.653   2.457  0.00  0.00    +0.030 A 
ATOM     28  C   LIG    1      -10.386  -1.584   3.631  0.00  0.00    +0.010 A 
ATOM     29  C   LIG    1       -9.001  -1.430   3.645  0.00  0.00    +0.020 A 
ATOM     30  C   LIG    1       -8.293  -1.345   2.485  0.00  0.00    +0.020 A 
ATOM     31  C   LIG    1       -8.966  -1.420   1.253  0.00  0.00    -0.030 A 
ENDBRANCH  21  22
ENDBRANCH  20  21
ENDBRANCH   4  20
TORSDOF 8
