REMARK  Name = ZINCpk000004AOQE.0
REMARK                            x       y       z     vdW  Elec       q    Type
REMARK                         _______ _______ _______ _____ _____    ______ ____
ROOT
ATOM      1  C   LIG    1       -0.097   1.111  -2.435  0.00  0.00    +0.520 C 
ATOM      2  N   LIG    1       -0.566   1.430  -3.658  0.00  0.00    -0.670 N 
ATOM      3  H   LIG    1       -1.305   2.053  -3.746  0.00  0.00    +0.420 HD
ATOM      4  O   LIG    1        0.889   0.413  -2.327  0.00  0.00    -0.500 OA
ENDROOT
BRANCH   2   5
ATOM      5  C   LIG    1        0.014   0.864  -4.800  0.00  0.00    +0.110 A 
ATOM      6  C   LIG    1        0.672  -0.352  -4.712  0.00  0.00    +0.130 A 
ATOM      7  C   LIG    1        1.245  -0.907  -5.854  0.00  0.00    -0.130 A 
ATOM      8  C   LIG    1        1.155  -0.240  -7.079  0.00  0.00    -0.040 A 
ATOM      9  C   LIG    1        1.780  -0.861  -8.300  0.00  0.00    +0.090 C 
ATOM     10  C   LIG    1        3.048  -1.616  -7.909  0.00  0.00    +0.270 C 
ATOM     11  N   LIG    1        2.791  -2.535  -6.803  0.00  0.00    -0.730 N 
ATOM     12  H   LIG    1        3.229  -3.401  -6.792  0.00  0.00    +0.410 HD
ATOM     13  C   LIG    1        0.499   0.968  -7.158  0.00  0.00    +0.010 A 
ATOM     14  C   LIG    1        1.956  -2.202  -5.799  0.00  0.00    +0.570 C 
ATOM     15  O   LIG    1        1.790  -2.956  -4.860  0.00  0.00    -0.530 OA
ATOM     16  C   LIG    1       -0.077   1.520  -6.025  0.00  0.00    +0.100 A 
ATOM     17  F   LIG    1       -0.724   2.703  -6.108  0.00  0.00    -0.130 F 
ENDBRANCH   2   5
BRANCH   1  23
ATOM     18  C   LIG    1       -2.388   4.508   0.063  0.00  0.00    +0.550 C 
ATOM     19  N   LIG    1       -1.363   3.632   0.059  0.00  0.00    -0.610 N 
ATOM     20  C   LIG    1       -0.795   3.138   1.321  0.00  0.00    +0.270 C 
ATOM     21  C   LIG    1       -0.800   1.607   1.298  0.00  0.00    +0.020 C 
ATOM     22  C   LIG    1       -0.069   1.117   0.045  0.00  0.00    +0.060 C 
ATOM     23  C   LIG    1       -0.798   1.621  -1.202  0.00  0.00    -0.010 C 
ATOM     24  C   LIG    1       -0.794   3.153  -1.208  0.00  0.00    +0.300 C 
ATOM     25  O   LIG    1       -2.789   4.979  -0.983  0.00  0.00    -0.540 OA
BRANCH  18  27
ATOM     26  C   LIG    1       -4.094   5.679   1.331  0.00  0.00    +0.140 C 
ATOM     27  C   LIG    1       -3.020   4.894   1.334  0.00  0.00    -0.090 C 
ENDBRANCH  18  27
ENDBRANCH   1  23
TORSDOF 3
