REMARK  Name = ZINCtV00000vyA1W.0
REMARK                            x       y       z     vdW  Elec       q    Type
REMARK                         _______ _______ _______ _____ _____    ______ ____
ROOT
ATOM      1  C   LIG    1       -0.398   1.715   0.309  0.00  0.00    +0.240 C 
ATOM      2  C   LIG    1       -0.772   0.219   0.257  0.00  0.00    +0.030 C 
ATOM      3  C   LIG    1        0.501  -0.508   0.755  0.00  0.00    +0.030 C 
ATOM      4  C   LIG    1        1.642   0.333   0.130  0.00  0.00    +0.020 C 
ATOM      5  C   LIG    1        1.137   1.787   0.229  0.00  0.00    +0.020 C 
ENDROOT
BRANCH   5   6
ATOM      6  C   LIG    1        1.554   2.562  -0.995  0.00  0.00    -0.040 A 
ATOM      7  C   LIG    1        1.310   2.049  -2.255  0.00  0.00    +0.020 A 
ATOM      8  C   LIG    1        1.688   2.762  -3.377  0.00  0.00    +0.060 A 
ATOM      9  C   LIG    1        2.319   3.984  -3.239  0.00  0.00    -0.180 A 
ATOM     10  C   LIG    1        2.568   4.495  -1.979  0.00  0.00    +0.060 A 
ATOM     11  C   LIG    1        2.185   3.784  -0.857  0.00  0.00    +0.020 A 
BRANCH   9  12
ATOM     12  C   LIG    1        2.736   4.759  -4.462  0.00  0.00    +0.510 C 
ATOM     13  F   LIG    1        2.700   6.129  -4.181  0.00  0.00    -0.180 F 
ATOM     14  F   LIG    1        1.859   4.476  -5.515  0.00  0.00    -0.180 F 
ATOM     15  F   LIG    1        4.036   4.392  -4.826  0.00  0.00    -0.180 F 
ENDBRANCH   9  12
ENDBRANCH   5   6
BRANCH   1  17
ATOM     16  C   LIG    1       -1.630   1.664  -1.909  0.00  0.00    +0.330 C 
ATOM     17  N   LIG    1       -0.994   2.421  -0.828  0.00  0.00    -0.550 N 
BRANCH  17  18
ATOM     18  C   LIG    1       -0.957   3.794  -0.880  0.00  0.00    +0.430 A 
ATOM     19  N   LIG    1       -1.450   4.558  -1.837  0.00  0.00    -0.500 NA
ATOM     20  C   LIG    1       -1.179   5.826  -1.460  0.00  0.00    +0.240 A 
ATOM     21  N   LIG    1       -0.548   5.767  -0.316  0.00  0.00    -0.390 NA
ATOM     22  O   LIG    1       -0.417   4.613   0.034  0.00  0.00    +0.040 OA
BRANCH  20  23
ATOM     23  C   LIG    1       -1.533   7.059  -2.206  0.00  0.00    -0.010 A 
ATOM     24  C   LIG    1       -1.189   8.309  -1.695  0.00  0.00    +0.070 A 
ATOM     25  C   LIG    1       -1.520   9.453  -2.393  0.00  0.00    +0.020 A 
ATOM     26  C   LIG    1       -2.193   9.361  -3.598  0.00  0.00    +0.050 A 
ATOM     27  C   LIG    1       -2.537   8.124  -4.112  0.00  0.00    +0.020 A 
ATOM     28  C   LIG    1       -2.205   6.972  -3.425  0.00  0.00    -0.000 A 
ATOM     29 CL   LIG    1       -2.631   5.419  -4.074  0.00  0.00    -0.030 Cl
ENDBRANCH  20  23
ENDBRANCH  17  18
ENDBRANCH   1  17
TORSDOF 5
