REMARK  Name = ZINCpk00000KfKuw.0
REMARK                            x       y       z     vdW  Elec       q    Type
REMARK                         _______ _______ _______ _____ _____    ______ ____
ROOT
ATOM      1  C   LIG    1       -0.195   1.697  -7.141  0.00  0.00    +0.340 A 
ATOM      2  N   LIG    1       -1.030   2.144  -8.073  0.00  0.00    -0.550 NA
ATOM      3  C   LIG    1       -2.268   2.470  -7.764  0.00  0.00    +0.510 A 
ATOM      4  N   LIG    1       -2.726   2.369  -6.534  0.00  0.00    -0.520 NA
ATOM      5  C   LIG    1       -1.951   1.931  -5.547  0.00  0.00    +0.190 A 
ATOM      6  C   LIG    1       -2.515   1.840  -4.154  0.00  0.00    +0.130 C 
ATOM      7  C   LIG    1       -1.624   0.946  -3.290  0.00  0.00    +0.180 C 
ATOM      8  N   LIG    1       -0.231   1.398  -3.428  0.00  0.00    -0.520 NA
ATOM      9  C   LIG    1        0.283   1.068  -4.763  0.00  0.00    +0.270 C 
ATOM     10  C   LIG    1       -0.652   1.577  -5.824  0.00  0.00    -0.160 A 
ENDROOT
BRANCH   1  12
ATOM     11  C   LIG    1        1.135   0.241  -8.424  0.00  0.00    +0.230 C 
ATOM     12  N   LIG    1        1.107   1.355  -7.467  0.00  0.00    -0.500 N 
ATOM     13  C   LIG    1        1.841   2.516  -7.989  0.00  0.00    +0.230 C 
ENDBRANCH   1  12
BRANCH   8  14
ATOM     14  C   LIG    1        0.618   0.817  -2.379  0.00  0.00    +0.170 C 
BRANCH  14  15
ATOM     15  C   LIG    1        0.205   1.381  -1.019  0.00  0.00    +0.230 C 
BRANCH  15  16
ATOM     16  O   LIG    1        0.361   2.802  -1.025  0.00  0.00    -0.530 OA
ATOM     17  H   LIG    1        1.266   3.098  -1.194  0.00  0.00    +0.370 HD
ENDBRANCH  15  16
BRANCH  15  18
ATOM     18  C   LIG    1        1.089   0.776   0.074  0.00  0.00    +0.160 C 
BRANCH  18  19
ATOM     19  O   LIG    1        0.629   1.213   1.355  0.00  0.00    -0.300 OA
BRANCH  19  20
ATOM     20  C   LIG    1        1.310   0.762   2.442  0.00  0.00    +0.120 A 
ATOM     21  C   LIG    1        2.395  -0.086   2.278  0.00  0.00    -0.040 A 
ATOM     22  C   LIG    1        3.089  -0.540   3.383  0.00  0.00    +0.030 A 
ATOM     23  C   LIG    1        2.696  -0.155   4.654  0.00  0.00    +0.060 A 
ATOM     24  C   LIG    1        1.611   0.688   4.819  0.00  0.00    +0.030 A 
ATOM     25  F   LIG    1        3.373  -0.603   5.734  0.00  0.00    -0.140 F 
ATOM     26  C   LIG    1        0.918   1.147   3.715  0.00  0.00    +0.020 A 
ENDBRANCH  19  20
ENDBRANCH  18  19
ENDBRANCH  15  18
ENDBRANCH  14  15
ENDBRANCH   8  14
TORSDOF 7
