REMARK  Name = ZINCrD0000074hT7.0
REMARK                            x       y       z     vdW  Elec       q    Type
REMARK                         _______ _______ _______ _____ _____    ______ ____
ROOT
ATOM      1  O   LIG    1        2.257   7.360   0.019  0.00  0.00    -0.320 OA
ENDROOT
BRANCH   1   2
ATOM      2  C   LIG    1        1.406   8.398   0.032  0.00  0.00    +0.480 C 
ATOM      3  O   LIG    1        0.214   8.202   0.043  0.00  0.00    -0.490 OA
BRANCH   2   4
ATOM      4  C   LIG    1        1.938   9.808   0.034  0.00  0.00    +0.150 C 
BRANCH   4   5
ATOM      5  S   LIG    1        0.554  10.975   0.054  0.00  0.00    +0.060 S 
BRANCH   5   6
ATOM      6  C   LIG    1        1.438  12.499   0.052  0.00  0.00    +0.200 A 
ATOM      7  C   LIG    1        0.743  13.736   0.065  0.00  0.00    -0.160 A 
ATOM      8  C   LIG    1       -0.680  14.016   0.081  0.00  0.00    +0.060 A 
ATOM      9  C   LIG    1       -0.992  15.298   0.090  0.00  0.00    -0.010 A 
ATOM     10  S   LIG    1        0.443  16.305   0.081  0.00  0.00    +0.180 S 
ATOM     11  C   LIG    1        1.507  14.906   0.064  0.00  0.00    +0.100 A 
ATOM     12  N   LIG    1        2.843  14.812   0.051  0.00  0.00    -0.490 NA
ATOM     13  C   LIG    1        3.440  13.643   0.040  0.00  0.00    +0.540 A 
ATOM     14  N   LIG    1        2.764  12.508   0.045  0.00  0.00    -0.530 NA
ENDBRANCH   5   6
ENDBRANCH   4   5
ENDBRANCH   2   4
ENDBRANCH   1   2
BRANCH   1  15
ATOM     15  C   LIG    1        1.674   6.030   0.018  0.00  0.00    +0.270 C 
BRANCH  15  26
ATOM     16  C   LIG    1        4.329   2.658   1.231  0.00  0.00    +0.050 C 
ATOM     17  C   LIG    1        3.446   2.597  -0.017  0.00  0.00    +0.240 C 
ATOM     18  C   LIG    1        2.611   1.306  -0.016  0.00  0.00    +0.110 C 
ATOM     19  C   LIG    1        1.175   1.781   0.000  0.00  0.00    -0.130 A 
ATOM     20  C   LIG    1       -0.013   1.076   0.008  0.00  0.00    +0.060 A 
ATOM     21  C   LIG    1       -1.220   1.749   0.017  0.00  0.00    -0.010 A 
ATOM     22  C   LIG    1       -1.236   3.132   0.032  0.00  0.00    +0.050 A 
ATOM     23  C   LIG    1       -0.053   3.840   0.024  0.00  0.00    -0.030 A 
ATOM     24  C   LIG    1        1.169   3.167   0.008  0.00  0.00    +0.130 A 
ATOM     25  N   LIG    1        2.467   3.688  -0.002  0.00  0.00    -0.550 N 
ATOM     26  C   LIG    1        2.774   5.000   0.002  0.00  0.00    +0.530 C 
ATOM     27  O   LIG    1        3.934   5.352  -0.008  0.00  0.00    -0.490 OA
ENDBRANCH  15  26
ENDBRANCH   1  15
TORSDOF 6
