REMARK  Name = ZINCrH000004vIZU.0
REMARK                            x       y       z     vdW  Elec       q    Type
REMARK                         _______ _______ _______ _____ _____    ______ ____
ROOT
ATOM      1  S   LIG    1       -3.947   5.983   0.857  0.00  0.00    +2.700 S 
ATOM      2  O   LIG    1       -5.053   5.138   1.148  0.00  0.00    -0.940 OA
ATOM      3  O   LIG    1       -3.975   6.977  -0.157  0.00  0.00    -0.930 OA
ENDROOT
BRANCH   1  11
ATOM      4  O   LIG    1       -0.893  -0.674   0.501  0.00  0.00    -0.510 OA
ATOM      5  C   LIG    1       -0.748   0.528   0.437  0.00  0.00    +0.520 C 
ATOM      6  C   LIG    1        0.639   1.111   0.446  0.00  0.00    +0.090 C 
ATOM      7  C   LIG    1        0.690   2.346  -0.454  0.00  0.00    +0.110 C 
ATOM      8  C   LIG    1       -0.466   3.256  -0.127  0.00  0.00    -0.070 A 
ATOM      9  C   LIG    1       -0.319   4.625  -0.219  0.00  0.00    +0.080 A 
ATOM     10  C   LIG    1       -1.383   5.457   0.083  0.00  0.00    -0.020 A 
ATOM     11  C   LIG    1       -2.595   4.919   0.475  0.00  0.00    -0.630 A 
ATOM     12  C   LIG    1       -2.748   3.549   0.568  0.00  0.00    +0.110 A 
ATOM     13 BR   LIG    1       -1.179   7.333  -0.042  0.00  0.00    -0.010 Br
ATOM     14  C   LIG    1       -1.682   2.713   0.267  0.00  0.00    +0.160 A 
ATOM     15  N   LIG    1       -1.829   1.325   0.353  0.00  0.00    -0.660 N 
ATOM     16  H   LIG    1       -2.717   0.934   0.356  0.00  0.00    +0.420 HD
ENDBRANCH   1  11
BRANCH   1  17
ATOM     17  N   LIG    1       -3.573   6.764   2.268  0.00  0.00    -1.000 NA
ATOM     18  C   LIG    1       -3.052   8.139   2.377  0.00  0.00    +0.270 C 
ATOM     19  C   LIG    1       -2.306   8.175   3.734  0.00  0.00    +0.040 C 
ATOM     20  C   LIG    1       -3.217   7.278   4.614  0.00  0.00    +0.040 C 
ATOM     21  C   LIG    1       -3.711   6.204   3.621  0.00  0.00    +0.240 C 
BRANCH  21  22
ATOM     22  C   LIG    1       -5.178   5.870   3.899  0.00  0.00    +0.070 C 
BRANCH  22  23
ATOM     23  C   LIG    1       -5.301   5.253   5.268  0.00  0.00    -0.080 A 
ATOM     24  C   LIG    1       -5.201   3.883   5.421  0.00  0.00    +0.000 A 
ATOM     25  C   LIG    1       -5.310   3.318   6.678  0.00  0.00    +0.000 A 
ATOM     26  C   LIG    1       -5.530   4.122   7.780  0.00  0.00    +0.000 A 
ATOM     27  C   LIG    1       -5.636   5.492   7.627  0.00  0.00    +0.000 A 
ATOM     28  C   LIG    1       -5.521   6.057   6.371  0.00  0.00    +0.000 A 
ENDBRANCH  22  23
ENDBRANCH  21  22
ENDBRANCH   1  17
TORSDOF 4
