REMARK  Name = ZINCpe00000MJLvK.0
REMARK                            x       y       z     vdW  Elec       q    Type
REMARK                         _______ _______ _______ _____ _____    ______ ____
ROOT
ATOM      1  C   LIG    1       -4.184  -0.526   0.019  0.00  0.00    +0.310 C 
ENDROOT
BRANCH   1   3
ATOM      2  C   LIG    1       -5.654  -2.547   0.013  0.00  0.00    +0.220 C 
ATOM      3  C   LIG    1       -4.204  -2.055   0.011  0.00  0.00    +0.160 C 
ATOM      4  O   LIG    1       -3.543  -2.536  -1.162  0.00  0.00    -0.370 OA
ATOM      5  C   LIG    1       -3.539  -3.962  -1.277  0.00  0.00    +0.230 C 
ATOM      6  C   LIG    1       -4.982  -4.473  -1.288  0.00  0.00    +0.150 C 
ATOM      7  N   LIG    1       -5.668  -4.015  -0.072  0.00  0.00    -0.540 NA
ATOM      8  C   LIG    1       -7.042  -4.532  -0.016  0.00  0.00    +0.210 C 
BRANCH   2  14
ATOM      9  C   LIG    1       -5.974  -4.205   2.657  0.00  0.00    +0.330 C 
ATOM     10  N   LIG    1       -6.465  -2.843   2.433  0.00  0.00    -0.440 N 
ATOM     11  C   LIG    1       -7.134  -2.076   3.322  0.00  0.00    +0.390 A 
ATOM     12  N   LIG    1       -7.405  -0.928   2.764  0.00  0.00    -0.490 NA
ATOM     13  C   LIG    1       -6.919  -0.919   1.513  0.00  0.00    +0.160 A 
ATOM     14  C   LIG    1       -6.332  -2.109   1.285  0.00  0.00    -0.030 A 
ENDBRANCH   2  14
ENDBRANCH   1   3
BRANCH   1  15
ATOM     15  N   LIG    1       -2.796  -0.056   0.015  0.00  0.00    -0.720 N 
ATOM     16  H   LIG    1       -2.067  -0.696   0.009  0.00  0.00    +0.400 HD
ATOM     17  C   LIG    1       -2.532   1.266   0.020  0.00  0.00    +0.590 C 
ATOM     18  O   LIG    1       -3.446   2.068   0.028  0.00  0.00    -0.510 OA
BRANCH  17  19
ATOM     19  C   LIG    1       -1.138   1.738   0.016  0.00  0.00    -0.040 A 
ATOM     20  C   LIG    1       -0.706   3.053   0.024  0.00  0.00    +0.030 A 
ATOM     21  C   LIG    1        0.689   2.984   0.011  0.00  0.00    +0.060 A 
ATOM     22  N   LIG    1        1.028   1.720   0.002  0.00  0.00    -0.260 NA
ATOM     23  N   LIG    1       -0.011   0.966   0.007  0.00  0.00    -0.380 N 
ATOM     24  H   LIG    1        0.002  -0.004   0.002  0.00  0.00    +0.440 HD
BRANCH  21  25
ATOM     25  C   LIG    1        1.635   4.157   0.008  0.00  0.00    +0.040 C 
ATOM     26  C   LIG    1        1.062   5.526  -0.363  0.00  0.00    +0.030 C 
ATOM     27  C   LIG    1        1.974   4.787  -1.345  0.00  0.00    +0.030 C 
ENDBRANCH  21  25
ENDBRANCH  17  19
ENDBRANCH   1  15
TORSDOF 5
