REMARK  Name = ZINCpk000000nPpv.0
REMARK                            x       y       z     vdW  Elec       q    Type
REMARK                         _______ _______ _______ _____ _____    ______ ____
ROOT
ATOM      1  C   LIG    1       -1.263  -0.763   0.009  0.00  0.00    +0.560 C 
ATOM      2  N   LIG    1       -1.240  -2.111   0.002  0.00  0.00    -0.730 N 
ATOM      3  H   LIG    1       -0.392  -2.582  -0.008  0.00  0.00    +0.400 HD
ATOM      4  O   LIG    1       -2.326  -0.173   0.022  0.00  0.00    -0.520 OA
ENDROOT
BRANCH   1   8
ATOM      5  C   LIG    1        2.381   1.422  -0.013  0.00  0.00    -0.030 A 
ATOM      6  C   LIG    1        2.404   0.037  -0.021  0.00  0.00    +0.000 A 
ATOM      7  C   LIG    1        1.226  -0.678  -0.013  0.00  0.00    +0.060 A 
ATOM      8  C   LIG    1        0.002  -0.004   0.002  0.00  0.00    -0.180 A 
ATOM      9  C   LIG    1       -0.017   1.397   0.010  0.00  0.00    +0.170 A 
ATOM     10  C   LIG    1        1.178   2.101   0.002  0.00  0.00    -0.020 A 
BRANCH   5  12
ATOM     11  C   LIG    1        4.495   1.827   1.218  0.00  0.00    +0.030 C 
ATOM     12  C   LIG    1        3.676   2.193  -0.021  0.00  0.00    +0.020 C 
ATOM     13  C   LIG    1        4.471   1.841  -1.280  0.00  0.00    +0.030 C 
ENDBRANCH   5  12
BRANCH   9  14
ATOM     14  O   LIG    1       -1.199   2.063   0.019  0.00  0.00    -0.480 OA
ATOM     15  H   LIG    1       -1.538   2.251   0.905  0.00  0.00    +0.400 HD
ENDBRANCH   9  14
ENDBRANCH   1   8
BRANCH   2  16
ATOM     16  C   LIG    1       -2.496  -2.865   0.009  0.00  0.00    +0.230 C 
ATOM     17  C   LIG    1       -2.982  -3.035   1.452  0.00  0.00    +0.040 C 
ATOM     18  C   LIG    1       -4.262  -3.875   1.458  0.00  0.00    +0.200 C 
ATOM     19  N   LIG    1       -3.991  -5.186   0.856  0.00  0.00    -0.450 N 
ATOM     20  C   LIG    1       -3.568  -5.051  -0.544  0.00  0.00    +0.240 C 
ATOM     21  C   LIG    1       -2.268  -4.246  -0.610  0.00  0.00    +0.040 C 
BRANCH  19  22
ATOM     22  C   LIG    1       -5.091  -6.018   0.963  0.00  0.00    +0.420 A 
ATOM     23  N   LIG    1       -5.712  -6.623  -0.025  0.00  0.00    -0.360 NA
ATOM     24  N   LIG    1       -6.692  -7.323   0.420  0.00  0.00    -0.020 NA
ATOM     25  N   LIG    1       -6.775  -7.213   1.702  0.00  0.00    -0.080 NA
ATOM     26  N   LIG    1       -5.734  -6.358   2.104  0.00  0.00    -0.390 N 
ATOM     27  C   LIG    1       -5.413  -5.927   3.467  0.00  0.00    +0.390 C 
ENDBRANCH  19  22
ENDBRANCH   2  16
TORSDOF 5
