REMARK  Name = ZINCqH0000004Uo8.0
REMARK                            x       y       z     vdW  Elec       q    Type
REMARK                         _______ _______ _______ _____ _____    ______ ____
ROOT
ATOM      1  N   LIG    1        4.914  -3.428   1.619  0.00  0.00    -0.650 N 
ATOM      2  H   LIG    1        5.309  -2.780   2.222  0.00  0.00    +0.420 HD
ATOM      3  C   LIG    1        5.626  -4.501   1.220  0.00  0.00    +0.570 C 
ATOM      4  O   LIG    1        5.103  -5.356   0.533  0.00  0.00    -0.500 OA
ENDROOT
BRANCH   3   5
ATOM      5  C   LIG    1        7.046  -4.637   1.621  0.00  0.00    +0.110 A 
ATOM      6  N   LIG    1        7.600  -3.698   2.363  0.00  0.00    -0.440 NA
ATOM      7  C   LIG    1        8.872  -3.782   2.751  0.00  0.00    +0.120 A 
ATOM      8  C   LIG    1        9.455  -2.778   3.548  0.00  0.00    +0.050 A 
ATOM      9  C   LIG    1       10.757  -2.887   3.925  0.00  0.00    +0.030 A 
ATOM     10  C   LIG    1       11.530  -3.980   3.535  0.00  0.00    +0.030 A 
ATOM     11  C   LIG    1       11.003  -4.971   2.764  0.00  0.00    +0.040 A 
ATOM     12  C   LIG    1        9.662  -4.894   2.356  0.00  0.00    -0.080 A 
ATOM     13  C   LIG    1        9.082  -5.899   1.559  0.00  0.00    +0.090 A 
ATOM     14  C   LIG    1        7.773  -5.761   1.197  0.00  0.00    +0.030 A 
ENDBRANCH   3   5
BRANCH   1  19
ATOM     15  C   LIG    1        1.819  -1.800   0.454  0.00  0.00    +0.000 A 
ATOM     16  C   LIG    1        1.002  -2.913   0.255  0.00  0.00    +0.060 A 
ATOM     17  C   LIG    1        1.487  -4.180   0.510  0.00  0.00    +0.040 A 
ATOM     18  C   LIG    1        2.781  -4.352   0.961  0.00  0.00    +0.040 A 
ATOM     19  C   LIG    1        3.604  -3.249   1.162  0.00  0.00    +0.150 A 
ATOM     20  C   LIG    1        3.127  -1.973   0.905  0.00  0.00    -0.010 A 
BRANCH  15  25
ATOM     21  N   LIG    1        1.829   0.737   0.636  0.00  0.00    -0.470 N 
ATOM     22  C   LIG    1        1.029   1.718   0.137  0.00  0.00    +0.380 A 
ATOM     23  N   LIG    1        0.093   1.140  -0.567  0.00  0.00    -0.290 NA
ATOM     24  N   LIG    1        0.249  -0.136  -0.544  0.00  0.00    -0.280 NA
ATOM     25  C   LIG    1        1.302  -0.441   0.181  0.00  0.00    +0.220 A 
BRANCH  21  27
ATOM     26  C   LIG    1        4.260   1.006   0.606  0.00  0.00    +0.050 C 
ATOM     27  C   LIG    1        3.011   0.907   1.485  0.00  0.00    +0.290 C 
ENDBRANCH  21  27
ENDBRANCH  15  25
ENDBRANCH   1  19
TORSDOF 4
