REMARK  Name = ZINCrg000000tIDd.0
REMARK                            x       y       z     vdW  Elec       q    Type
REMARK                         _______ _______ _______ _____ _____    ______ ____
ROOT
ATOM      1  O   LIG    1        1.063  -0.598  -0.011  0.00  0.00    -0.520 OA
ATOM      2  C   LIG    1        0.002  -0.004   0.002  0.00  0.00    +0.560 C 
ATOM      3  N   LIG    1       -0.016   1.344   0.009  0.00  0.00    -0.640 N 
ATOM      4  H   LIG    1       -0.863   1.817   0.016  0.00  0.00    +0.410 HD
ENDROOT
BRANCH   2   5
ATOM      5  C   LIG    1       -1.266  -0.760   0.010  0.00  0.00    -0.140 A 
ATOM      6  C   LIG    1       -2.487  -0.080   0.031  0.00  0.00    +0.080 A 
ATOM      7  C   LIG    1       -3.668  -0.788   0.034  0.00  0.00    +0.010 A 
ATOM      8  C   LIG    1       -3.647  -2.178   0.026  0.00  0.00    +0.160 A 
ATOM      9  C   LIG    1       -2.435  -2.858   0.010  0.00  0.00    +0.010 A 
ATOM     10  C   LIG    1       -1.250  -2.157   0.002  0.00  0.00    +0.120 A 
BRANCH   8  11
ATOM     11  N   LIG    1       -4.849  -2.894   0.034  0.00  0.00    -0.440 N 
ATOM     12  C   LIG    1       -5.000  -4.249   0.022  0.00  0.00    +0.390 A 
ATOM     13  N   LIG    1       -6.282  -4.495   0.038  0.00  0.00    -0.290 NA
ATOM     14  N   LIG    1       -6.939  -3.391   0.051  0.00  0.00    -0.290 NA
ATOM     15  C   LIG    1       -6.112  -2.381   0.049  0.00  0.00    +0.380 A 
ENDBRANCH   8  11
ENDBRANCH   2   5
BRANCH   3  16
ATOM     16  C   LIG    1        1.193   2.064   0.002  0.00  0.00    -0.000 A 
ATOM     17  C   LIG    1        1.318   3.416   0.002  0.00  0.00    +0.210 A 
ATOM     18  N   LIG    1        2.645   3.704  -0.003  0.00  0.00    -0.370 N 
ATOM     19  N   LIG    1        3.349   2.493  -0.017  0.00  0.00    -0.280 NA
ATOM     20  C   LIG    1        2.482   1.512  -0.014  0.00  0.00    +0.270 A 
BRANCH  18  21
ATOM     21  C   LIG    1        3.237   5.044  -0.001  0.00  0.00    +0.340 C 
BRANCH  21  22
ATOM     22  C   LIG    1        4.210   5.170   1.172  0.00  0.00    +0.170 C 
BRANCH  22  23
ATOM     23  N   LIG    1        4.803   6.515   1.174  0.00  0.00    -0.540 NA
ATOM     24  C   LIG    1        5.658   6.715  -0.005  0.00  0.00    +0.150 C 
ATOM     25  C   LIG    1        6.206   8.145   0.006  0.00  0.00    +0.220 C 
ATOM     26  O   LIG    1        6.910   8.371   1.230  0.00  0.00    -0.380 OA
ATOM     27  C   LIG    1        6.107   8.185   2.399  0.00  0.00    +0.220 C 
ATOM     28  C   LIG    1        5.558   6.756   2.412  0.00  0.00    +0.160 C 
ENDBRANCH  22  23
ENDBRANCH  21  22
ENDBRANCH  18  21
ENDBRANCH   3  16
TORSDOF 6
