REMARK  Name = ZINCnE000004TooG.0
REMARK                            x       y       z     vdW  Elec       q    Type
REMARK                         _______ _______ _______ _____ _____    ______ ____
ROOT
ATOM      1  C   LIG    1        3.670  -3.470  -0.283  0.00  0.00    +0.220 C 
ENDROOT
BRANCH   1   2
ATOM      2  C   LIG    1        4.616  -3.868   0.820  0.00  0.00    -0.050 A 
ATOM      3  C   LIG    1        5.981  -3.840   0.604  0.00  0.00    +0.080 A 
ATOM      4  C   LIG    1        6.850  -4.200   1.617  0.00  0.00    +0.030 A 
ATOM      5  C   LIG    1        6.354  -4.601   2.844  0.00  0.00    +0.040 A 
ATOM      6  C   LIG    1        4.988  -4.635   3.060  0.00  0.00    -0.040 A 
ATOM      7 CL   LIG    1        4.365  -5.137   4.601  0.00  0.00    -0.060 Cl
ATOM      8  C   LIG    1        4.118  -4.269   2.047  0.00  0.00    -0.020 A 
ATOM      9 CL   LIG    1        2.404  -4.311   2.317  0.00  0.00    -0.040 Cl
ENDBRANCH   1   2
BRANCH   1  11
ATOM     10  C   LIG    1        1.829  -1.901   0.009  0.00  0.00    +0.600 C 
ATOM     11  N   LIG    1        3.158  -2.122  -0.024  0.00  0.00    -0.560 N 
ATOM     12  C   LIG    1        4.091  -1.014   0.198  0.00  0.00    +0.290 C 
ATOM     13  O   LIG    1        1.054  -2.834  -0.087  0.00  0.00    -0.520 OA
BRANCH  10  18
ATOM     14  C   LIG    1        1.592   3.051   0.690  0.00  0.00    +0.220 C 
ATOM     15  C   LIG    1        1.201   1.615   0.455  0.00  0.00    +0.200 A 
ATOM     16  N   LIG    1       -0.020   1.179   0.293  0.00  0.00    -0.490 NA
ATOM     17  C   LIG    1        0.011  -0.144   0.108  0.00  0.00    +0.070 A 
ATOM     18  C   LIG    1        1.316  -0.534   0.160  0.00  0.00    -0.090 A 
ATOM     19  C   LIG    1       -1.179  -1.041  -0.116  0.00  0.00    +0.170 C 
ATOM     20  O   LIG    1        2.048   0.584   0.378  0.00  0.00    -0.180 OA
ENDBRANCH  10  18
ENDBRANCH   1  11
BRANCH   1  21
ATOM     21  C   LIG    1        4.400  -3.485  -1.601  0.00  0.00    +0.500 C 
ATOM     22  O   LIG    1        4.747  -4.545  -2.094  0.00  0.00    -0.680 OA
ATOM     23  O   LIG    1        4.645  -2.438  -2.175  0.00  0.00    -0.680 OA
ENDBRANCH   1  21
TORSDOF 4
