REMARK  Name = ZINCpe000000Ye80.0
REMARK                            x       y       z     vdW  Elec       q    Type
REMARK                         _______ _______ _______ _____ _____    ______ ____
ROOT
ATOM      1  C   LIG    1        0.527   4.533   0.031  0.00  0.00    +0.340 C 
ATOM      2  N   LIG    1        1.435   3.384   0.014  0.00  0.00    -0.450 N 
ATOM      3  C   LIG    1        2.815   3.449  -0.013  0.00  0.00    +0.030 A 
ATOM      4  C   LIG    1        3.321   2.188  -0.023  0.00  0.00    +0.030 A 
ATOM      5  C   LIG    1        2.230   1.286  -0.000  0.00  0.00    -0.120 A 
ATOM      6  C   LIG    1        2.138  -0.112   0.004  0.00  0.00    +0.140 A 
ATOM      7  C   LIG    1        0.912  -0.711   0.029  0.00  0.00    -0.210 A 
ATOM      8  C   LIG    1       -0.248   0.052   0.051  0.00  0.00    +0.090 A 
ATOM      9  C   LIG    1       -0.183   1.428   0.048  0.00  0.00    +0.020 A 
ATOM     10  C   LIG    1        1.055   2.062   0.023  0.00  0.00    +0.130 A 
ENDROOT
BRANCH   3  11
ATOM     11  C   LIG    1        3.610   4.687  -0.030  0.00  0.00    +0.620 C 
ATOM     12  N   LIG    1        4.954   4.625   0.042  0.00  0.00    -0.640 N 
ATOM     13  C   LIG    1        5.966   3.559   0.054  0.00  0.00    +0.280 C 
ATOM     14  C   LIG    1        6.956   4.569  -0.549  0.00  0.00    +0.250 C 
ATOM     15  C   LIG    1        6.054   5.596   0.150  0.00  0.00    +0.290 C 
ATOM     16  O   LIG    1        3.053   5.766  -0.109  0.00  0.00    -0.530 OA
BRANCH  14  17
ATOM     17  N   LIG    1        8.311   4.487   0.002  0.00  0.00    -1.110 NA
ATOM     18  H   LIG    1        8.456   4.607   0.953  0.00  0.00    +0.430 HD
BRANCH  17  19
ATOM     19  S   LIG    1        9.595   4.188  -1.000  0.00  0.00    +2.800 S 
ATOM     20  O   LIG    1        9.226   3.076  -1.805  0.00  0.00    -0.970 OA
ATOM     21  O   LIG    1       10.756   4.203  -0.181  0.00  0.00    -0.980 OA
BRANCH  19  22
ATOM     22  N   LIG    1        9.729   5.482  -2.025  0.00  0.00    -1.260 NA
ATOM     23  H   LIG    1        8.939   5.986  -2.276  0.00  0.00    +0.410 HD
ATOM     24  H   LIG    1       10.598   5.737  -2.373  0.00  0.00    +0.420 HD
ENDBRANCH  19  22
ENDBRANCH  17  19
ENDBRANCH  14  17
ENDBRANCH   3  11
BRANCH   7  25
ATOM     25  C   LIG    1        0.817  -2.215   0.033  0.00  0.00    +0.510 C 
ATOM     26  F   LIG    1        1.468  -2.721   1.163  0.00  0.00    -0.180 F 
ATOM     27  F   LIG    1        1.422  -2.724  -1.121  0.00  0.00    -0.180 F 
ATOM     28  F   LIG    1       -0.529  -2.596   0.061  0.00  0.00    -0.180 F 
ENDBRANCH   7  25
TORSDOF 5
