REMARK  Name = ZINC650000003W0C.0
REMARK                            x       y       z     vdW  Elec       q    Type
REMARK                         _______ _______ _______ _____ _____    ______ ____
ROOT
ATOM      1  C   LIG    1        0.002  -0.004   0.002  0.00  0.00    +0.260 A 
ATOM      2  C   LIG    1       -1.075  -0.833   0.013  0.00  0.00    +0.070 A 
ATOM      3  N   LIG    1       -0.573  -2.099  -0.003  0.00  0.00    -0.380 N 
ATOM      4  H   LIG    1       -1.094  -2.918  -0.003  0.00  0.00    +0.450 HD
ATOM      5  N   LIG    1        0.712  -2.022  -0.015  0.00  0.00    -0.060 NA
ATOM      6  N   LIG    1        1.086  -0.792  -0.012  0.00  0.00    -0.310 NA
ENDROOT
BRANCH   1   7
ATOM      7  N   LIG    1       -0.017   1.400   0.010  0.00  0.00    -0.850 N 
ATOM      8  H   LIG    1       -0.864   1.874   0.016  0.00  0.00    +0.410 HD
ATOM      9  H   LIG    1        0.816   1.896   0.004  0.00  0.00    +0.410 HD
ENDBRANCH   1   7
TORSDOF 1
