REMARK  Name = ZINCrD000000AT0W.0
REMARK                            x       y       z     vdW  Elec       q    Type
REMARK                         _______ _______ _______ _____ _____    ______ ____
ROOT
ATOM      1  C   LIG    1        2.820   1.439   0.086  0.00  0.00    -0.110 A 
ATOM      2  C   LIG    1        1.811   2.345   0.400  0.00  0.00    +0.040 A 
ATOM      3  C   LIG    1        0.517   1.898   0.592  0.00  0.00    +0.030 A 
ATOM      4  C   LIG    1        0.215   0.553   0.474  0.00  0.00    +0.050 A 
ATOM      5  C   LIG    1        1.204  -0.361   0.163  0.00  0.00    +0.050 A 
ATOM      6  C   LIG    1        2.513   0.070  -0.034  0.00  0.00    -0.090 A 
ENDROOT
BRANCH   1   8
ATOM      7  O   LIG    1        5.093   1.113  -0.353  0.00  0.00    -0.510 OA
ATOM      8  C   LIG    1        4.207   1.912  -0.120  0.00  0.00    +0.550 C 
ATOM      9  N   LIG    1        4.487   3.228  -0.050  0.00  0.00    -0.730 N 
ATOM     10  H   LIG    1        3.780   3.866   0.135  0.00  0.00    +0.400 HD
BRANCH   9  11
ATOM     11  C   LIG    1        5.861   3.696  -0.254  0.00  0.00    +0.290 C 
BRANCH  11  12
ATOM     12  C   LIG    1        5.905   5.220  -0.123  0.00  0.00    +0.050 C 
BRANCH  12  13
ATOM     13  C   LIG    1        7.317   5.702  -0.333  0.00  0.00    +0.530 C 
ATOM     14  N   LIG    1        7.598   7.018  -0.263  0.00  0.00    -0.620 N 
ATOM     15  C   LIG    1        6.626   8.088   0.003  0.00  0.00    +0.240 C 
ATOM     16  C   LIG    1        7.394   9.426  -0.035  0.00  0.00    +0.040 C 
ATOM     17  C   LIG    1        8.644   9.081  -0.888  0.00  0.00    +0.030 C 
ATOM     18  C   LIG    1        8.929   7.624  -0.447  0.00  0.00    +0.250 C 
ATOM     19  O   LIG    1        8.201   4.905  -0.565  0.00  0.00    -0.530 OA
ENDBRANCH  12  13
ENDBRANCH  11  12
ENDBRANCH   9  11
ENDBRANCH   1   8
BRANCH   6  20
ATOM     20  C   LIG    1        3.575  -0.904  -0.367  0.00  0.00    +0.460 C 
ATOM     21  O   LIG    1        4.036  -1.620   0.500  0.00  0.00    -0.430 OA
BRANCH  20  22
ATOM     22  C   LIG    1        4.075  -1.006  -1.753  0.00  0.00    -0.130 A 
ATOM     23  C   LIG    1        3.454  -0.286  -2.777  0.00  0.00    +0.070 A 
ATOM     24  C   LIG    1        3.929  -0.383  -4.068  0.00  0.00    +0.020 A 
ATOM     25  C   LIG    1        5.011  -1.200  -4.352  0.00  0.00    -0.010 A 
ATOM     26  C   LIG    1        5.628  -1.920  -3.341  0.00  0.00    +0.020 A 
ATOM     27 CL   LIG    1        5.598  -1.322  -5.981  0.00  0.00    -0.060 Cl
ATOM     28  C   LIG    1        5.166  -1.828  -2.046  0.00  0.00    +0.100 A 
ENDBRANCH  20  22
ENDBRANCH   6  20
TORSDOF 6
