REMARK  Name = ZINCpe000000ZoBM.0
REMARK                            x       y       z     vdW  Elec       q    Type
REMARK                         _______ _______ _______ _____ _____    ______ ____
ROOT
ATOM      1  O   LIG    1       -4.039   3.878   0.129  0.00  0.00    -0.560 OA
ATOM      2  C   LIG    1       -3.608   3.557   1.220  0.00  0.00    +0.730 C 
ATOM      3  N   LIG    1       -3.600   2.260   1.586  0.00  0.00    -0.660 N 
ATOM      4  C   LIG    1       -4.022   1.000   0.942  0.00  0.00    +0.350 C 
ATOM      5  C   LIG    1       -3.004   0.309   1.867  0.00  0.00    +0.250 C 
ATOM      6  C   LIG    1       -3.163   1.527   2.794  0.00  0.00    +0.320 C 
ATOM      7  N   LIG    1       -3.137   4.497   2.062  0.00  0.00    -0.660 N 
ATOM      8  H   LIG    1       -2.849   4.249   2.955  0.00  0.00    +0.420 HD
ENDROOT
BRANCH   7   9
ATOM      9  C   LIG    1       -3.065   5.835   1.649  0.00  0.00    +0.140 A 
ATOM     10  C   LIG    1       -3.897   6.308   0.644  0.00  0.00    +0.080 A 
ATOM     11  C   LIG    1       -3.792   7.642   0.271  0.00  0.00    -0.020 A 
ATOM     12  C   LIG    1       -2.866   8.449   0.899  0.00  0.00    +0.250 A 
ATOM     13  N   LIG    1       -2.082   7.973   1.849  0.00  0.00    -0.490 NA
ATOM     14  C   LIG    1       -2.150   6.711   2.239  0.00  0.00    +0.260 A 
BRANCH  14  15
ATOM     15  N   LIG    1       -1.304   6.253   3.245  0.00  0.00    -0.470 N 
ATOM     16  C   LIG    1        0.044   5.940   2.705  0.00  0.00    +0.190 C 
ATOM     17  C   LIG    1        0.946   5.971   3.964  0.00  0.00    +0.040 C 
ATOM     18  C   LIG    1        0.349   7.135   4.788  0.00  0.00    +0.010 C 
ATOM     19  C   LIG    1       -1.094   7.292   4.276  0.00  0.00    +0.190 C 
ENDBRANCH  14  15
ENDBRANCH   7   9
BRANCH   5  20
ATOM     20  N   LIG    1       -1.666   0.183   1.282  0.00  0.00    -0.280 N 
ATOM     21  C   LIG    1       -0.713   1.143   1.272  0.00  0.00    +0.180 A 
ATOM     22  C   LIG    1        0.356   0.605   0.638  0.00  0.00    -0.030 A 
ATOM     23  N   LIG    1        0.005  -0.638   0.289  0.00  0.00    -0.250 NA
ATOM     24  N   LIG    1       -1.199  -0.857   0.686  0.00  0.00    -0.070 NA
BRANCH  22  25
ATOM     25  C   LIG    1        1.678   1.277   0.372  0.00  0.00    +0.310 C 
BRANCH  25  26
ATOM     26  O   LIG    1        1.655   2.603   0.904  0.00  0.00    -0.570 OA
ATOM     27  H   LIG    1        2.475   3.096   0.769  0.00  0.00    +0.390 HD
ENDBRANCH  25  26
ENDBRANCH  22  25
ENDBRANCH   5  20
TORSDOF 5
