REMARK  Name = ZINCrH000004sIOo.0
REMARK                            x       y       z     vdW  Elec       q    Type
REMARK                         _______ _______ _______ _____ _____    ______ ____
ROOT
ATOM      1  N   LIG    1       -3.522   2.746   0.031  0.00  0.00    -0.650 N 
ATOM      2  H   LIG    1       -3.325   3.692   0.109  0.00  0.00    +0.420 HD
ATOM      3  C   LIG    1       -2.518   1.846   0.022  0.00  0.00    +0.610 C 
ATOM      4  O   LIG    1       -2.768   0.655   0.011  0.00  0.00    -0.500 OA
ENDROOT
BRANCH   1  12
ATOM      5  C   LIG    1       -6.843  -1.575   1.641  0.00  0.00    +0.180 C 
ATOM      6  C   LIG    1       -7.362  -0.413   0.835  0.00  0.00    +0.110 A 
ATOM      7  N   LIG    1       -8.585  -0.252   0.418  0.00  0.00    -0.240 NA
ATOM      8  N   LIG    1       -8.695   0.943  -0.299  0.00  0.00    -0.390 N 
ATOM      9  C   LIG    1       -7.474   1.563  -0.334  0.00  0.00    +0.310 A 
ATOM     10  N   LIG    1       -7.041   2.696  -0.872  0.00  0.00    -0.480 NA
ATOM     11  C   LIG    1       -5.790   3.083  -0.756  0.00  0.00    +0.330 A 
ATOM     12  C   LIG    1       -4.851   2.313  -0.071  0.00  0.00    +0.040 A 
ATOM     13  C   LIG    1       -5.245   1.119   0.512  0.00  0.00    +0.170 A 
ATOM     14  C   LIG    1       -9.923   1.452  -0.917  0.00  0.00    +0.360 C 
ATOM     15  C   LIG    1       -6.584   0.734   0.379  0.00  0.00    -0.210 A 
ENDBRANCH   1  12
BRANCH   3  16
ATOM     16  C   LIG    1       -1.125   2.303   0.027  0.00  0.00    -0.080 A 
ATOM     17  C   LIG    1       -0.018   1.503   0.019  0.00  0.00    -0.080 A 
ATOM     18  C   LIG    1        1.096   2.356   0.021  0.00  0.00    -0.030 A 
ATOM     19  C   LIG    1        0.627   3.623   0.035  0.00  0.00    +0.230 A 
ATOM     20  O   LIG    1       -0.712   3.587   0.043  0.00  0.00    -0.160 OA
BRANCH  17  21
ATOM     21  C   LIG    1        0.002  -0.004   0.004  0.00  0.00    +0.310 C 
BRANCH  21  22
ATOM     22  O   LIG    1        1.356  -0.462  -0.007  0.00  0.00    -0.310 OA
BRANCH  22  23
ATOM     23  C   LIG    1        1.552  -1.807  -0.021  0.00  0.00    +0.130 A 
ATOM     24  C   LIG    1        0.464  -2.668  -0.018  0.00  0.00    -0.080 A 
ATOM     25  C   LIG    1        0.666  -4.034  -0.037  0.00  0.00    +0.050 A 
ATOM     26  C   LIG    1        1.952  -4.544  -0.049  0.00  0.00    -0.040 A 
ATOM     27  C   LIG    1        3.037  -3.688  -0.046  0.00  0.00    +0.050 A 
ATOM     28  C   LIG    1        2.840  -2.321  -0.032  0.00  0.00    -0.020 A 
ENDBRANCH  22  23
ENDBRANCH  21  22
ENDBRANCH  17  21
ENDBRANCH   3  16
TORSDOF 5
