REMARK  Name = ZINCrH000004tWhm.0
REMARK                            x       y       z     vdW  Elec       q    Type
REMARK                         _______ _______ _______ _____ _____    ______ ____
ROOT
ATOM      1  O   LIG    1       -1.391   2.658  -0.386  0.00  0.00    -0.500 OA
ATOM      2  C   LIG    1       -1.248   1.475  -0.160  0.00  0.00    +0.510 C 
ATOM      3  N   LIG    1       -0.011   0.966   0.007  0.00  0.00    -0.670 N 
ATOM      4  H   LIG    1        0.109   0.009   0.111  0.00  0.00    +0.420 HD
ENDROOT
BRANCH   3   5
ATOM      5  C   LIG    1        1.099   1.817   0.026  0.00  0.00    +0.180 A 
ATOM      6  C   LIG    1        2.318   1.382  -0.478  0.00  0.00    -0.010 A 
ATOM      7  C   LIG    1        3.411   2.226  -0.462  0.00  0.00    +0.090 A 
ATOM      8  C   LIG    1        3.296   3.499   0.065  0.00  0.00    -0.200 A 
ATOM      9  C   LIG    1        2.085   3.934   0.573  0.00  0.00    +0.090 A 
ATOM     10  C   LIG    1        0.987   3.096   0.555  0.00  0.00    +0.030 A 
BRANCH   8  11
ATOM     11  C   LIG    1        4.492   4.416   0.086  0.00  0.00    +0.510 C 
ATOM     12  F   LIG    1        4.063   5.744  -0.009  0.00  0.00    -0.180 F 
ATOM     13  F   LIG    1        5.328   4.117  -0.995  0.00  0.00    -0.180 F 
ATOM     14  F   LIG    1        5.195   4.237   1.282  0.00  0.00    -0.180 F 
ENDBRANCH   8  11
ENDBRANCH   3   5
BRANCH   2  15
ATOM     15  C   LIG    1       -2.453   0.575  -0.066  0.00  0.00    +0.170 C 
BRANCH  15  16
ATOM     16  C   LIG    1       -3.704   1.385  -0.289  0.00  0.00    -0.130 A 
ATOM     17  C   LIG    1       -4.275   1.605  -1.474  0.00  0.00    +0.000 A 
ATOM     18  C   LIG    1       -5.423   2.379  -1.433  0.00  0.00    +0.170 A 
ATOM     19  C   LIG    1       -5.778   2.793  -0.216  0.00  0.00    -0.790 A 
ATOM     20  S   LIG    1       -4.629   2.190   0.971  0.00  0.00    +0.230 S 
BRANCH  19  21
ATOM     21  S   LIG    1       -7.183   3.793   0.147  0.00  0.00    +2.730 S 
ATOM     22  O   LIG    1       -7.496   4.494  -1.049  0.00  0.00    -0.940 OA
ATOM     23  O   LIG    1       -6.904   4.444   1.379  0.00  0.00    -0.940 OA
BRANCH  21  24
ATOM     24  N   LIG    1       -8.452   2.769   0.435  0.00  0.00    -1.010 NA
ATOM     25  C   LIG    1       -9.395   2.268  -0.575  0.00  0.00    +0.270 C 
ATOM     26  C   LIG    1      -10.415   1.370   0.156  0.00  0.00    +0.030 C 
ATOM     27  C   LIG    1      -10.333   1.875   1.621  0.00  0.00    +0.040 C 
ATOM     28  C   LIG    1       -8.826   2.214   1.749  0.00  0.00    +0.270 C 
ENDBRANCH  21  24
ENDBRANCH  19  21
ENDBRANCH  15  16
ENDBRANCH   2  15
TORSDOF 6
