REMARK  Name = ZINCvU00000007fO.0
REMARK                            x       y       z     vdW  Elec       q    Type
REMARK                         _______ _______ _______ _____ _____    ______ ____
ROOT
ATOM      1  C   LIG    1        2.940   4.878  -1.184  0.00  0.00    +0.280 C 
ENDROOT
BRANCH   1   3
ATOM      2  C   LIG    1        2.794   4.708  -3.610  0.00  0.00    +0.520 C 
ATOM      3  N   LIG    1        2.903   4.089  -2.418  0.00  0.00    -0.720 N 
ATOM      4  H   LIG    1        2.958   3.122  -2.377  0.00  0.00    +0.400 HD
ATOM      5  O   LIG    1        2.726   5.918  -3.661  0.00  0.00    -0.510 OA
BRANCH   2   6
ATOM      6  C   LIG    1        2.756   3.897  -4.880  0.00  0.00    +0.220 C 
BRANCH   6   7
ATOM      7  O   LIG    1        2.638   4.774  -6.002  0.00  0.00    -0.290 OA
BRANCH   7  11
ATOM      8  C   LIG    1        2.304   5.263 -10.847  0.00  0.00    +0.090 C 
ATOM      9  C   LIG    1        2.428   4.403  -9.615  0.00  0.00    -0.040 A 
ATOM     10  C   LIG    1        2.470   4.990  -8.365  0.00  0.00    -0.020 A 
ATOM     11  C   LIG    1        2.591   4.198  -7.232  0.00  0.00    +0.130 A 
ATOM     12  C   LIG    1        2.656   2.818  -7.357  0.00  0.00    -0.080 A 
ATOM     13  C   LIG    1        2.608   2.236  -8.609  0.00  0.00    +0.050 A 
ATOM     14  C   LIG    1        2.494   3.027  -9.736  0.00  0.00    -0.110 A 
BRANCH  14  15
ATOM     15  C   LIG    1        2.441   2.389 -11.101  0.00  0.00    +0.020 C 
ATOM     16  C   LIG    1        1.320   1.348 -11.134  0.00  0.00    +0.040 C 
ATOM     17  C   LIG    1        3.778   1.708 -11.397  0.00  0.00    +0.040 C 
ENDBRANCH  14  15
ENDBRANCH   7  11
ENDBRANCH   6   7
ENDBRANCH   2   6
ENDBRANCH   1   3
BRANCH   1  18
ATOM     18  C   LIG    1        3.067   3.939   0.018  0.00  0.00    +0.150 C 
BRANCH  18  19
ATOM     19  C   LIG    1        3.228   4.753   1.276  0.00  0.00    -0.170 A 
ATOM     20  C   LIG    1        2.361   5.657   1.759  0.00  0.00    +0.240 A 
ATOM     21  N   LIG    1        2.844   6.191   2.922  0.00  0.00    -0.590 N 
ATOM     22  H   LIG    1        2.392   6.863   3.456  0.00  0.00    +0.420 HD
ATOM     23  C   LIG    1        4.069   5.637   3.219  0.00  0.00    +0.100 A 
ATOM     24  C   LIG    1        4.977   5.821   4.256  0.00  0.00    -0.010 A 
ATOM     25  C   LIG    1        6.149   5.098   4.275  0.00  0.00    +0.030 A 
ATOM     26  C   LIG    1        6.435   4.186   3.268  0.00  0.00    -0.020 A 
ATOM     27  C   LIG    1        5.557   3.989   2.240  0.00  0.00    +0.050 A 
ATOM     28  C   LIG    1        4.363   4.711   2.201  0.00  0.00    -0.090 A 
ENDBRANCH  18  19
BRANCH  18  29
ATOM     29  C   LIG    1        1.827   3.089   0.124  0.00  0.00    -0.170 A 
ATOM     30  C   LIG    1        1.800   1.757   0.067  0.00  0.00    +0.000 A 
ATOM     31  C   LIG    1        0.542   1.192   0.189  0.00  0.00    +0.010 A 
ATOM     32  C   LIG    1       -0.454   2.067   0.341  0.00  0.00    -0.050 A 
ATOM     33  S   LIG    1        0.193   3.702   0.344  0.00  0.00    +0.100 S 
ENDBRANCH  18  29
ENDBRANCH   1  18
TORSDOF 8
