REMARK  Name = ZINCtV00001bB3DL.0
REMARK                            x       y       z     vdW  Elec       q    Type
REMARK                         _______ _______ _______ _____ _____    ______ ____
ROOT
ATOM      1  C   LIG    1        3.379   3.640  -2.365  0.00  0.00    +0.150 C 
ATOM      2  C   LIG    1        3.494   4.373  -1.052  0.00  0.00    +0.020 A 
ATOM      3  C   LIG    1        4.437   5.280  -0.748  0.00  0.00    +0.010 A 
ATOM      4  C   LIG    1        4.159   5.724   0.625  0.00  0.00    -0.210 A 
ATOM      5  C   LIG    1        3.034   5.023   1.030  0.00  0.00    +0.120 A 
ATOM      6  C   LIG    1        2.354   5.138   2.370  0.00  0.00    +0.160 C 
ATOM      7  N   LIG    1        2.656   4.218   0.017  0.00  0.00    -0.390 N 
ENDROOT
BRANCH   7   8
ATOM      8  C   LIG    1        1.556   3.351   0.052  0.00  0.00    +0.120 A 
ATOM      9  C   LIG    1        0.270   3.863   0.158  0.00  0.00    +0.060 A 
ATOM     10  C   LIG    1       -0.813   3.006   0.192  0.00  0.00    +0.080 A 
ATOM     11  C   LIG    1       -0.618   1.639   0.116  0.00  0.00    -0.020 A 
ATOM     12  C   LIG    1        0.664   1.124   0.017  0.00  0.00    -0.020 A 
ATOM     13 CL   LIG    1        0.906  -0.592  -0.072  0.00  0.00    -0.030 Cl
ATOM     14 CL   LIG    1       -1.982   0.565   0.153  0.00  0.00    -0.030 Cl
ATOM     15  C   LIG    1        1.751   1.978  -0.018  0.00  0.00    +0.060 A 
ENDBRANCH   7   8
BRANCH   4  16
ATOM     16  C   LIG    1        4.888   6.678   1.379  0.00  0.00    +0.300 C 
ATOM     17  C   LIG    1        5.750   7.549   0.742  0.00  0.00    -0.180 C 
BRANCH  17  18
ATOM     18  C   LIG    1        6.633   8.418   1.532  0.00  0.00    +0.580 C 
ATOM     19  N   LIG    1        7.475   9.267   0.910  0.00  0.00    -0.670 N 
ATOM     20  H   LIG    1        7.428   9.378  -0.053  0.00  0.00    +0.410 HD
ATOM     21  O   LIG    1        6.604   8.371   2.747  0.00  0.00    -0.510 OA
BRANCH  19  22
ATOM     22  C   LIG    1        8.416   9.988   1.653  0.00  0.00    +0.190 A 
ATOM     23  C   LIG    1        8.829   9.521   2.893  0.00  0.00    +0.030 A 
ATOM     24  C   LIG    1        9.758  10.236   3.624  0.00  0.00    +0.050 A 
ATOM     25  C   LIG    1       10.277  11.415   3.122  0.00  0.00    -0.010 A 
ATOM     26  C   LIG    1        9.868  11.883   1.886  0.00  0.00    +0.070 A 
ATOM     27  C   LIG    1        8.943  11.171   1.148  0.00  0.00    -0.140 A 
ATOM     28  I   LIG    1        8.331  11.876  -0.727  0.00  0.00    -0.040 I 
ENDBRANCH  19  22
ENDBRANCH  17  18
BRANCH  17  29
ATOM     29  C   LIG    1        5.785   7.604  -0.689  0.00  0.00    +0.260 C 
ATOM     30  N   LIG    1        5.811   7.648  -1.823  0.00  0.00    -0.420 NA
ENDBRANCH  17  29
ENDBRANCH   4  16
TORSDOF 5
