REMARK  Name = ZINCpk00000y6xep.0
REMARK                            x       y       z     vdW  Elec       q    Type
REMARK                         _______ _______ _______ _____ _____    ______ ____
ROOT
ATOM      1  C   LIG    1       -1.124   2.240   0.020  0.00  0.00    +0.620 C 
ATOM      2  N   LIG    1       -0.018   1.470   0.010  0.00  0.00    -0.610 N 
ATOM      3  C   LIG    1        1.368   1.960  -0.001  0.00  0.00    +0.260 C 
ATOM      4  C   LIG    1        2.292   0.724   0.011  0.00  0.00    +0.080 C 
ATOM      5  C   LIG    1        1.380  -0.385   0.599  0.00  0.00    +0.110 C 
ATOM      6  C   LIG    1        0.002  -0.004   0.002  0.00  0.00    +0.250 C 
ATOM      7  O   LIG    1       -2.225   1.724   0.022  0.00  0.00    -0.540 OA
ENDROOT
BRANCH   1  11
ATOM      8  N   LIG    1       -1.492   5.848   0.041  0.00  0.00    -0.350 N 
ATOM      9  N   LIG    1       -0.099   5.717   0.033  0.00  0.00    -0.290 NA
ATOM     10  C   LIG    1        0.206   4.449   0.025  0.00  0.00    +0.270 A 
ATOM     11  C   LIG    1       -0.999   3.709   0.027  0.00  0.00    -0.300 A 
ATOM     12  C   LIG    1       -2.036   4.620   0.032  0.00  0.00    +0.160 A 
ATOM     13  C   LIG    1       -3.507   4.296   0.030  0.00  0.00    +0.170 C 
BRANCH   8  14
ATOM     14  C   LIG    1       -2.233   7.112   0.051  0.00  0.00    +0.260 C 
BRANCH  14  16
ATOM     15  C   LIG    1       -2.727   9.170   1.378  0.00  0.00    +0.030 C 
ATOM     16  C   LIG    1       -1.863   7.910   1.303  0.00  0.00    +0.020 C 
ENDBRANCH  14  16
BRANCH  14  17
ATOM     17  C   LIG    1       -1.875   7.923  -1.196  0.00  0.00    +0.040 C 
ATOM     18  C   LIG    1       -2.358   7.181  -2.443  0.00  0.00    +0.020 C 
ENDBRANCH  14  17
ENDBRANCH   8  14
ENDBRANCH   1  11
BRANCH   5  19
ATOM     19  O   LIG    1        1.354  -0.325   2.026  0.00  0.00    -0.540 OA
ATOM     20  H   LIG    1        0.724  -0.935   2.434  0.00  0.00    +0.390 HD
ENDBRANCH   5  19
BRANCH   5  21
ATOM     21  C   LIG    1        1.821  -1.769   0.119  0.00  0.00    +0.330 C 
BRANCH  21  22
ATOM     22  N   LIG    1        0.795  -2.756   0.464  0.00  0.00    -0.300 N 
ATOM     23  C   LIG    1        0.180  -3.595  -0.401  0.00  0.00    +0.150 A 
ATOM     24  C   LIG    1       -0.687  -4.328   0.336  0.00  0.00    +0.140 A 
ATOM     25  N   LIG    1       -0.567  -3.901   1.598  0.00  0.00    -0.260 NA
ATOM     26  N   LIG    1        0.319  -2.970   1.640  0.00  0.00    -0.100 NA
ENDBRANCH  21  22
ENDBRANCH   5  21
TORSDOF 7
