REMARK  Name = ZINCrD00000476d2.0
REMARK                            x       y       z     vdW  Elec       q    Type
REMARK                         _______ _______ _______ _____ _____    ______ ____
ROOT
ATOM      1  C   LIG    1       -1.431   3.635   0.014  0.00  0.00    +0.240 C 
ATOM      2  C   LIG    1       -0.442   3.089   1.048  0.00  0.00    +0.020 C 
ATOM      3  C   LIG    1       -0.506   1.560   1.053  0.00  0.00    +0.020 C 
ATOM      4  C   LIG    1       -0.108   1.026  -0.325  0.00  0.00    +0.010 C 
ATOM      5  C   LIG    1       -1.093   1.550  -1.375  0.00  0.00    +0.270 C 
ATOM      6  N   LIG    1       -1.145   3.015  -1.287  0.00  0.00    -0.610 N 
ATOM      7  C   LIG    1       -0.932   3.777  -2.379  0.00  0.00    +0.510 C 
ATOM      8  O   LIG    1       -1.086   4.978  -2.319  0.00  0.00    -0.520 OA
ENDROOT
BRANCH   1  14
ATOM      9  O   LIG    1       -2.015   8.224   2.693  0.00  0.00    -0.520 OA
ATOM     10  C   LIG    1       -1.078   8.219   1.918  0.00  0.00    +0.650 C 
ATOM     11  N   LIG    1       -0.799   7.109   1.205  0.00  0.00    -0.610 N 
ATOM     12  C   LIG    1        0.298   6.966   0.237  0.00  0.00    +0.240 C 
ATOM     13  C   LIG    1        0.209   5.541  -0.349  0.00  0.00    +0.040 C 
ATOM     14  C   LIG    1       -1.272   5.153  -0.096  0.00  0.00    +0.030 C 
ATOM     15  C   LIG    1       -1.546   5.839   1.266  0.00  0.00    +0.250 C 
BRANCH  10  16
ATOM     16  C   LIG    1       -0.270   9.391   1.762  0.00  0.00    -0.220 C 
ATOM     17  C   LIG    1        0.392  10.353   1.635  0.00  0.00    -0.050 C 
BRANCH  17  18
ATOM     18  C   LIG    1        1.221  11.558   1.474  0.00  0.00    +0.070 C 
ATOM     19  C   LIG    1        2.103  11.970   2.655  0.00  0.00    +0.050 C 
ATOM     20  C   LIG    1        0.854  12.785   2.312  0.00  0.00    +0.050 C 
ENDBRANCH  17  18
ENDBRANCH  10  16
ENDBRANCH   1  14
BRANCH   7  21
ATOM     21  C   LIG    1       -0.505   3.135  -3.674  0.00  0.00    +0.050 C 
BRANCH  21  22
ATOM     22  C   LIG    1       -0.334   4.213  -4.745  0.00  0.00    +0.140 C 
BRANCH  22  23
ATOM     23  C   LIG    1        0.094   3.572  -6.040  0.00  0.00    -0.180 A 
ATOM     24  C   LIG    1       -0.733   3.125  -6.987  0.00  0.00    +0.000 A 
ATOM     25  C   LIG    1       -0.109   2.573  -8.092  0.00  0.00    +0.010 A 
ATOM     26  C   LIG    1        1.224   2.571  -8.043  0.00  0.00    -0.050 A 
ATOM     27  S   LIG    1        1.760   3.304  -6.537  0.00  0.00    +0.100 S 
ENDBRANCH  22  23
ENDBRANCH  21  22
ENDBRANCH   7  21
TORSDOF 6
