REMARK  Name = ZINCqH0000038jnI.0
REMARK                            x       y       z     vdW  Elec       q    Type
REMARK                         _______ _______ _______ _____ _____    ______ ____
ROOT
ATOM      1  C   LIG    1       -2.553   1.391   3.127  0.00  0.00    +0.120 A 
ATOM      2  C   LIG    1       -1.835   1.007   2.002  0.00  0.00    +0.140 A 
ATOM      3  C   LIG    1       -0.915   1.873   1.443  0.00  0.00    -0.670 A 
ATOM      4  C   LIG    1       -0.706   3.119   2.006  0.00  0.00    +0.110 A 
ATOM      5  C   LIG    1       -1.423   3.506   3.123  0.00  0.00    +0.020 A 
ATOM      6  C   LIG    1       -2.344   2.645   3.687  0.00  0.00    -0.050 A 
ATOM      7  C   LIG    1       -3.121   3.065   4.907  0.00  0.00    +0.100 C 
ENDROOT
BRANCH   1   9
ATOM      8  C   LIG    1       -4.206  -0.306   2.907  0.00  0.00    +0.560 C 
ATOM      9  N   LIG    1       -3.485   0.516   3.695  0.00  0.00    -0.670 N 
ATOM     10  H   LIG    1       -3.612   0.501   4.657  0.00  0.00    +0.410 HD
ATOM     11  O   LIG    1       -3.989  -0.346   1.712  0.00  0.00    -0.510 OA
BRANCH   8  17
ATOM     12  C   LIG    1       -7.800  -3.724   2.362  0.00  0.00    +0.100 C 
ATOM     13  C   LIG    1       -6.991  -2.803   3.239  0.00  0.00    -0.090 A 
ATOM     14  C   LIG    1       -7.234  -2.756   4.600  0.00  0.00    +0.040 A 
ATOM     15  C   LIG    1       -6.496  -1.913   5.412  0.00  0.00    +0.010 A 
ATOM     16  C   LIG    1       -5.507  -1.119   4.870  0.00  0.00    +0.030 A 
ATOM     17  C   LIG    1       -5.260  -1.158   3.496  0.00  0.00    -0.140 A 
ATOM     18  C   LIG    1       -6.008  -2.010   2.683  0.00  0.00    +0.080 A 
ENDBRANCH   8  17
ENDBRANCH   1   9
BRANCH   3  19
ATOM     19  S   LIG    1       -0.003   1.388   0.016  0.00  0.00    +2.690 S 
ATOM     20  O   LIG    1        1.181   2.173   0.011  0.00  0.00    -0.950 OA
ATOM     21  O   LIG    1        0.006  -0.033   0.010  0.00  0.00    -0.950 OA
BRANCH  19  22
ATOM     22  N   LIG    1       -0.880   1.855  -1.309  0.00  0.00    -0.990 NA
ATOM     23  C   LIG    1       -1.867   0.948  -1.911  0.00  0.00    +0.290 C 
ATOM     24  C   LIG    1       -3.214   1.681  -2.001  0.00  0.00    +0.010 C 
ATOM     25  C   LIG    1       -3.023   2.996  -2.761  0.00  0.00    +0.010 C 
ATOM     26  C   LIG    1       -2.039   3.888  -2.001  0.00  0.00    +0.010 C 
ATOM     27  C   LIG    1       -0.682   3.182  -1.907  0.00  0.00    +0.290 C 
ENDBRANCH  19  22
ENDBRANCH   3  19
TORSDOF 4
