REMARK  Name = ZINCqH0000004HrT.0
REMARK                            x       y       z     vdW  Elec       q    Type
REMARK                         _______ _______ _______ _____ _____    ______ ____
ROOT
ATOM      1  C   LIG    1        1.167   7.364  -0.731  0.00  0.00    +0.040 C 
ENDROOT
BRANCH   1   4
ATOM      2  N   LIG    1       -0.007   5.239  -0.259  0.00  0.00    -0.680 N 
ATOM      3  H   LIG    1       -0.799   5.758  -0.050  0.00  0.00    +0.410 HD
ATOM      4  C   LIG    1        1.110   5.859  -0.688  0.00  0.00    +0.530 C 
ATOM      5  O   LIG    1        2.069   5.205  -1.041  0.00  0.00    -0.520 OA
BRANCH   2  12
ATOM      6  C   LIG    1       -0.741   3.063  -1.007  0.00  0.00    -0.080 A 
ATOM      7  C   LIG    1       -0.751   1.689  -0.865  0.00  0.00    +0.010 A 
ATOM      8  C   LIG    1       -0.055   1.095   0.172  0.00  0.00    +0.020 A 
ATOM      9  C   LIG    1        0.662   1.873   1.063  0.00  0.00    +0.010 A 
ATOM     10  C   LIG    1        0.679   3.247   0.923  0.00  0.00    -0.070 A 
ATOM     11  C   LIG    1        1.459   4.095   1.895  0.00  0.00    +0.090 C 
ATOM     12  C   LIG    1       -0.023   3.847  -0.114  0.00  0.00    +0.130 A 
BRANCH   6  14
ATOM     13  C   LIG    1       -0.566   3.941  -3.320  0.00  0.00    +0.030 C 
ATOM     14  C   LIG    1       -1.505   3.710  -2.134  0.00  0.00    +0.060 C 
ENDBRANCH   6  14
ENDBRANCH   2  12
ENDBRANCH   1   4
BRANCH   1  15
ATOM     15  C   LIG    1        2.536   7.808  -1.253  0.00  0.00    +0.320 C 
BRANCH  15  16
ATOM     16  N   LIG    1        2.591   9.271  -1.294  0.00  0.00    -0.550 N 
ATOM     17  C   LIG    1        2.212   9.941  -2.405  0.00  0.00    +0.490 C 
ATOM     18  C   LIG    1        2.308  11.445  -2.440  0.00  0.00    +0.230 C 
ATOM     19  O   LIG    1        2.111  11.973  -1.126  0.00  0.00    -0.300 OA
ATOM     20  C   LIG    1        2.791  11.367  -0.116  0.00  0.00    +0.080 A 
ATOM     21  C   LIG    1        3.231  12.096   0.975  0.00  0.00    +0.030 A 
ATOM     22  C   LIG    1        3.923  11.463   1.992  0.00  0.00    +0.030 A 
ATOM     23  C   LIG    1        4.176  10.106   1.924  0.00  0.00    +0.020 A 
ATOM     24  C   LIG    1        3.737   9.370   0.838  0.00  0.00    +0.000 A 
ATOM     25  C   LIG    1        3.693  11.849  -2.949  0.00  0.00    +0.060 C 
ATOM     26  O   LIG    1        1.792   9.335  -3.368  0.00  0.00    -0.500 OA
ATOM     27  C   LIG    1        3.045   9.998  -0.184  0.00  0.00    +0.090 A 
ENDBRANCH  15  16
ENDBRANCH   1  15
TORSDOF 5
