REMARK  Name = ZINCpe000000Y1yL.0
REMARK                            x       y       z     vdW  Elec       q    Type
REMARK                         _______ _______ _______ _____ _____    ______ ____
ROOT
ATOM      1  N   LIG    1        2.726  -0.791   5.029  0.00  0.00    -0.620 N 
ATOM      2  H   LIG    1        2.740  -0.800   5.998  0.00  0.00    +0.420 HD
ATOM      3  C   LIG    1        3.677  -1.446   4.334  0.00  0.00    +0.600 C 
ATOM      4  O   LIG    1        3.659  -1.435   3.117  0.00  0.00    -0.490 OA
ENDROOT
BRANCH   3   5
ATOM      5  C   LIG    1        4.735  -2.172   5.045  0.00  0.00    -0.080 A 
ATOM      6  C   LIG    1        5.766  -2.882   4.467  0.00  0.00    +0.050 A 
ATOM      7  C   LIG    1        6.536  -3.410   5.508  0.00  0.00    -0.760 A 
ATOM      8  C   LIG    1        5.974  -3.022   6.678  0.00  0.00    +0.210 A 
ATOM      9  C   LIG    1        6.483  -3.371   8.053  0.00  0.00    +0.180 C 
ATOM     10  C   LIG    1        6.017  -3.056   2.991  0.00  0.00    +0.150 C 
ATOM     11  N   LIG    1        4.882  -2.264   6.410  0.00  0.00    -0.530 N 
ATOM     12  H   LIG    1        4.300  -1.857   7.071  0.00  0.00    +0.420 HD
BRANCH   7  13
ATOM     13  S   LIG    1        7.980  -4.403   5.330  0.00  0.00    +2.730 S 
ATOM     14  O   LIG    1        7.895  -5.008   4.047  0.00  0.00    -0.960 OA
ATOM     15  O   LIG    1        8.105  -5.149   6.534  0.00  0.00    -0.970 OA
BRANCH  13  16
ATOM     16  N   LIG    1        9.278  -3.377   5.279  0.00  0.00    -1.250 NA
ATOM     17  H   LIG    1       10.175  -3.733   5.183  0.00  0.00    +0.420 HD
ATOM     18  H   LIG    1        9.142  -2.418   5.345  0.00  0.00    +0.420 HD
ENDBRANCH  13  16
ENDBRANCH   7  13
ENDBRANCH   3   5
BRANCH   1  23
ATOM     19  C   LIG    1       -1.269   1.956   4.642  0.00  0.00    +0.160 C 
ATOM     20  C   LIG    1       -0.106   1.155   4.115  0.00  0.00    +0.110 A 
ATOM     21  C   LIG    1        0.117   1.000   2.802  0.00  0.00    -0.310 A 
ATOM     22  S   LIG    1        1.556   0.002   2.604  0.00  0.00    +0.200 S 
ATOM     23  C   LIG    1        1.723  -0.102   4.355  0.00  0.00    +0.270 A 
ATOM     24  N   LIG    1        0.760   0.560   4.916  0.00  0.00    -0.490 NA
BRANCH  21  25
ATOM     25  S   LIG    1       -0.862   1.671   1.500  0.00  0.00    +0.070 S 
BRANCH  25  26
ATOM     26  C   LIG    1       -0.013   1.086   0.008  0.00  0.00    +0.060 C 
BRANCH  26  27
ATOM     27  C   LIG    1       -0.742   1.585  -1.213  0.00  0.00    +0.540 C 
ATOM     28  O   LIG    1       -1.736   2.268  -1.088  0.00  0.00    -0.520 OA
ATOM     29  N   LIG    1       -0.288   1.272  -2.443  0.00  0.00    -0.850 N 
ATOM     30  H   LIG    1       -0.758   1.594  -3.229  0.00  0.00    +0.410 HD
ATOM     31  H   LIG    1        0.507   0.726  -2.543  0.00  0.00    +0.410 HD
ENDBRANCH  26  27
ENDBRANCH  25  26
ENDBRANCH  21  25
ENDBRANCH   1  23
TORSDOF 7
