REMARK  Name = ZINCrD000000fGJ7.0
REMARK                            x       y       z     vdW  Elec       q    Type
REMARK                         _______ _______ _______ _____ _____    ______ ____
ROOT
ATOM      1  C   LIG    1       -5.312  -5.230  -1.418  0.00  0.00    +0.510 C 
ATOM      2  N   LIG    1       -4.273  -4.573  -0.866  0.00  0.00    -0.730 N 
ATOM      3  H   LIG    1       -3.365  -4.851  -1.062  0.00  0.00    +0.400 HD
ATOM      4  O   LIG    1       -6.448  -4.883  -1.173  0.00  0.00    -0.520 OA
ENDROOT
BRANCH   2   5
ATOM      5  C   LIG    1       -4.516  -3.440   0.030  0.00  0.00    +0.290 C 
ATOM      6  C   LIG    1       -4.755  -3.955   1.451  0.00  0.00    +0.040 C 
BRANCH   5   7
ATOM      7  C   LIG    1       -3.316  -2.528   0.022  0.00  0.00    -0.100 A 
ATOM      8  C   LIG    1       -3.492  -1.156   0.031  0.00  0.00    +0.060 A 
ATOM      9  C   LIG    1       -2.395  -0.318   0.024  0.00  0.00    +0.010 A 
ATOM     10  C   LIG    1       -1.114  -0.853   0.009  0.00  0.00    +0.140 A 
ATOM     11  C   LIG    1       -0.941  -2.230  -0.006  0.00  0.00    +0.000 A 
ATOM     12  C   LIG    1       -2.042  -3.064   0.007  0.00  0.00    +0.040 A 
BRANCH  10  13
ATOM     13  N   LIG    1        0.002  -0.004   0.002  0.00  0.00    -0.410 N 
ATOM     14  C   LIG    1        1.318  -0.388  -0.013  0.00  0.00    +0.120 A 
ATOM     15  C   LIG    1        2.054   0.740  -0.014  0.00  0.00    +0.160 A 
ATOM     16  N   LIG    1        1.215   1.786   0.000  0.00  0.00    -0.480 NA
ATOM     17  C   LIG    1       -0.016   1.354   0.009  0.00  0.00    +0.400 A 
ENDBRANCH  10  13
ENDBRANCH   5   7
ENDBRANCH   2   5
BRANCH   1  18
ATOM     18  C   LIG    1       -5.063  -6.396  -2.340  0.00  0.00    +0.060 C 
BRANCH  18  19
ATOM     19  C   LIG    1       -6.401  -6.958  -2.825  0.00  0.00    +0.350 C 
BRANCH  19  22
ATOM     20  C   LIG    1       -9.128  -4.951  -4.610  0.00  0.00    +0.100 C 
ATOM     21  C   LIG    1       -8.425  -5.983  -3.766  0.00  0.00    +0.520 C 
ATOM     22  N   LIG    1       -7.083  -5.955  -3.645  0.00  0.00    -0.720 N 
ATOM     23  H   LIG    1       -6.569  -5.271  -4.101  0.00  0.00    +0.400 HD
ATOM     24  O   LIG    1       -9.068  -6.839  -3.195  0.00  0.00    -0.540 OA
ENDBRANCH  19  22
BRANCH  19  25
ATOM     25  C   LIG    1       -6.156  -8.198  -3.647  0.00  0.00    -0.190 A 
ATOM     26  C   LIG    1       -6.282  -9.450  -3.205  0.00  0.00    +0.020 A 
ATOM     27  C   LIG    1       -6.007 -10.430  -4.144  0.00  0.00    +0.010 A 
ATOM     28  C   LIG    1       -5.650  -9.973  -5.345  0.00  0.00    -0.050 A 
ATOM     29  S   LIG    1       -5.655  -8.214  -5.332  0.00  0.00    +0.100 S 
ENDBRANCH  19  25
ENDBRANCH  18  19
ENDBRANCH   1  18
TORSDOF 7
