REMARK  Name = ZINCqH0000000VPc.0
REMARK                            x       y       z     vdW  Elec       q    Type
REMARK                         _______ _______ _______ _____ _____    ______ ____
ROOT
ATOM      1  C   LIG    1       -3.275   1.894   1.616  0.00  0.00    +0.370 A 
ATOM      2  C   LIG    1       -2.162   1.236   1.103  0.00  0.00    -0.140 A 
ATOM      3  C   LIG    1       -1.148   2.002   0.535  0.00  0.00    +0.440 A 
ATOM      4  N   LIG    1       -1.277   3.327   0.507  0.00  0.00    -0.580 NA
ATOM      5  C   LIG    1       -2.350   3.913   0.998  0.00  0.00    +0.560 A 
ATOM      6  N   LIG    1       -3.331   3.223   1.544  0.00  0.00    -0.590 NA
ENDROOT
BRANCH   1  10
ATOM      7  C   LIG    1       -5.977   1.451   3.939  0.00  0.00    -0.070 C 
ATOM      8  C   LIG    1       -5.157   0.161   4.170  0.00  0.00    +0.080 C 
ATOM      9  C   LIG    1       -3.846   0.439   3.394  0.00  0.00    +0.210 C 
ATOM     10  N   LIG    1       -4.312   1.177   2.192  0.00  0.00    -0.460 N 
ATOM     11  C   LIG    1       -5.816   2.402   5.126  0.00  0.00    +0.070 C 
ATOM     12  C   LIG    1       -5.383   2.081   2.665  0.00  0.00    +0.260 C 
BRANCH   7  13
ATOM     13  C   LIG    1       -7.431   1.117   3.728  0.00  0.00    +0.480 C 
ATOM     14  O   LIG    1       -7.958   1.353   2.667  0.00  0.00    -0.490 OA
BRANCH  13  15
ATOM     15  O   LIG    1       -8.141   0.556   4.720  0.00  0.00    -0.350 OA
BRANCH  15  17
ATOM     16  C   LIG    1       -9.630  -0.714   3.271  0.00  0.00    +0.030 C 
ATOM     17  C   LIG    1       -9.536   0.261   4.446  0.00  0.00    +0.120 C 
ATOM     18  C   LIG    1      -10.272   1.556   4.095  0.00  0.00    +0.030 C 
ATOM     19  C   LIG    1      -10.177  -0.369   5.684  0.00  0.00    +0.080 C 
ENDBRANCH  15  17
ENDBRANCH  13  15
ENDBRANCH   7  13
ENDBRANCH   1  10
BRANCH   3  20
ATOM     20  N   LIG    1       -0.017   1.394   0.010  0.00  0.00    -0.650 N 
ATOM     21  H   LIG    1        0.629   1.919  -0.488  0.00  0.00    +0.420 HD
BRANCH  20  22
ATOM     22  C   LIG    1        0.188   0.023   0.193  0.00  0.00    +0.160 A 
ATOM     23  C   LIG    1       -0.079  -0.562   1.424  0.00  0.00    -0.020 A 
ATOM     24  C   LIG    1        0.120  -1.918   1.600  0.00  0.00    +0.040 A 
ATOM     25  C   LIG    1        0.596  -2.690   0.556  0.00  0.00    +0.000 A 
ATOM     26  C   LIG    1        0.868  -2.109  -0.670  0.00  0.00    +0.040 A 
ATOM     27  C   LIG    1        0.665  -0.755  -0.854  0.00  0.00    -0.010 A 
ENDBRANCH  20  22
ENDBRANCH   3  20
TORSDOF 6
