REMARK  Name = ZINCrH00000No4MT.0
REMARK                            x       y       z     vdW  Elec       q    Type
REMARK                         _______ _______ _______ _____ _____    ______ ____
ROOT
ATOM      1  C   LIG    1       -3.422   2.013  -0.887  0.00  0.00    +0.530 C 
ATOM      2  N   LIG    1       -4.629   1.461  -1.120  0.00  0.00    -0.580 N 
ATOM      3  H   LIG    1       -4.833   0.577  -0.775  0.00  0.00    +0.390 HD
ATOM      4  O   LIG    1       -3.168   3.118  -1.318  0.00  0.00    -0.470 OA
ENDROOT
BRANCH   2   5
ATOM      5  N   LIG    1       -5.590   2.163  -1.859  0.00  0.00    -0.230 NA
ATOM      6  C   LIG    1       -6.752   1.631  -2.084  0.00  0.00    +0.140 C 
ATOM      7  C   LIG    1       -7.069   0.258  -1.548  0.00  0.00    +0.090 C 
BRANCH   6   8
ATOM      8  C   LIG    1       -7.763   2.369  -2.862  0.00  0.00    -0.050 A 
ATOM      9  C   LIG    1       -9.015   1.799  -3.105  0.00  0.00    +0.050 A 
ATOM     10  C   LIG    1       -9.958   2.492  -3.834  0.00  0.00    +0.020 A 
ATOM     11  C   LIG    1       -9.669   3.757  -4.328  0.00  0.00    +0.070 A 
ATOM     12  O   LIG    1      -10.614   4.421  -5.048  0.00  0.00    -0.310 OA
ATOM     13  C   LIG    1      -10.429   5.832  -5.209  0.00  0.00    +0.230 C 
ATOM     14  C   LIG    1       -8.967   6.082  -5.605  0.00  0.00    +0.230 C 
ATOM     15  O   LIG    1       -8.128   5.574  -4.562  0.00  0.00    -0.300 OA
ATOM     16  C   LIG    1       -8.424   4.333  -4.088  0.00  0.00    +0.050 A 
ATOM     17  C   LIG    1       -7.474   3.644  -3.355  0.00  0.00    +0.080 A 
ENDBRANCH   6   8
ENDBRANCH   2   5
BRANCH   1  18
ATOM     18  C   LIG    1       -2.389   1.258  -0.091  0.00  0.00    +0.180 C 
ATOM     19  C   LIG    1       -2.937   0.964   1.307  0.00  0.00    +0.060 C 
BRANCH  18  20
ATOM     20  O   LIG    1       -1.202   2.047   0.019  0.00  0.00    -0.280 OA
BRANCH  20  28
ATOM     21  C   LIG    1        1.182   3.562  -0.002  0.00  0.00    +0.110 C 
ATOM     22  C   LIG    1        1.168   2.072   0.220  0.00  0.00    -0.100 A 
ATOM     23  C   LIG    1        2.354   1.392   0.420  0.00  0.00    +0.070 A 
ATOM     24  C   LIG    1        2.342   0.023   0.623  0.00  0.00    -0.070 A 
ATOM     25  C   LIG    1        1.143  -0.667   0.626  0.00  0.00    +0.060 A 
ATOM     26  C   LIG    1       -0.045   0.009   0.425  0.00  0.00    -0.060 A 
ATOM     27 CL   LIG    1        3.833  -0.829   0.876  0.00  0.00    -0.070 Cl
ATOM     28  C   LIG    1       -0.035   1.381   0.222  0.00  0.00    +0.130 A 
ENDBRANCH  20  28
ENDBRANCH  18  20
ENDBRANCH   1  18
TORSDOF 5
