REMARK  Name = ZINCpe00000R9tcf.0
REMARK                            x       y       z     vdW  Elec       q    Type
REMARK                         _______ _______ _______ _____ _____    ______ ____
ROOT
ATOM      1  C   LIG    1        1.438   3.140   0.879  0.00  0.00    +0.230 C 
ATOM      2  C   LIG    1        0.186   4.000   1.067  0.00  0.00    +0.010 C 
ATOM      3  C   LIG    1       -0.999   3.104   1.435  0.00  0.00    +0.020 C 
ATOM      4  C   LIG    1       -1.261   2.115   0.289  0.00  0.00    +0.290 C 
ATOM      5  N   LIG    1       -0.017   1.384   0.010  0.00  0.00    -0.570 N 
ATOM      6  C   LIG    1        1.206   2.151  -0.268  0.00  0.00    +0.290 C 
ENDROOT
BRANCH   5   7
ATOM      7  C   LIG    1        0.002  -0.004   0.002  0.00  0.00    +0.350 A 
ATOM      8  N   LIG    1        1.140  -0.655  -0.111  0.00  0.00    -0.510 NA
ATOM      9  C   LIG    1        1.165  -1.987  -0.115  0.00  0.00    +0.190 A 
ATOM     10  C   LIG    1        0.036  -2.719  -0.014  0.00  0.00    +0.160 A 
ATOM     11  N   LIG    1       -1.181  -2.115   0.102  0.00  0.00    -0.480 N 
ATOM     12  C   LIG    1       -2.401  -2.919   0.211  0.00  0.00    +0.320 C 
ATOM     13  C   LIG    1       -1.247  -0.765   0.114  0.00  0.00    +0.480 A 
ATOM     14  O   LIG    1       -2.320  -0.194   0.216  0.00  0.00    -0.520 OA
ENDBRANCH   5   7
BRANCH   1  16
ATOM     15  C   LIG    1        3.286   4.580   1.549  0.00  0.00    +0.600 C 
ATOM     16  N   LIG    1        2.579   4.002   0.558  0.00  0.00    -0.730 N 
ATOM     17  H   LIG    1        2.825   4.156  -0.368  0.00  0.00    +0.400 HD
ATOM     18  O   LIG    1        2.978   4.386   2.709  0.00  0.00    -0.530 OA
BRANCH  15  24
ATOM     19  C   LIG    1        5.262   6.122   2.151  0.00  0.00    +0.140 A 
ATOM     20  N   LIG    1        6.165   6.781   1.478  0.00  0.00    -0.290 NA
ATOM     21  N   LIG    1        5.955   6.570   0.111  0.00  0.00    -0.460 N 
ATOM     22  H   LIG    1        6.484   6.949  -0.609  0.00  0.00    +0.450 HD
ATOM     23  C   LIG    1        4.898   5.756  -0.037  0.00  0.00    +0.300 A 
ATOM     24  C   LIG    1        4.434   5.447   1.226  0.00  0.00    -0.290 A 
BRANCH  19  25
ATOM     25  C   LIG    1        5.128   6.083   3.651  0.00  0.00    +0.130 C 
BRANCH  25  27
ATOM     26  C   LIG    1        5.824   4.888   5.732  0.00  0.00    +0.010 C 
ATOM     27  C   LIG    1        5.960   4.926   4.208  0.00  0.00    +0.020 C 
ENDBRANCH  25  27
ENDBRANCH  19  25
ENDBRANCH  15  24
ENDBRANCH   1  16
TORSDOF 5
