REMARK  Name = ZINCvU00000007bR.0
REMARK                            x       y       z     vdW  Elec       q    Type
REMARK                         _______ _______ _______ _____ _____    ______ ____
ROOT
ATOM      1  C   LIG    1       -0.729  -7.505  -0.032  0.00  0.00    +0.290 A 
ATOM      2  N   LIG    1       -1.336  -7.947  -1.095  0.00  0.00    -0.490 NA
ATOM      3  C   LIG    1       -2.381  -8.734  -0.731  0.00  0.00    +0.050 A 
ATOM      4  C   LIG    1       -3.345  -9.448  -1.447  0.00  0.00    +0.070 A 
ATOM      5  C   LIG    1       -4.294 -10.169  -0.779  0.00  0.00    +0.000 A 
ATOM      6  C   LIG    1       -4.312 -10.200   0.608  0.00  0.00    +0.030 A 
ATOM      7  C   LIG    1       -3.371  -9.502   1.335  0.00  0.00    +0.010 A 
ATOM      8  C   LIG    1       -2.399  -8.766   0.674  0.00  0.00    +0.050 A 
ATOM      9  N   LIG    1       -1.339  -7.984   1.086  0.00  0.00    -0.490 N 
ENDROOT
BRANCH   1  10
ATOM     10  C   LIG    1        0.476  -6.602  -0.039  0.00  0.00    +0.160 C 
BRANCH  10  11
ATOM     11  C   LIG    1        0.019  -5.142  -0.026  0.00  0.00    +0.020 C 
BRANCH  11  12
ATOM     12  C   LIG    1        1.244  -4.224  -0.033  0.00  0.00    +0.270 C 
BRANCH  12  15
ATOM     13  O   LIG    1        2.906  -2.100  -0.038  0.00  0.00    -0.520 OA
ATOM     14  C   LIG    1        1.719  -1.834  -0.025  0.00  0.00    +0.610 C 
ATOM     15  N   LIG    1        0.806  -2.826  -0.021  0.00  0.00    -0.720 N 
ATOM     16  H   LIG    1       -0.140  -2.614  -0.011  0.00  0.00    +0.410 HD
BRANCH  14  17
ATOM     17  C   LIG    1        1.281  -0.434  -0.013  0.00  0.00    -0.090 A 
ATOM     18  C   LIG    1        2.095   0.661  -0.014  0.00  0.00    +0.050 A 
ATOM     19  C   LIG    1        1.257   1.787  -0.000  0.00  0.00    -0.070 A 
ATOM     20  C   LIG    1       -0.016   1.335   0.009  0.00  0.00    +0.210 A 
ATOM     21  O   LIG    1        0.002  -0.004   0.002  0.00  0.00    -0.170 OA
ENDBRANCH  14  17
ENDBRANCH  12  15
ENDBRANCH  11  12
ENDBRANCH  10  11
ENDBRANCH   1  10
BRANCH   9  22
ATOM     22  C   LIG    1       -0.945  -7.715   2.472  0.00  0.00    +0.310 C 
BRANCH  22  23
ATOM     23  C   LIG    1       -1.673  -6.467   2.976  0.00  0.00    +0.030 C 
BRANCH  23  24
ATOM     24  C   LIG    1       -1.262  -6.186   4.423  0.00  0.00    +0.200 C 
BRANCH  24  25
ATOM     25  O   LIG    1       -1.942  -5.021   4.893  0.00  0.00    -0.310 OA
BRANCH  25  26
ATOM     26  C   LIG    1       -1.687  -4.631   6.170  0.00  0.00    +0.140 A 
ATOM     27  C   LIG    1       -0.804  -5.359   6.955  0.00  0.00    -0.060 A 
ATOM     28  C   LIG    1       -0.543  -4.959   8.252  0.00  0.00    +0.070 A 
ATOM     29  C   LIG    1       -1.168  -3.839   8.770  0.00  0.00    -0.070 A 
ATOM     30  C   LIG    1       -2.052  -3.115   7.990  0.00  0.00    +0.070 A 
ATOM     31 CL   LIG    1       -0.842  -3.341  10.401  0.00  0.00    -0.070 Cl
ATOM     32  C   LIG    1       -2.312  -3.509   6.692  0.00  0.00    +0.000 A 
ENDBRANCH  25  26
ENDBRANCH  24  25
ENDBRANCH  23  24
ENDBRANCH  22  23
ENDBRANCH   9  22
TORSDOF 10
