REMARK  Name = ZINCqH0000009BQN.0
REMARK                            x       y       z     vdW  Elec       q    Type
REMARK                         _______ _______ _______ _____ _____    ______ ____
ROOT
ATOM      1  C   LIG    1       -2.458   1.136   0.058  0.00  0.00    +0.320 C 
ENDROOT
BRANCH   1  11
ATOM      2  C   LIG    1        2.360   1.162  -0.706  0.00  0.00    +0.100 C 
ATOM      3  C   LIG    1        1.279   1.983   0.001  0.00  0.00    +0.190 C 
ATOM      4  O   LIG    1        1.094   3.221  -0.692  0.00  0.00    -0.300 OA
ATOM      5  C   LIG    1       -0.015   3.940  -0.372  0.00  0.00    +0.080 A 
ATOM      6  C   LIG    1        0.007   5.323  -0.407  0.00  0.00    +0.030 A 
ATOM      7  C   LIG    1       -1.131   6.038  -0.078  0.00  0.00    +0.030 A 
ATOM      8  C   LIG    1       -2.289   5.377   0.285  0.00  0.00    +0.020 A 
ATOM      9  C   LIG    1       -2.318   3.994   0.323  0.00  0.00    +0.000 A 
ATOM     10  C   LIG    1       -1.183   3.273  -0.006  0.00  0.00    +0.090 A 
ATOM     11  N   LIG    1       -1.192   1.871   0.018  0.00  0.00    -0.550 N 
ATOM     12  C   LIG    1       -0.014   1.209   0.009  0.00  0.00    +0.490 C 
ATOM     13  O   LIG    1        0.002  -0.004   0.002  0.00  0.00    -0.490 OA
ENDBRANCH   1  11
BRANCH   1  14
ATOM     14  C   LIG    1       -2.871   0.910   1.514  0.00  0.00    +0.190 C 
BRANCH  14  15
ATOM     15  C   LIG    1       -4.174   0.153   1.555  0.00  0.00    +0.180 A 
ATOM     16  N   LIG    1       -4.317  -1.148   1.579  0.00  0.00    -0.440 NA
ATOM     17  C   LIG    1       -5.651  -1.366   1.615  0.00  0.00    +0.210 A 
ATOM     18  N   LIG    1       -6.234  -0.196   1.602  0.00  0.00    -0.370 NA
ATOM     19  O   LIG    1       -5.400   0.685   1.567  0.00  0.00    +0.090 OA
BRANCH  17  20
ATOM     20  C   LIG    1       -6.328  -2.687   1.657  0.00  0.00    -0.020 A 
ATOM     21  C   LIG    1       -7.718  -2.759   1.685  0.00  0.00    +0.070 A 
ATOM     22  C   LIG    1       -8.342  -3.990   1.724  0.00  0.00    +0.020 A 
ATOM     23  C   LIG    1       -7.590  -5.150   1.734  0.00  0.00    +0.050 A 
ATOM     24  C   LIG    1       -6.209  -5.085   1.706  0.00  0.00    +0.020 A 
ATOM     25  C   LIG    1       -5.573  -3.860   1.662  0.00  0.00    -0.000 A 
ATOM     26 CL   LIG    1       -3.840  -3.779   1.619  0.00  0.00    -0.030 Cl
ENDBRANCH  17  20
ENDBRANCH  14  15
ENDBRANCH   1  14
TORSDOF 4
