REMARK  Name = ZINCrH000004otjg.0
REMARK                            x       y       z     vdW  Elec       q    Type
REMARK                         _______ _______ _______ _____ _____    ______ ____
ROOT
ATOM      1  N   LIG    1        3.469   1.628  -0.938  0.00  0.00    -0.600 N 
ATOM      2  C   LIG    1        3.905   0.915  -1.995  0.00  0.00    +0.520 C 
ATOM      3  O   LIG    1        3.478  -0.203  -2.190  0.00  0.00    -0.520 OA
ATOM      4  C   LIG    1        3.985   2.979  -0.703  0.00  0.00    +0.290 C 
ENDROOT
BRANCH   1   6
ATOM      5  C   LIG    1        2.859   1.394   1.419  0.00  0.00    +0.060 C 
ATOM      6  C   LIG    1        2.481   1.052  -0.023  0.00  0.00    +0.290 C 
BRANCH   6   7
ATOM      7  C   LIG    1        1.119   1.618  -0.333  0.00  0.00    -0.080 A 
ATOM      8  C   LIG    1        0.966   2.978  -0.532  0.00  0.00    +0.050 A 
ATOM      9  C   LIG    1       -0.282   3.500  -0.817  0.00  0.00    +0.030 A 
ATOM     10  C   LIG    1       -1.379   2.662  -0.903  0.00  0.00    +0.070 A 
ATOM     11  C   LIG    1       -1.225   1.297  -0.709  0.00  0.00    +0.070 A 
ATOM     12  F   LIG    1       -2.294   0.476  -0.799  0.00  0.00    -0.130 F 
ATOM     13  F   LIG    1       -2.599   3.171  -1.181  0.00  0.00    -0.130 F 
ATOM     14  C   LIG    1        0.024   0.778  -0.419  0.00  0.00    +0.040 A 
ENDBRANCH   6   7
ENDBRANCH   1   6
BRANCH   2  15
ATOM     15  C   LIG    1        4.922   1.508  -2.936  0.00  0.00    +0.270 C 
ATOM     16  C   LIG    1        6.200   1.840  -2.163  0.00  0.00    +0.060 C 
BRANCH  15  17
ATOM     17  N   LIG    1        5.229   0.543  -3.995  0.00  0.00    -0.690 N 
ATOM     18  H   LIG    1        5.104  -0.406  -3.837  0.00  0.00    +0.420 HD
ATOM     19  C   LIG    1        5.685   0.974  -5.188  0.00  0.00    +0.650 C 
ATOM     20  O   LIG    1        5.842   2.162  -5.385  0.00  0.00    -0.570 OA
BRANCH  19  21
ATOM     21  O   LIG    1        5.967   0.087  -6.161  0.00  0.00    -0.360 OA
BRANCH  21  22
ATOM     22  C   LIG    1        6.454   0.622  -7.419  0.00  0.00    +0.290 C 
BRANCH  22  23
ATOM     23  C   LIG    1        6.714  -0.510  -8.380  0.00  0.00    -0.100 A 
ATOM     24  C   LIG    1        7.960  -1.108  -8.423  0.00  0.00    +0.040 A 
ATOM     25  C   LIG    1        8.196  -2.149  -9.301  0.00  0.00    +0.010 A 
ATOM     26  C   LIG    1        7.190  -2.587 -10.142  0.00  0.00    +0.020 A 
ATOM     27  C   LIG    1        5.946  -1.986 -10.102  0.00  0.00    +0.010 A 
ATOM     28  C   LIG    1        5.708  -0.948  -9.221  0.00  0.00    +0.040 A 
ENDBRANCH  22  23
ENDBRANCH  21  22
ENDBRANCH  19  21
ENDBRANCH  15  17
ENDBRANCH   2  15
TORSDOF 7
