REMARK  Name = ZINCrH000004tWrz.0
REMARK                            x       y       z     vdW  Elec       q    Type
REMARK                         _______ _______ _______ _____ _____    ______ ____
ROOT
ATOM      1  O   LIG    1        2.217   1.200  -2.358  0.00  0.00    -0.520 OA
ATOM      2  C   LIG    1        2.914   0.807  -1.446  0.00  0.00    +0.520 C 
ATOM      3  N   LIG    1        4.068   0.161  -1.710  0.00  0.00    -0.620 N 
ATOM      4  C   LIG    1        4.926  -0.315  -0.616  0.00  0.00    +0.290 C 
ATOM      5  C   LIG    1        5.199  -1.812  -0.825  0.00  0.00    +0.040 C 
ATOM      6  C   LIG    1        5.784  -2.028  -2.222  0.00  0.00    +0.120 C 
ATOM      7  C   LIG    1        4.774  -1.571  -3.277  0.00  0.00    +0.040 C 
ATOM      8  C   LIG    1        4.493  -0.076  -3.096  0.00  0.00    +0.280 C 
ENDROOT
BRANCH   6   9
ATOM      9  C   LIG    1        6.088  -3.491  -2.419  0.00  0.00    +0.250 A 
ATOM     10  N   LIG    1        5.210  -4.446  -2.355  0.00  0.00    -0.470 NA
ATOM     11  C   LIG    1        5.835  -5.632  -2.585  0.00  0.00    +0.020 A 
ATOM     12  C   LIG    1        5.403  -6.958  -2.641  0.00  0.00    +0.080 A 
ATOM     13  C   LIG    1        6.310  -7.962  -2.896  0.00  0.00    +0.020 A 
ATOM     14  C   LIG    1        7.649  -7.664  -3.098  0.00  0.00    +0.050 A 
ATOM     15  C   LIG    1        8.091  -6.359  -3.046  0.00  0.00    +0.050 A 
ATOM     16  C   LIG    1        7.192  -5.335  -2.791  0.00  0.00    +0.010 A 
ATOM     17  O   LIG    1        7.305  -3.993  -2.678  0.00  0.00    -0.210 OA
ENDBRANCH   6   9
BRANCH   2  18
ATOM     18  C   LIG    1        2.492   1.043  -0.019  0.00  0.00    +0.110 C 
BRANCH  18  19
ATOM     19  C   LIG    1        1.177   1.780   0.000  0.00  0.00    -0.100 A 
ATOM     20  C   LIG    1       -0.013   1.076   0.008  0.00  0.00    +0.060 A 
ATOM     21  C   LIG    1       -1.219   1.746   0.017  0.00  0.00    -0.010 A 
ATOM     22  C   LIG    1       -1.248   3.138   0.029  0.00  0.00    +0.110 A 
ATOM     23  O   LIG    1       -2.310   3.989   0.031  0.00  0.00    -0.310 OA
ATOM     24  C   LIG    1       -1.877   5.287   0.471  0.00  0.00    +0.240 C 
ATOM     25  C   LIG    1       -0.387   5.311   0.053  0.00  0.00    +0.070 C 
ATOM     26  C   LIG    1       -0.045   3.834   0.028  0.00  0.00    -0.170 A 
ATOM     27  C   LIG    1        1.157   3.163   0.011  0.00  0.00    +0.070 A 
ENDBRANCH  18  19
ENDBRANCH   2  18
TORSDOF 3
