REMARK  Name = ZINCrH000004tGdO.0
REMARK                            x       y       z     vdW  Elec       q    Type
REMARK                         _______ _______ _______ _____ _____    ______ ____
ROOT
ATOM      1  C   LIG    1        2.721   9.562   3.769  0.00  0.00    +0.220 C 
ATOM      2  C   LIG    1        1.918   8.742   4.809  0.00  0.00    +0.040 C 
ATOM      3  C   LIG    1        0.742   9.695   5.156  0.00  0.00    +0.010 C 
ATOM      4  C   LIG    1        1.381  11.099   5.164  0.00  0.00    +0.020 C 
ATOM      5  C   LIG    1        2.639  11.015   4.283  0.00  0.00    +0.030 C 
ENDROOT
BRANCH   1   6
ATOM      6  C   LIG    1        4.154   9.099   3.724  0.00  0.00    -0.070 A 
ATOM      7  C   LIG    1        4.806   8.759   4.895  0.00  0.00    +0.020 A 
ATOM      8  C   LIG    1        6.119   8.329   4.857  0.00  0.00    +0.020 A 
ATOM      9  C   LIG    1        6.790   8.248   3.646  0.00  0.00    +0.050 A 
ATOM     10  O   LIG    1        8.085   7.831   3.626  0.00  0.00    -0.310 OA
ATOM     11  C   LIG    1        8.604   7.406   2.362  0.00  0.00    +0.220 C 
ATOM     12  C   LIG    1        8.202   8.442   1.304  0.00  0.00    +0.220 C 
ATOM     13  O   LIG    1        6.773   8.516   1.270  0.00  0.00    -0.310 OA
ATOM     14  C   LIG    1        6.135   8.594   2.470  0.00  0.00    +0.050 A 
ATOM     15  C   LIG    1        4.816   9.020   2.514  0.00  0.00    +0.040 A 
ENDBRANCH   1   6
BRANCH   1  18
ATOM     16  O   LIG    1        2.368   7.249   2.427  0.00  0.00    -0.520 OA
ATOM     17  C   LIG    1        1.932   8.240   1.881  0.00  0.00    +0.510 C 
ATOM     18  N   LIG    1        2.106   9.452   2.444  0.00  0.00    -0.720 N 
ATOM     19  H   LIG    1        1.824  10.251   1.972  0.00  0.00    +0.400 HD
BRANCH  17  20
ATOM     20  C   LIG    1        1.195   8.116   0.572  0.00  0.00    +0.040 C 
BRANCH  20  21
ATOM     21  C   LIG    1        1.137   6.644   0.157  0.00  0.00    +0.060 C 
BRANCH  21  22
ATOM     22  C   LIG    1        0.389   6.518  -1.172  0.00  0.00    +0.090 C 
BRANCH  22  23
ATOM     23  C   LIG    1        0.333   5.069  -1.581  0.00  0.00    +0.130 A 
ATOM     24  C   LIG    1       -0.889   4.482  -1.848  0.00  0.00    -0.040 A 
ATOM     25  C   LIG    1       -0.930   3.149  -2.228  0.00  0.00    +0.060 A 
ATOM     26  C   LIG    1        0.265   2.451  -2.317  0.00  0.00    -0.050 A 
ATOM     27  C   LIG    1        1.449   3.106  -2.035  0.00  0.00    +0.260 A 
ATOM     28  N   LIG    1        1.450   4.376  -1.681  0.00  0.00    -0.480 NA
ENDBRANCH  22  23
ENDBRANCH  21  22
ENDBRANCH  20  21
ENDBRANCH  17  20
ENDBRANCH   1  18
TORSDOF 6
