REMARK  Name = ZINCrD00000hQ4HH.1
REMARK                            x       y       z     vdW  Elec       q    Type
REMARK                         _______ _______ _______ _____ _____    ______ ____
ROOT
ATOM      1  C   LIG    1        2.108   0.797  -1.289  0.00  0.00    -0.090 A 
ATOM      2  C   LIG    1        1.560   0.271  -2.445  0.00  0.00    +0.100 A 
ATOM      3  C   LIG    1        2.281   0.291  -3.623  0.00  0.00    -0.090 A 
ATOM      4  C   LIG    1        3.560   0.829  -3.643  0.00  0.00    +0.130 A 
ATOM      5  C   LIG    1        4.109   1.351  -2.481  0.00  0.00    -0.030 A 
ATOM      6  C   LIG    1        3.382   1.333  -1.306  0.00  0.00    +0.050 A 
ENDROOT
BRANCH   1   9
ATOM      7  C   LIG    1       -0.019   1.526   0.010  0.00  0.00    -0.060 C 
ATOM      8  C   LIG    1        0.002  -0.004   0.002  0.00  0.00    +0.060 C 
ATOM      9  C   LIG    1        1.317   0.779  -0.006  0.00  0.00    +0.050 C 
BRANCH   7  11
ATOM     10  N   LIG    1       -1.609   2.896  -1.298  0.00  0.00    -0.610 N 
ATOM     11  C   LIG    1       -0.442   2.223  -1.257  0.00  0.00    +0.540 C 
ATOM     12  O   LIG    1        0.267   2.178  -2.240  0.00  0.00    -0.510 OA
ATOM     13  C   LIG    1       -2.466   2.950  -0.111  0.00  0.00    +0.280 C 
BRANCH  10  14
ATOM     14  C   LIG    1       -2.020   3.574  -2.530  0.00  0.00    +0.280 C 
BRANCH  14  18
ATOM     15  C   LIG    1       -2.376   2.250  -6.652  0.00  0.00    +0.160 C 
ATOM     16  N   LIG    1       -3.004   1.986  -5.351  0.00  0.00    -0.490 NA
ATOM     17  C   LIG    1       -3.388   3.249  -4.682  0.00  0.00    +0.170 C 
ATOM     18  C   LIG    1       -2.840   2.611  -3.392  0.00  0.00    -0.030 C 
ATOM     19  C   LIG    1       -1.984   1.720  -4.310  0.00  0.00    +0.180 C 
ENDBRANCH  14  18
ENDBRANCH  10  14
ENDBRANCH   7  11
ENDBRANCH   1   9
BRANCH   4  20
ATOM     20  O   LIG    1        4.273   0.846  -4.800  0.00  0.00    -0.310 OA
BRANCH  20  21
ATOM     21  C   LIG    1        3.645   0.292  -5.957  0.00  0.00    +0.240 C 
BRANCH  21  22
ATOM     22  C   LIG    1        4.580   0.397  -7.135  0.00  0.00    -0.100 A 
ATOM     23  C   LIG    1        4.548   1.517  -7.945  0.00  0.00    +0.020 A 
ATOM     24  C   LIG    1        5.408   1.616  -9.022  0.00  0.00    +0.010 A 
ATOM     25  C   LIG    1        6.293   0.590  -9.296  0.00  0.00    +0.010 A 
ATOM     26  C   LIG    1        6.322  -0.533  -8.489  0.00  0.00    +0.010 A 
ATOM     27  C   LIG    1        5.465  -0.629  -7.409  0.00  0.00    +0.020 A 
ENDBRANCH  21  22
ENDBRANCH  20  21
ENDBRANCH   4  20
TORSDOF 7
