REMARK  Name = ZINCvU00000006a7.0
REMARK                            x       y       z     vdW  Elec       q    Type
REMARK                         _______ _______ _______ _____ _____    ______ ____
ROOT
ATOM      1  C   LIG    1       -5.991  -7.682   0.122  0.00  0.00    +0.120 C 
ATOM      2  C   LIG    1       -5.492  -6.262   0.068  0.00  0.00    -0.040 A 
ATOM      3  C   LIG    1       -6.290  -5.197   0.234  0.00  0.00    -0.220 A 
ATOM      4  S   LIG    1       -5.356  -3.715   0.112  0.00  0.00    +0.330 S 
ATOM      5  C   LIG    1       -3.912  -4.579  -0.170  0.00  0.00    +0.030 A 
ATOM      6  C   LIG    1       -4.153  -5.931  -0.159  0.00  0.00    -0.190 A 
ENDROOT
BRANCH   6   7
ATOM      7  C   LIG    1       -3.104  -6.934  -0.367  0.00  0.00    +0.580 C 
ATOM      8  N   LIG    1       -2.824  -7.368  -1.612  0.00  0.00    -0.600 N 
ATOM      9  C   LIG    1       -3.565  -6.850  -2.770  0.00  0.00    +0.270 C 
ATOM     10  C   LIG    1       -2.555  -6.323  -3.801  0.00  0.00    +0.010 C 
ATOM     11  C   LIG    1       -1.555  -7.431  -4.140  0.00  0.00    +0.020 C 
ATOM     12  C   LIG    1       -0.789  -7.832  -2.877  0.00  0.00    +0.010 C 
ATOM     13  C   LIG    1       -1.775  -8.373  -1.837  0.00  0.00    +0.270 C 
ATOM     14  O   LIG    1       -2.486  -7.375   0.584  0.00  0.00    -0.530 OA
ENDBRANCH   6   7
BRANCH   3  15
ATOM     15  C   LIG    1       -7.745  -5.262   0.489  0.00  0.00    -0.010 A 
ATOM     16  C   LIG    1       -8.621  -4.456  -0.240  0.00  0.00    +0.010 A 
ATOM     17  C   LIG    1       -9.977  -4.525  -0.001  0.00  0.00    +0.010 A 
ATOM     18  C   LIG    1      -10.470  -5.383   0.967  0.00  0.00    +0.000 A 
ATOM     19  C   LIG    1       -9.606  -6.181   1.697  0.00  0.00    +0.010 A 
ATOM     20  C   LIG    1       -8.248  -6.125   1.464  0.00  0.00    +0.030 A 
ENDBRANCH   3  15
BRANCH   5  21
ATOM     21  N   LIG    1       -2.671  -3.999  -0.373  0.00  0.00    -0.630 N 
ATOM     22  H   LIG    1       -1.893  -4.558  -0.523  0.00  0.00    +0.420 HD
ATOM     23  C   LIG    1       -2.545  -2.657  -0.364  0.00  0.00    +0.510 C 
ATOM     24  O   LIG    1       -3.517  -1.957  -0.177  0.00  0.00    -0.470 OA
BRANCH  23  25
ATOM     25  C   LIG    1       -1.194  -2.026  -0.586  0.00  0.00    +0.250 C 
BRANCH  25  26
ATOM     26  O   LIG    1       -1.318  -0.603  -0.530  0.00  0.00    -0.290 OA
BRANCH  26  27
ATOM     27  C   LIG    1       -0.184   0.122  -0.712  0.00  0.00    +0.120 A 
ATOM     28  C   LIG    1       -0.231   1.508  -0.671  0.00  0.00    -0.010 A 
ATOM     29  C   LIG    1        0.923   2.244  -0.855  0.00  0.00    +0.050 A 
ATOM     30  C   LIG    1        2.126   1.600  -1.081  0.00  0.00    -0.020 A 
ATOM     31  C   LIG    1        2.176   0.219  -1.122  0.00  0.00    +0.050 A 
ATOM     32  C   LIG    1        1.024  -0.521  -0.939  0.00  0.00    -0.080 A 
ENDBRANCH  26  27
ENDBRANCH  25  26
ENDBRANCH  23  25
ENDBRANCH   5  21
TORSDOF 6
