REMARK  Name = ZINCpk000000nmkb.0
REMARK                            x       y       z     vdW  Elec       q    Type
REMARK                         _______ _______ _______ _____ _____    ______ ____
ROOT
ATOM      1  C   LIG    1       -0.750   7.365   1.250  0.00  0.00    +0.540 C 
ATOM      2  N   LIG    1       -1.131   8.476   1.912  0.00  0.00    -0.720 N 
ATOM      3  H   LIG    1       -1.608   8.400   2.753  0.00  0.00    +0.410 HD
ATOM      4  O   LIG    1       -0.154   7.460   0.198  0.00  0.00    -0.520 OA
ENDROOT
BRANCH   1   5
ATOM      5  C   LIG    1       -1.065   6.005   1.818  0.00  0.00    +0.100 C 
BRANCH   5   6
ATOM      6  S   LIG    1       -0.429   4.725   0.706  0.00  0.00    +0.120 S 
BRANCH   6  11
ATOM      7  N   LIG    1       -0.704   1.998   1.216  0.00  0.00    -0.350 N 
ATOM      8  N   LIG    1       -1.272   1.216   2.237  0.00  0.00    -0.070 NA
ATOM      9  N   LIG    1       -1.769   2.034   3.101  0.00  0.00    -0.030 NA
ATOM     10  N   LIG    1       -1.573   3.248   2.731  0.00  0.00    -0.340 NA
ATOM     11  C   LIG    1       -0.922   3.282   1.588  0.00  0.00    +0.200 A 
BRANCH   7  13
ATOM     12  C   LIG    1        0.002  -0.004   0.002  0.00  0.00    +0.080 C 
ATOM     13  C   LIG    1       -0.019   1.526   0.010  0.00  0.00    +0.170 C 
ATOM     14  C   LIG    1       -0.759   2.033  -1.229  0.00  0.00    +0.070 C 
ATOM     15  C   LIG    1        1.417   2.055  -0.000  0.00  0.00    +0.070 C 
ENDBRANCH   7  13
ENDBRANCH   6  11
ENDBRANCH   5   6
ENDBRANCH   1   5
BRANCH   2  16
ATOM     16  C   LIG    1       -0.825   9.798   1.360  0.00  0.00    +0.320 C 
BRANCH  16  17
ATOM     17  C   LIG    1       -1.363  10.879   2.300  0.00  0.00    +0.140 C 
ATOM     18  C   LIG    1       -1.057  12.267   1.720  0.00  0.00    +0.240 C 
ATOM     19  O   LIG    1       -1.585  13.252   2.614  0.00  0.00    -0.300 OA
ATOM     20  C   LIG    1       -2.851  13.049   3.070  0.00  0.00    +0.050 A 
ATOM     21  C   LIG    1       -3.549  14.107   3.634  0.00  0.00    +0.030 A 
ATOM     22  C   LIG    1       -4.835  13.915   4.105  0.00  0.00    +0.020 A 
ATOM     23  C   LIG    1       -5.428  12.670   4.016  0.00  0.00    +0.020 A 
ATOM     24  C   LIG    1       -4.738  11.612   3.454  0.00  0.00    +0.030 A 
ATOM     25  C   LIG    1       -3.449  11.797   2.978  0.00  0.00    +0.050 A 
ATOM     26  O   LIG    1       -2.783  10.747   2.425  0.00  0.00    -0.300 OA
ENDBRANCH  16  17
ENDBRANCH   2  16
TORSDOF 6
