REMARK  Name = ZINCvU0000000JAZ.0
REMARK                            x       y       z     vdW  Elec       q    Type
REMARK                         _______ _______ _______ _____ _____    ______ ____
ROOT
ATOM      1  C   LIG    1       -2.579  -0.486  -1.782  0.00  0.00    +0.560 C 
ATOM      2  N   LIG    1       -3.017   0.672  -1.249  0.00  0.00    -0.570 N 
ATOM      3  O   LIG    1       -1.676  -1.099  -1.246  0.00  0.00    -0.480 OA
ENDROOT
BRANCH   2   4
ATOM      4  C   LIG    1       -4.008   1.412  -1.902  0.00  0.00    +0.120 A 
ATOM      5  C   LIG    1       -3.655   2.462  -2.739  0.00  0.00    +0.010 A 
ATOM      6  C   LIG    1       -4.636   3.191  -3.383  0.00  0.00    +0.010 A 
ATOM      7  C   LIG    1       -5.969   2.875  -3.194  0.00  0.00    -0.070 A 
ATOM      8  C   LIG    1       -6.324   1.830  -2.361  0.00  0.00    +0.020 A 
ATOM      9  C   LIG    1       -7.037   3.672  -3.898  0.00  0.00    +0.090 C 
ATOM     10  C   LIG    1       -5.348   1.094  -1.719  0.00  0.00    -0.070 A 
ATOM     11  C   LIG    1       -5.735  -0.049  -0.817  0.00  0.00    +0.090 C 
ENDBRANCH   2   4
BRANCH   1  15
ATOM     12  C   LIG    1       -4.357  -1.995  -5.331  0.00  0.00    +0.150 A 
ATOM     13  C   LIG    1       -4.046  -0.644  -5.232  0.00  0.00    -0.030 A 
ATOM     14  C   LIG    1       -3.470  -0.151  -4.083  0.00  0.00    +0.090 A 
ATOM     15  C   LIG    1       -3.197  -1.011  -3.015  0.00  0.00    -0.160 A 
ATOM     16  C   LIG    1       -3.506  -2.369  -3.121  0.00  0.00    +0.100 A 
ATOM     17  C   LIG    1       -4.087  -2.854  -4.272  0.00  0.00    -0.090 A 
BRANCH  12  19
ATOM     18  C   LIG    1       -5.218  -3.876  -6.500  0.00  0.00    +0.240 C 
ATOM     19  O   LIG    1       -4.925  -2.477  -6.465  0.00  0.00    -0.310 OA
ENDBRANCH  12  19
ENDBRANCH   1  15
BRANCH   2  20
ATOM     20  C   LIG    1       -2.453   1.156   0.013  0.00  0.00    +0.380 C 
BRANCH  20  21
ATOM     21  C   LIG    1       -1.259   2.030  -0.272  0.00  0.00    -0.200 A 
ATOM     22  C   LIG    1       -1.408   3.376  -0.341  0.00  0.00    +0.140 A 
ATOM     23  C   LIG    1       -0.229   4.197  -0.626  0.00  0.00    -0.140 A 
ATOM     24  C   LIG    1       -0.322   5.589  -0.717  0.00  0.00    +0.080 A 
ATOM     25  C   LIG    1        0.797   6.326  -0.984  0.00  0.00    -0.020 A 
ATOM     26  C   LIG    1        2.025   5.705  -1.167  0.00  0.00    +0.070 A 
ATOM     27  C   LIG    1        2.140   4.334  -1.081  0.00  0.00    -0.040 A 
ATOM     28  C   LIG    1        1.014   3.563  -0.810  0.00  0.00    +0.190 A 
ATOM     29  N   LIG    1        1.100   2.190  -0.721  0.00  0.00    -0.640 N 
ATOM     30  H   LIG    1        1.958   1.755  -0.848  0.00  0.00    +0.410 HD
ATOM     31  C   LIG    1        0.012   1.445  -0.459  0.00  0.00    +0.530 A 
ATOM     32  O   LIG    1        0.124   0.234  -0.386  0.00  0.00    -0.490 OA
ENDBRANCH  20  21
ENDBRANCH   2  20
TORSDOF 5
