REMARK  Name = ZINCtV00000tRSvl.0
REMARK                            x       y       z     vdW  Elec       q    Type
REMARK                         _______ _______ _______ _____ _____    ______ ____
ROOT
ATOM      1  C   LIG    1        1.201  -0.623  -0.117  0.00  0.00    +0.410 A 
ATOM      2  C   LIG    1        1.274  -2.031  -0.231  0.00  0.00    -0.180 A 
ATOM      3  C   LIG    1        0.214  -3.032  -0.259  0.00  0.00    -0.020 A 
ATOM      4  C   LIG    1        0.644  -4.286  -0.386  0.00  0.00    -0.020 A 
ATOM      5  S   LIG    1        2.393  -4.352  -0.491  0.00  0.00    +0.210 S 
ATOM      6  C   LIG    1        2.540  -2.607  -0.356  0.00  0.00    +0.110 A 
ATOM      7  N   LIG    1        3.618  -1.812  -0.352  0.00  0.00    -0.500 NA
ATOM      8  C   LIG    1        3.498  -0.510  -0.238  0.00  0.00    +0.560 A 
ATOM      9  N   LIG    1        2.322   0.080  -0.123  0.00  0.00    -0.560 NA
ENDROOT
BRANCH   3  10
ATOM     10  C   LIG    1       -1.222  -2.683  -0.148  0.00  0.00    -0.030 A 
ATOM     11  C   LIG    1       -1.663  -1.848   0.878  0.00  0.00    +0.060 A 
ATOM     12  C   LIG    1       -3.000  -1.522   0.973  0.00  0.00    +0.030 A 
ATOM     13  C   LIG    1       -3.906  -2.032   0.058  0.00  0.00    -0.030 A 
ATOM     14  C   LIG    1       -3.475  -2.866  -0.960  0.00  0.00    +0.030 A 
ATOM     15 CL   LIG    1       -5.588  -1.623   0.187  0.00  0.00    -0.070 Cl
ATOM     16  C   LIG    1       -2.139  -3.194  -1.067  0.00  0.00    +0.050 A 
ENDBRANCH   3  10
BRANCH   1  17
ATOM     17  O   LIG    1        0.002  -0.004   0.002  0.00  0.00    -0.220 OA
BRANCH  17  25
ATOM     18  C   LIG    1        0.185   6.357  -1.335  0.00  0.00    +0.130 C 
ATOM     19  C   LIG    1       -0.082   5.583  -0.070  0.00  0.00    +0.030 A 
ATOM     20  C   LIG    1       -0.352   6.224   1.097  0.00  0.00    -0.080 A 
ATOM     21  C   LIG    1       -0.598   5.476   2.267  0.00  0.00    +0.510 A 
ATOM     22  O   LIG    1       -0.573   4.134   2.264  0.00  0.00    -0.270 OA
ATOM     23  C   LIG    1       -0.311   3.436   1.139  0.00  0.00    +0.160 A 
ATOM     24  C   LIG    1       -0.295   2.050   1.152  0.00  0.00    +0.020 A 
ATOM     25  C   LIG    1       -0.019   1.353  -0.014  0.00  0.00    +0.140 A 
ATOM     26  C   LIG    1        0.233   2.034  -1.203  0.00  0.00    +0.010 A 
ATOM     27  C   LIG    1        0.215   3.399  -1.235  0.00  0.00    +0.110 A 
ATOM     28  O   LIG    1       -0.839   6.063   3.306  0.00  0.00    -0.460 OA
ATOM     29  C   LIG    1       -0.056   4.119  -0.066  0.00  0.00    -0.150 A 
ENDBRANCH  17  25
ENDBRANCH   1  17
TORSDOF 3
