REMARK  Name = ZINCrg00000IXBXV.0
REMARK                            x       y       z     vdW  Elec       q    Type
REMARK                         _______ _______ _______ _____ _____    ______ ____
ROOT
ATOM      1  C   LIG    1        5.728  -1.446  -1.503  0.00  0.00    +0.250 A 
ATOM      2  N   LIG    1        6.296  -0.266  -1.501  0.00  0.00    -0.390 NA
ATOM      3  O   LIG    1        5.451   0.603  -1.488  0.00  0.00    +0.080 OA
ATOM      4  C   LIG    1        4.231   0.057  -1.480  0.00  0.00    +0.190 A 
ATOM      5  N   LIG    1        4.391  -1.243  -1.483  0.00  0.00    -0.450 NA
ENDROOT
BRANCH   1   9
ATOM      6  C   LIG    1        9.853  -4.120  -1.560  0.00  0.00    +0.360 C 
ATOM      7  N   LIG    1        8.390  -4.048  -1.544  0.00  0.00    -0.530 N 
ATOM      8  C   LIG    1        7.782  -2.827  -1.536  0.00  0.00    +0.410 A 
ATOM      9  C   LIG    1        6.420  -2.756  -1.516  0.00  0.00    -0.190 A 
ATOM     10  C   LIG    1        5.656  -4.011  -1.516  0.00  0.00    +0.560 A 
ATOM     11  N   LIG    1        6.332  -5.179  -1.529  0.00  0.00    -0.650 N 
ATOM     12  H   LIG    1        5.845  -6.018  -1.529  0.00  0.00    +0.440 HD
ATOM     13  O   LIG    1        4.439  -3.997  -1.503  0.00  0.00    -0.470 OA
ATOM     14  C   LIG    1        7.676  -5.185  -1.543  0.00  0.00    +0.700 A 
ATOM     15  O   LIG    1        8.262  -6.250  -1.555  0.00  0.00    -0.530 OA
ENDBRANCH   1   9
BRANCH   4  16
ATOM     16  C   LIG    1        2.919   0.797  -1.464  0.00  0.00    +0.210 C 
BRANCH  16  17
ATOM     17  C   LIG    1        2.489   1.040  -0.016  0.00  0.00    +0.100 C 
BRANCH  17  18
ATOM     18  C   LIG    1        1.176   1.781   0.000  0.00  0.00    -0.080 A 
ATOM     19  C   LIG    1       -0.013   1.076   0.008  0.00  0.00    +0.040 A 
ATOM     20  C   LIG    1       -1.222   1.749   0.017  0.00  0.00    +0.030 A 
ATOM     21  C   LIG    1       -1.236   3.133   0.030  0.00  0.00    +0.070 A 
ATOM     22  O   LIG    1       -2.421   3.810   0.045  0.00  0.00    -0.320 OA
ATOM     23  C   LIG    1       -2.716   4.527   1.245  0.00  0.00    +0.230 C 
ATOM     24  C   LIG    1       -2.061   5.900   1.228  0.00  0.00    -0.020 C 
ATOM     25  C   LIG    1       -0.542   5.817   1.229  0.00  0.00    +0.230 C 
ATOM     26  O   LIG    1       -0.067   5.206   0.028  0.00  0.00    -0.320 OA
ATOM     27  C   LIG    1       -0.042   3.841   0.022  0.00  0.00    +0.070 A 
ATOM     28  C   LIG    1        1.165   3.165   0.007  0.00  0.00    +0.030 A 
ENDBRANCH  17  18
ENDBRANCH  16  17
ENDBRANCH   4  16
TORSDOF 4
