REMARK  Name = ZINCqH0000008vRa.0
REMARK                            x       y       z     vdW  Elec       q    Type
REMARK                         _______ _______ _______ _____ _____    ______ ____
ROOT
ATOM      1  C   LIG    1       -3.481   1.399  -0.011  0.00  0.00    +0.540 C 
ATOM      2  N   LIG    1       -2.488   0.501  -0.165  0.00  0.00    -0.670 N 
ATOM      3  H   LIG    1       -2.688  -0.448  -0.170  0.00  0.00    +0.420 HD
ATOM      4  O   LIG    1       -3.244   2.586  -0.091  0.00  0.00    -0.490 OA
ENDROOT
BRANCH   2   5
ATOM      5  C   LIG    1       -1.167   0.939  -0.318  0.00  0.00    +0.210 A 
ATOM      6  C   LIG    1       -0.736   2.089   0.330  0.00  0.00    +0.000 A 
ATOM      7  C   LIG    1        0.569   2.514   0.182  0.00  0.00    +0.150 A 
ATOM      8  C   LIG    1        1.445   1.800  -0.614  0.00  0.00    -0.690 A 
ATOM      9  C   LIG    1        1.017   0.657  -1.265  0.00  0.00    +0.150 A 
ATOM     10  C   LIG    1       -0.287   0.226  -1.121  0.00  0.00    -0.030 A 
BRANCH   8  11
ATOM     11  S   LIG    1        3.110   2.346  -0.801  0.00  0.00    +2.700 S 
ATOM     12  O   LIG    1        3.109   3.739  -0.519  0.00  0.00    -0.960 OA
ATOM     13  O   LIG    1        3.576   1.802  -2.028  0.00  0.00    -0.960 OA
BRANCH  11  14
ATOM     14  N   LIG    1        3.999   1.627   0.397  0.00  0.00    -1.250 NA
ATOM     15  H   LIG    1        4.950   1.803   0.466  0.00  0.00    +0.420 HD
ATOM     16  H   LIG    1        3.568   1.031   1.029  0.00  0.00    +0.420 HD
ENDBRANCH  11  14
ENDBRANCH   8  11
ENDBRANCH   2   5
BRANCH   1  18
ATOM     17  C   LIG    1       -5.065   0.693   1.761  0.00  0.00    +0.090 C 
ATOM     18  C   LIG    1       -4.887   0.928   0.260  0.00  0.00    +0.000 C 
BRANCH  18  19
ATOM     19  S   LIG    1       -6.066   2.189  -0.298  0.00  0.00    -0.070 S 
BRANCH  19  20
ATOM     20  C   LIG    1       -7.626   1.404  -0.067  0.00  0.00    -0.140 A 
ATOM     21  C   LIG    1       -8.145   0.580  -1.059  0.00  0.00    +0.060 A 
ATOM     22  C   LIG    1       -9.366  -0.037  -0.873  0.00  0.00    +0.000 A 
ATOM     23  C   LIG    1      -10.076   0.170   0.296  0.00  0.00    -0.040 A 
ATOM     24  C   LIG    1       -9.565   0.993   1.283  0.00  0.00    +0.000 A 
ATOM     25  C   LIG    1       -8.343   1.610   1.105  0.00  0.00    +0.070 A 
BRANCH  23  26
ATOM     26  C   LIG    1      -11.411  -0.501   0.493  0.00  0.00    -0.040 C 
ATOM     27  C   LIG    1      -11.352  -1.399   1.730  0.00  0.00    +0.040 C 
ATOM     28  C   LIG    1      -11.742  -1.349  -0.737  0.00  0.00    +0.030 C 
ATOM     29  C   LIG    1      -12.493   0.563   0.686  0.00  0.00    +0.040 C 
ENDBRANCH  23  26
ENDBRANCH  19  20
ENDBRANCH  18  19
ENDBRANCH   1  18
TORSDOF 7
