REMARK  Name = ZINCpe000000UTIe.0
REMARK                            x       y       z     vdW  Elec       q    Type
REMARK                         _______ _______ _______ _____ _____    ______ ____
ROOT
ATOM      1  N   LIG    1       -0.060   7.955   2.091  0.00  0.00    -0.510 NA
ATOM      2  C   LIG    1       -0.267   6.921   3.115  0.00  0.00    +0.180 C 
ATOM      3  C   LIG    1        0.885   5.913   3.059  0.00  0.00    +0.300 C 
ATOM      4  N   LIG    1        0.999   5.410   1.681  0.00  0.00    -0.620 N 
ATOM      5  C   LIG    1        1.079   6.390   0.587  0.00  0.00    +0.280 C 
ATOM      6  C   LIG    1        1.036   4.087   1.429  0.00  0.00    +0.520 C 
ATOM      7  O   LIG    1        0.974   3.293   2.344  0.00  0.00    -0.530 OA
ATOM      8  C   LIG    1       -0.088   7.379   0.740  0.00  0.00    +0.170 C 
ENDROOT
BRANCH   1   9
ATOM      9  C   LIG    1       -1.050   9.033   2.224  0.00  0.00    +0.190 C 
ATOM     10  C   LIG    1       -2.447   8.481   1.939  0.00  0.00    +0.030 C 
BRANCH   9  17
ATOM     11  C   LIG    1       -1.697  14.374  -0.712  0.00  0.00    +0.300 C 
ATOM     12  N   LIG    1       -2.005  13.308   0.245  0.00  0.00    -0.740 N 
ATOM     13  H   LIG    1       -2.770  13.393   0.836  0.00  0.00    +0.400 HD
ATOM     14  C   LIG    1       -1.227  12.209   0.303  0.00  0.00    +0.690 C 
ATOM     15  N   LIG    1       -1.510  11.228   1.183  0.00  0.00    -0.690 N 
ATOM     16  H   LIG    1       -2.275  11.313   1.774  0.00  0.00    +0.410 HD
ATOM     17  C   LIG    1       -0.732  10.130   1.241  0.00  0.00    +0.520 C 
ATOM     18  O   LIG    1        0.223  10.024   0.502  0.00  0.00    -0.440 OA
ATOM     19  O   LIG    1       -0.269  12.103  -0.438  0.00  0.00    -0.530 OA
ENDBRANCH   9  17
ENDBRANCH   1   9
BRANCH   6  20
ATOM     20  C   LIG    1        1.153   3.594   0.010  0.00  0.00    +0.110 C 
BRANCH  20  21
ATOM     21  C   LIG    1        1.173   2.087   0.002  0.00  0.00    -0.060 A 
ATOM     22  C   LIG    1        2.378   1.411  -0.013  0.00  0.00    +0.030 A 
ATOM     23  C   LIG    1        2.396   0.029  -0.021  0.00  0.00    +0.020 A 
ATOM     24  C   LIG    1        1.209  -0.679  -0.013  0.00  0.00    +0.020 A 
ATOM     25  C   LIG    1        0.002  -0.004   0.002  0.00  0.00    +0.020 A 
ATOM     26  C   LIG    1       -0.017   1.379   0.010  0.00  0.00    -0.020 A 
ATOM     27 CL   LIG    1       -1.532   2.227   0.021  0.00  0.00    -0.070 Cl
ENDBRANCH  20  21
ENDBRANCH   6  20
TORSDOF 4
