REMARK  Name = ZINCrD00000jbPzS.0
REMARK                            x       y       z     vdW  Elec       q    Type
REMARK                         _______ _______ _______ _____ _____    ______ ____
ROOT
ATOM      1  C   LIG    1       -2.523   0.971   0.351  0.00  0.00    -0.060 A 
ATOM      2  C   LIG    1       -2.533  -0.405   0.577  0.00  0.00    +0.070 A 
ATOM      3  C   LIG    1       -3.732  -1.090   0.636  0.00  0.00    +0.020 A 
ATOM      4  C   LIG    1       -4.926  -0.421   0.461  0.00  0.00    +0.060 A 
ATOM      5  C   LIG    1       -4.929   0.958   0.229  0.00  0.00    -0.160 A 
ATOM      6  C   LIG    1       -3.721   1.654   0.174  0.00  0.00    +0.090 A 
ENDROOT
BRANCH   1   9
ATOM      7  C   LIG    1       -0.017   3.758   0.011  0.00  0.00    +0.120 A 
ATOM      8  C   LIG    1       -1.223   3.079   0.069  0.00  0.00    +0.060 A 
ATOM      9  C   LIG    1       -1.234   1.705   0.294  0.00  0.00    -0.020 A 
ATOM     10  C   LIG    1       -0.033   1.022   0.472  0.00  0.00    +0.100 A 
ATOM     11  C   LIG    1        1.165   1.706   0.414  0.00  0.00    -0.630 A 
ATOM     12  C   LIG    1        1.176   3.069   0.184  0.00  0.00    +0.040 A 
BRANCH  11  13
ATOM     13  S   LIG    1        2.683   0.839   0.632  0.00  0.00    +2.700 S 
ATOM     14  O   LIG    1        2.372  -0.336   1.368  0.00  0.00    -0.960 OA
ATOM     15  O   LIG    1        3.635   1.800   1.068  0.00  0.00    -0.960 OA
BRANCH  13  16
ATOM     16  N   LIG    1        3.180   0.336  -0.866  0.00  0.00    -1.250 NA
ATOM     17  H   LIG    1        4.005  -0.166  -0.960  0.00  0.00    +0.420 HD
ATOM     18  H   LIG    1        2.645   0.541  -1.648  0.00  0.00    +0.420 HD
ENDBRANCH  13  16
ENDBRANCH  11  13
BRANCH   7  20
ATOM     19  C   LIG    1        1.278   5.733  -0.262  0.00  0.00    +0.250 C 
ATOM     20  O   LIG    1       -0.001   5.098  -0.215  0.00  0.00    -0.310 OA
ENDBRANCH   7  20
ENDBRANCH   1   9
BRANCH   5  21
ATOM     21  C   LIG    1       -6.207   1.674   0.041  0.00  0.00    +0.440 C 
ATOM     22  O   LIG    1       -6.219   2.888  -0.024  0.00  0.00    -0.440 OA
BRANCH  21  23
ATOM     23  C   LIG    1       -7.470   0.916  -0.068  0.00  0.00    -0.130 A 
ATOM     24  C   LIG    1       -7.486  -0.335  -0.688  0.00  0.00    +0.040 A 
ATOM     25  C   LIG    1       -8.667  -1.041  -0.783  0.00  0.00    +0.040 A 
ATOM     26  C   LIG    1       -9.838  -0.508  -0.275  0.00  0.00    +0.010 A 
ATOM     27  C   LIG    1       -9.833   0.735   0.337  0.00  0.00    +0.100 A 
ATOM     28  F   LIG    1      -10.980   1.249   0.832  0.00  0.00    -0.130 F 
ATOM     29  C   LIG    1       -8.655   1.450   0.443  0.00  0.00    +0.050 A 
ENDBRANCH  21  23
ENDBRANCH   5  21
TORSDOF 6
