REMARK  Name = ZINCpk00001tlrpl.0
REMARK                            x       y       z     vdW  Elec       q    Type
REMARK                         _______ _______ _______ _____ _____    ______ ____
ROOT
ATOM      1  N   LIG    1       -3.639  -2.334   0.290  0.00  0.00    -0.730 N 
ATOM      2  H   LIG    1       -3.026  -3.035   0.018  0.00  0.00    +0.400 HD
ATOM      3  C   LIG    1       -4.969  -2.529   0.197  0.00  0.00    +0.710 C 
ATOM      4  N   LIG    1       -5.448  -3.697  -0.275  0.00  0.00    -0.740 N 
ATOM      5  H   LIG    1       -4.835  -4.398  -0.547  0.00  0.00    +0.400 HD
ATOM      6  O   LIG    1       -5.738  -1.651   0.538  0.00  0.00    -0.580 OA
ENDROOT
BRANCH   1   9
ATOM      7  C   LIG    1       -1.162  -0.893   0.008  0.00  0.00    +0.260 C 
ATOM      8  C   LIG    1       -1.713  -1.177   1.416  0.00  0.00    +0.060 C 
ATOM      9  C   LIG    1       -3.119  -1.064   0.803  0.00  0.00    +0.270 C 
ATOM     10  C   LIG    1       -2.490  -0.172  -0.280  0.00  0.00    +0.050 C 
BRANCH   7  13
ATOM     11  C   LIG    1        1.286   1.757  -0.001  0.00  0.00    -0.090 A 
ATOM     12  C   LIG    1       -0.016   1.344   0.009  0.00  0.00    +0.320 A 
ATOM     13  N   LIG    1        0.002  -0.004   0.002  0.00  0.00    -0.350 N 
ATOM     14  N   LIG    1        1.349  -0.392  -0.013  0.00  0.00    -0.060 NA
ATOM     15  N   LIG    1        2.078   0.670  -0.014  0.00  0.00    -0.180 NA
BRANCH  11  16
ATOM     16  C   LIG    1        1.746   3.158   0.002  0.00  0.00    +0.560 C 
ATOM     17  O   LIG    1        0.935   4.063   0.015  0.00  0.00    -0.500 OA
BRANCH  16  19
ATOM     18  C   LIG    1        3.445   4.835  -0.005  0.00  0.00    +0.290 C 
ATOM     19  O   LIG    1        3.065   3.434  -0.009  0.00  0.00    -0.340 OA
ENDBRANCH  16  19
ENDBRANCH  11  16
ENDBRANCH   7  13
ENDBRANCH   1   9
BRANCH   4  20
ATOM     20  C   LIG    1       -6.894  -3.909  -0.377  0.00  0.00    +0.340 C 
BRANCH  20  21
ATOM     21  C   LIG    1       -7.163  -5.285  -0.929  0.00  0.00    -0.120 A 
ATOM     22  C   LIG    1       -7.278  -5.471  -2.294  0.00  0.00    +0.070 A 
ATOM     23  C   LIG    1       -7.520  -6.734  -2.801  0.00  0.00    -0.020 A 
ATOM     24  C   LIG    1       -7.657  -7.811  -1.942  0.00  0.00    +0.110 A 
ATOM     25  C   LIG    1       -7.546  -7.622  -0.575  0.00  0.00    -0.020 A 
ATOM     26  F   LIG    1       -7.897  -9.044  -2.437  0.00  0.00    -0.140 F 
ATOM     27  C   LIG    1       -7.299  -6.359  -0.069  0.00  0.00    +0.070 A 
ENDBRANCH  20  21
ENDBRANCH   4  20
TORSDOF 6
