REMARK  Name = ZINCrH000004qqNz.0
REMARK                            x       y       z     vdW  Elec       q    Type
REMARK                         _______ _______ _______ _____ _____    ______ ____
ROOT
ATOM      1  C   LIG    1        0.921   1.854   3.642  0.00  0.00    +0.570 C 
ATOM      2  N   LIG    1        0.936   1.376   2.381  0.00  0.00    -0.690 N 
ATOM      3  H   LIG    1        1.233   0.469   2.210  0.00  0.00    +0.400 HD
ATOM      4  O   LIG    1        0.549   2.991   3.856  0.00  0.00    -0.520 OA
ENDROOT
BRANCH   2   5
ATOM      5  C   LIG    1        0.503   2.227   1.270  0.00  0.00    +0.250 C 
ATOM      6  C   LIG    1       -0.019   1.532   0.011  0.00  0.00    -0.030 C 
ATOM      7  C   LIG    1        0.002  -0.004   0.002  0.00  0.00    +0.050 C 
ATOM      8  C   LIG    1        1.077  -0.463  -0.994  0.00  0.00    +0.080 C 
ATOM      9  C   LIG    1        2.422   0.013  -0.503  0.00  0.00    -0.080 A 
ATOM     10  C   LIG    1        3.514  -0.831  -0.529  0.00  0.00    +0.000 A 
ATOM     11  C   LIG    1        4.742  -0.385  -0.078  0.00  0.00    +0.000 A 
ATOM     12  C   LIG    1        4.877   0.905   0.399  0.00  0.00    +0.000 A 
ATOM     13  C   LIG    1        3.784   1.752   0.426  0.00  0.00    +0.020 A 
ATOM     14  C   LIG    1        2.557   1.306  -0.025  0.00  0.00    -0.060 A 
ATOM     15  C   LIG    1        1.356   2.219   0.001  0.00  0.00    +0.000 C 
ENDBRANCH   2   5
BRANCH   1  19
ATOM     16  C   LIG    1        2.657  -2.498   5.377  0.00  0.00    +0.140 C 
ATOM     17  C   LIG    1        2.192  -1.086   5.621  0.00  0.00    +0.200 A 
ATOM     18  C   LIG    1        1.790  -0.312   4.543  0.00  0.00    -0.040 A 
ATOM     19  C   LIG    1        1.359   0.995   4.763  0.00  0.00    -0.010 A 
ATOM     20  C   LIG    1        1.358   1.474   6.091  0.00  0.00    -0.180 A 
ATOM     21  C   LIG    1        1.008   2.704   6.689  0.00  0.00    +0.300 A 
ATOM     22  N   LIG    1        1.200   2.611   7.973  0.00  0.00    -0.230 NA
ATOM     23  N   LIG    1        1.668   1.330   8.291  0.00  0.00    -0.380 N 
ATOM     24  C   LIG    1        1.778   0.614   7.127  0.00  0.00    +0.320 A 
ATOM     25  N   LIG    1        2.177  -0.619   6.850  0.00  0.00    -0.490 NA
BRANCH  23  26
ATOM     26  C   LIG    1        2.000   0.845   9.633  0.00  0.00    +0.270 C 
ATOM     27  C   LIG    1        0.754   0.904  10.519  0.00  0.00    +0.050 C 
ATOM     28  C   LIG    1        3.098   1.724  10.236  0.00  0.00    +0.050 C 
ENDBRANCH  23  26
ENDBRANCH   1  19
TORSDOF 3
