REMARK  Name = ZINCqH0000051vMf.0
REMARK                            x       y       z     vdW  Elec       q    Type
REMARK                         _______ _______ _______ _____ _____    ______ ____
ROOT
ATOM      1  C   LIG    1        2.490   1.047  -0.015  0.00  0.00    -0.020 C 
ATOM      2  C   LIG    1        3.306   1.429   1.224  0.00  0.00    +0.030 C 
ATOM      3  C   LIG    1        4.670   0.738   1.160  0.00  0.00    +0.210 C 
ATOM      4  O   LIG    1        5.337   1.115  -0.046  0.00  0.00    -0.370 OA
ATOM      5  C   LIG    1        4.644   0.741  -1.238  0.00  0.00    +0.230 C 
ATOM      6  C   LIG    1        3.278   1.432  -1.271  0.00  0.00    +0.050 C 
ENDROOT
BRANCH   1   7
ATOM      7  C   LIG    1        1.175   1.783   0.000  0.00  0.00    -0.070 A 
ATOM      8  C   LIG    1       -0.013   1.076   0.008  0.00  0.00    +0.030 A 
ATOM      9  C   LIG    1       -1.219   1.750   0.017  0.00  0.00    +0.050 A 
ATOM     10  C   LIG    1       -1.239   3.134   0.030  0.00  0.00    -0.020 A 
ATOM     11  C   LIG    1       -0.050   3.842   0.022  0.00  0.00    +0.060 A 
ATOM     12 CL   LIG    1       -2.754   3.981   0.049  0.00  0.00    -0.050 Cl
ATOM     13  C   LIG    1        1.157   3.166   0.008  0.00  0.00    -0.010 A 
ATOM     14 CL   LIG    1        2.648   4.054  -0.003  0.00  0.00    -0.030 Cl
ENDBRANCH   1   7
BRANCH   1  16
ATOM     15  O   LIG    1        2.642  -1.123  -0.931  0.00  0.00    -0.450 OA
ATOM     16  C   LIG    1        2.236  -0.439  -0.015  0.00  0.00    +0.530 C 
ATOM     17  N   LIG    1        1.558  -1.007   1.002  0.00  0.00    -0.640 N 
ATOM     18  H   LIG    1        1.234  -0.460   1.734  0.00  0.00    +0.420 HD
BRANCH  17  19
ATOM     19  C   LIG    1        1.323  -2.381   1.001  0.00  0.00    +0.360 A 
ATOM     20  N   LIG    1        1.699  -3.234   0.076  0.00  0.00    -0.220 NA
ATOM     21  N   LIG    1        1.323  -4.424   0.388  0.00  0.00    -0.270 NA
ATOM     22  C   LIG    1        0.671  -4.397   1.537  0.00  0.00    +0.200 A 
ATOM     23  C   LIG    1        0.052  -5.388   2.325  0.00  0.00    +0.090 A 
ATOM     24  C   LIG    1       -0.550  -5.031   3.489  0.00  0.00    +0.060 A 
ATOM     25  C   LIG    1       -0.550  -3.683   3.893  0.00  0.00    +0.040 A 
ATOM     26  C   LIG    1        0.046  -2.743   3.131  0.00  0.00    +0.220 A 
ATOM     27  N   LIG    1        0.656  -3.086   1.958  0.00  0.00    -0.400 N 
ENDBRANCH  17  19
ENDBRANCH   1  16
TORSDOF 3
