REMARK  Name = ZINCrD000000CLyJ.0
REMARK                            x       y       z     vdW  Elec       q    Type
REMARK                         _______ _______ _______ _____ _____    ______ ____
ROOT
ATOM      1  C   LIG    1       -4.935   3.801   0.070  0.00  0.00    -0.070 A 
ATOM      2  C   LIG    1       -3.720   3.132   0.068  0.00  0.00    +0.020 A 
ATOM      3  C   LIG    1       -2.526   3.870   0.061  0.00  0.00    +0.200 A 
ATOM      4  N   LIG    1       -2.514   5.186   0.060  0.00  0.00    -0.450 NA
ATOM      5  C   LIG    1       -3.634   5.910   0.056  0.00  0.00    +0.130 A 
ATOM      6  C   LIG    1       -3.589   7.317   0.049  0.00  0.00    +0.050 A 
ATOM      7  C   LIG    1       -4.749   8.029   0.050  0.00  0.00    +0.030 A 
ATOM      8  C   LIG    1       -5.986   7.388   0.058  0.00  0.00    +0.020 A 
ATOM      9  C   LIG    1       -6.068   6.027   0.064  0.00  0.00    +0.060 A 
ATOM     10  C   LIG    1       -4.896   5.264   0.063  0.00  0.00    -0.070 A 
ENDROOT
BRANCH   3  11
ATOM     11  C   LIG    1       -1.235   3.142   0.060  0.00  0.00    -0.060 A 
ATOM     12  C   LIG    1       -1.217   1.748   0.061  0.00  0.00    +0.020 A 
ATOM     13  C   LIG    1       -0.012   1.076   0.066  0.00  0.00    +0.010 A 
ATOM     14  C   LIG    1        1.177   1.782   0.059  0.00  0.00    +0.030 A 
ATOM     15  C   LIG    1        1.166   3.166   0.052  0.00  0.00    +0.010 A 
ATOM     16  C   LIG    1       -0.033   3.849   0.053  0.00  0.00    +0.070 A 
ENDBRANCH   3  11
BRANCH   1  19
ATOM     17  N   LIG    1       -6.226   1.723  -0.032  0.00  0.00    -0.730 N 
ATOM     18  H   LIG    1       -5.390   1.238  -0.116  0.00  0.00    +0.400 HD
ATOM     19  C   LIG    1       -6.219   3.066   0.078  0.00  0.00    +0.570 C 
ATOM     20  O   LIG    1       -7.266   3.674   0.183  0.00  0.00    -0.510 OA
BRANCH  17  21
ATOM     21  C   LIG    1       -7.498   0.995  -0.023  0.00  0.00    +0.280 C 
BRANCH  21  27
ATOM     22  O   LIG    1       -5.814  -1.873  -3.115  0.00  0.00    -0.550 OA
ATOM     23  C   LIG    1       -6.586  -1.755  -2.187  0.00  0.00    +0.520 C 
ATOM     24  C   LIG    1       -7.695  -2.759  -2.054  0.00  0.00    +0.060 C 
ATOM     25  C   LIG    1       -8.271  -2.713  -0.636  0.00  0.00    +0.030 C 
ATOM     26  C   LIG    1       -8.558  -1.250  -0.277  0.00  0.00    +0.040 C 
ATOM     27  C   LIG    1       -7.227  -0.505  -0.160  0.00  0.00    +0.220 C 
ATOM     28  N   LIG    1       -6.406  -0.740  -1.341  0.00  0.00    -0.720 N 
ATOM     29  H   LIG    1       -5.682  -0.120  -1.522  0.00  0.00    +0.390 HD
ENDBRANCH  21  27
ENDBRANCH  17  21
ENDBRANCH   1  19
TORSDOF 4
