REMARK  Name = ZINCrD0000073VRV.0
REMARK                            x       y       z     vdW  Elec       q    Type
REMARK                         _______ _______ _______ _____ _____    ______ ____
ROOT
ATOM      1  C   LIG    1       -0.013   1.086   0.008  0.00  0.00    +0.070 C 
ATOM      2  C   LIG    1       -0.729   1.579   1.267  0.00  0.00    +0.180 C 
ENDROOT
BRANCH   2   3
ATOM      3  C   LIG    1        0.000   1.080   2.488  0.00  0.00    +0.520 C 
ATOM      4  N   LIG    1        1.254   1.502   2.743  0.00  0.00    -0.720 N 
ATOM      5  H   LIG    1        1.688   2.127   2.142  0.00  0.00    +0.400 HD
ATOM      6  O   LIG    1       -0.542   0.298   3.240  0.00  0.00    -0.510 OA
BRANCH   4   7
ATOM      7  C   LIG    1        1.963   1.017   3.930  0.00  0.00    +0.340 C 
BRANCH   7   8
ATOM      8  C   LIG    1        3.336   1.636   3.984  0.00  0.00    -0.100 A 
ATOM      9  C   LIG    1        4.403   1.001   3.377  0.00  0.00    +0.050 A 
ATOM     10  C   LIG    1        5.663   1.568   3.420  0.00  0.00    +0.040 A 
ATOM     11  C   LIG    1        5.861   2.769   4.080  0.00  0.00    +0.040 A 
ATOM     12  O   LIG    1        6.983   3.524   4.270  0.00  0.00    -0.310 OA
ATOM     13  C   LIG    1        6.666   4.418   5.353  0.00  0.00    +0.430 C 
ATOM     14  O   LIG    1        5.236   4.560   5.272  0.00  0.00    -0.310 OA
ATOM     15  C   LIG    1        4.787   3.407   4.696  0.00  0.00    +0.030 A 
ATOM     16  C   LIG    1        3.526   2.836   4.645  0.00  0.00    +0.060 A 
ENDBRANCH   7   8
ENDBRANCH   4   7
ENDBRANCH   2   3
BRANCH   2  17
ATOM     17  O   LIG    1       -2.070   1.085   1.277  0.00  0.00    -0.320 OA
BRANCH  17  18
ATOM     18  C   LIG    1       -3.010   1.853   0.689  0.00  0.00    +0.500 C 
ATOM     19  O   LIG    1       -2.699   2.913   0.182  0.00  0.00    -0.510 OA
BRANCH  18  20
ATOM     20  C   LIG    1       -4.403   1.410   0.662  0.00  0.00    -0.040 C 
ATOM     21  C   LIG    1       -5.344   2.178   0.073  0.00  0.00    +0.130 C 
BRANCH  21  22
ATOM     22  C   LIG    1       -6.746   1.732   0.046  0.00  0.00    -0.070 A 
ATOM     23  C   LIG    1       -7.106   0.510   0.623  0.00  0.00    +0.060 A 
ATOM     24  C   LIG    1       -8.423   0.102   0.599  0.00  0.00    +0.020 A 
ATOM     25  C   LIG    1       -9.386   0.892  -0.006  0.00  0.00    +0.050 A 
ATOM     26  C   LIG    1       -9.038   2.100  -0.584  0.00  0.00    +0.030 A 
ATOM     27  C   LIG    1       -7.725   2.526  -0.563  0.00  0.00    -0.010 A 
ATOM     28 CL   LIG    1       -7.289   4.041  -1.290  0.00  0.00    -0.050 Cl
ENDBRANCH  21  22
ENDBRANCH  18  20
ENDBRANCH  17  18
ENDBRANCH   2  17
TORSDOF 7
