REMARK  Name = ZINC9l0000002q6W.0
REMARK                            x       y       z     vdW  Elec       q    Type
REMARK                         _______ _______ _______ _____ _____    ______ ____
ROOT
ATOM      1  C   LIG    1       -1.290   0.436  -2.058  0.00  0.00    +0.010 C 
ATOM      2  C   LIG    1       -0.784   1.609  -1.216  0.00  0.00    -0.040 C 
ATOM      3  C   LIG    1       -0.013   1.086   0.008  0.00  0.00    -0.010 C 
ATOM      4  C   LIG    1       -0.763   1.597   1.255  0.00  0.00    +0.020 C 
ATOM      5  C   LIG    1       -1.531   2.845   0.750  0.00  0.00    -0.100 C 
ATOM      6  C   LIG    1       -1.978   2.421  -0.670  0.00  0.00    +0.020 C 
ENDROOT
BRANCH   5   7
ATOM      7  C   LIG    1       -2.726   3.131   1.623  0.00  0.00    +0.500 C 
ATOM      8  O   LIG    1       -3.757   3.549   1.126  0.00  0.00    -0.700 OA
ATOM      9  O   LIG    1       -2.661   2.944   2.826  0.00  0.00    -0.700 OA
ENDBRANCH   5   7
TORSDOF 1
