REMARK  Name = ZINCrD00000742xe.0
REMARK                            x       y       z     vdW  Elec       q    Type
REMARK                         _______ _______ _______ _____ _____    ______ ____
ROOT
ATOM      1  C   LIG    1       -0.732   2.023   1.270  0.00  0.00    +0.280 C 
ENDROOT
BRANCH   1   2
ATOM      2  C   LIG    1       -0.019   1.528   0.010  0.00  0.00    -0.030 C 
ATOM      3  C   LIG    1        1.422   2.047  -0.001  0.00  0.00    +0.010 C 
ATOM      4  C   LIG    1        2.174   1.469   1.202  0.00  0.00    +0.210 C 
ATOM      5  O   LIG    1        2.128   0.042   1.149  0.00  0.00    -0.380 OA
ATOM      6  C   LIG    1        0.808  -0.502   1.204  0.00  0.00    +0.210 C 
ATOM      7  C   LIG    1        0.002  -0.004   0.002  0.00  0.00    +0.020 C 
BRANCH   2   8
ATOM      8  C   LIG    1       -0.744   2.029  -1.212  0.00  0.00    -0.060 A 
ATOM      9  C   LIG    1       -1.877   2.808  -1.071  0.00  0.00    +0.050 A 
ATOM     10  C   LIG    1       -2.543   3.268  -2.192  0.00  0.00    +0.040 A 
ATOM     11  C   LIG    1       -2.076   2.949  -3.454  0.00  0.00    -0.030 A 
ATOM     12  C   LIG    1       -0.942   2.169  -3.595  0.00  0.00    +0.050 A 
ATOM     13 CL   LIG    1       -2.913   3.527  -4.861  0.00  0.00    -0.050 Cl
ATOM     14  C   LIG    1       -0.273   1.713  -2.474  0.00  0.00    -0.020 A 
ATOM     15 CL   LIG    1        1.154   0.741  -2.650  0.00  0.00    -0.040 Cl
ENDBRANCH   2   8
ENDBRANCH   1   2
BRANCH   1  17
ATOM     16  C   LIG    1       -1.331   4.150   2.297  0.00  0.00    +0.520 C 
ATOM     17  N   LIG    1       -0.751   3.488   1.277  0.00  0.00    -0.730 N 
ATOM     18  H   LIG    1       -0.345   3.981   0.546  0.00  0.00    +0.400 HD
ATOM     19  O   LIG    1       -1.837   3.533   3.210  0.00  0.00    -0.530 OA
BRANCH  16  20
ATOM     20  C   LIG    1       -1.350   5.657   2.304  0.00  0.00    +0.050 C 
BRANCH  20  21
ATOM     21  C   LIG    1       -2.063   6.152   3.564  0.00  0.00    +0.290 C 
BRANCH  21  23
ATOM     22  C   LIG    1       -2.663   8.279   4.591  0.00  0.00    +0.540 C 
ATOM     23  N   LIG    1       -2.082   7.617   3.570  0.00  0.00    -0.730 N 
ATOM     24  H   LIG    1       -1.677   8.110   2.840  0.00  0.00    +0.400 HD
ATOM     25  O   LIG    1       -3.169   7.662   5.504  0.00  0.00    -0.530 OA
BRANCH  22  29
ATOM     26  C   LIG    1       -4.107  11.782   5.507  0.00  0.00    +0.060 C 
ATOM     27  C   LIG    1       -3.356  10.478   5.784  0.00  0.00    +0.000 C 
ATOM     28  C   LIG    1       -1.832  10.498   5.651  0.00  0.00    +0.060 C 
ATOM     29  C   LIG    1       -2.682   9.785   4.598  0.00  0.00    -0.080 C 
ENDBRANCH  22  29
ENDBRANCH  21  23
ENDBRANCH  20  21
ENDBRANCH  16  20
ENDBRANCH   1  17
TORSDOF 7
