REMARK  Name = ZINCqH0000007fW0.0
REMARK                            x       y       z     vdW  Elec       q    Type
REMARK                         _______ _______ _______ _____ _____    ______ ____
ROOT
ATOM      1  N   LIG    1       -0.062   1.115  -4.059  0.00  0.00    -0.350 N 
ATOM      2  N   LIG    1        0.991   0.391  -4.646  0.00  0.00    -0.070 NA
ATOM      3  N   LIG    1        1.696  -0.092  -3.680  0.00  0.00    -0.030 NA
ATOM      4  N   LIG    1        1.200   0.257  -2.548  0.00  0.00    -0.330 NA
ATOM      5  C   LIG    1        0.122   0.990  -2.724  0.00  0.00    +0.210 A 
ENDROOT
BRANCH   1   6
ATOM      6  C   LIG    1       -1.128   1.847  -4.746  0.00  0.00    +0.400 C 
BRANCH   6  10
ATOM      7  C   LIG    1        0.117   5.880  -5.418  0.00  0.00    +0.150 A 
ATOM      8  C   LIG    1        0.378   4.904  -6.369  0.00  0.00    -0.010 A 
ATOM      9  C   LIG    1       -0.026   3.601  -6.150  0.00  0.00    +0.090 A 
ATOM     10  C   LIG    1       -0.689   3.269  -4.983  0.00  0.00    -0.170 A 
ATOM     11  C   LIG    1       -0.955   4.241  -4.035  0.00  0.00    +0.080 A 
ATOM     12  C   LIG    1       -0.548   5.544  -4.248  0.00  0.00    -0.080 A 
BRANCH   7  14
ATOM     13  C   LIG    1        0.211   8.113  -4.609  0.00  0.00    +0.240 C 
ATOM     14  O   LIG    1        0.513   7.162  -5.632  0.00  0.00    -0.310 OA
ENDBRANCH   7  14
ENDBRANCH   6  10
ENDBRANCH   1   6
BRANCH   5  15
ATOM     15  S   LIG    1       -0.888   1.685  -1.458  0.00  0.00    +0.060 S 
BRANCH  15  16
ATOM     16  C   LIG    1       -0.013   1.086   0.008  0.00  0.00    +0.220 C 
BRANCH  16  17
ATOM     17  C   LIG    1       -0.718   1.572   1.248  0.00  0.00    +0.030 A 
ATOM     18  N   LIG    1       -1.674   0.961   1.890  0.00  0.00    -0.340 NA
ATOM     19  O   LIG    1       -2.049   1.590   2.852  0.00  0.00    +0.130 OA
ATOM     20  C   LIG    1       -1.366   2.743   2.980  0.00  0.00    +0.060 A 
ATOM     21  C   LIG    1       -0.468   2.771   1.942  0.00  0.00    -0.030 A 
BRANCH  20  22
ATOM     22  C   LIG    1       -1.542   3.763   4.024  0.00  0.00    -0.150 A 
ATOM     23  C   LIG    1       -2.445   3.701   5.042  0.00  0.00    +0.060 A 
ATOM     24  C   LIG    1       -2.415   4.780   5.897  0.00  0.00    +0.010 A 
ATOM     25  C   LIG    1       -1.515   5.722   5.594  0.00  0.00    -0.030 A 
ATOM     26  S   LIG    1       -0.624   5.258   4.151  0.00  0.00    +0.170 S 
ENDBRANCH  20  22
ENDBRANCH  16  17
ENDBRANCH  15  16
ENDBRANCH   5  15
TORSDOF 7
