REMARK  Name = ZINCqH0000000XNI.0
REMARK                            x       y       z     vdW  Elec       q    Type
REMARK                         _______ _______ _______ _____ _____    ______ ____
ROOT
ATOM      1  C   LIG    1        3.127   8.932  -0.083  0.00  0.00    +0.520 C 
ATOM      2  N   LIG    1        3.733   7.732   0.007  0.00  0.00    -0.660 N 
ATOM      3  H   LIG    1        4.699   7.681   0.076  0.00  0.00    +0.410 HD
ATOM      4  O   LIG    1        1.916   9.002  -0.073  0.00  0.00    -0.490 OA
ENDROOT
BRANCH   2   5
ATOM      5  C   LIG    1        2.968   6.559   0.002  0.00  0.00    +0.090 A 
ATOM      6  C   LIG    1        1.783   6.492  -0.728  0.00  0.00    +0.110 A 
ATOM      7  C   LIG    1        1.060   5.313  -0.704  0.00  0.00    +0.010 A 
ATOM      8  C   LIG    1        1.536   4.242   0.042  0.00  0.00    +0.350 A 
ATOM      9  N   LIG    1        2.663   4.342   0.728  0.00  0.00    -0.490 NA
ATOM     10  C   LIG    1        3.381   5.447   0.724  0.00  0.00    +0.280 A 
BRANCH   8  11
ATOM     11  N   LIG    1        0.812   3.045   0.072  0.00  0.00    -0.330 N 
ATOM     12  C   LIG    1        1.153   1.920   0.753  0.00  0.00    +0.260 A 
ATOM     13  C   LIG    1        0.192   0.996   0.526  0.00  0.00    -0.100 A 
ATOM     14  C   LIG    1       -0.762   1.566  -0.324  0.00  0.00    +0.260 A 
ATOM     15  N   LIG    1       -0.394   2.792  -0.594  0.00  0.00    -0.290 NA
ENDBRANCH   8  11
ENDBRANCH   2   5
BRANCH   1  16
ATOM     16  C   LIG    1        3.953  10.187  -0.198  0.00  0.00    +0.220 C 
BRANCH  16  17
ATOM     17  C   LIG    1        4.714  10.171  -1.499  0.00  0.00    -0.120 A 
ATOM     18  C   LIG    1        4.108  10.616  -2.659  0.00  0.00    +0.040 A 
ATOM     19  C   LIG    1        4.806  10.605  -3.852  0.00  0.00    +0.010 A 
ATOM     20  C   LIG    1        6.108  10.141  -3.886  0.00  0.00    +0.010 A 
ATOM     21  C   LIG    1        6.712   9.691  -2.727  0.00  0.00    +0.010 A 
ATOM     22  C   LIG    1        6.015   9.706  -1.534  0.00  0.00    +0.010 A 
ENDBRANCH  16  17
BRANCH  16  23
ATOM     23  O   LIG    1        3.094  11.328  -0.162  0.00  0.00    -0.340 OA
BRANCH  23  25
ATOM     24  C   LIG    1        4.928  12.880  -0.424  0.00  0.00    +0.020 C 
ATOM     25  C   LIG    1        3.699  12.494   0.401  0.00  0.00    +0.110 C 
ATOM     26  C   LIG    1        4.123  12.203   1.842  0.00  0.00    +0.020 C 
ATOM     27  C   LIG    1        2.693  13.647   0.388  0.00  0.00    +0.070 C 
ENDBRANCH  23  25
ENDBRANCH  16  23
ENDBRANCH   1  16
TORSDOF 6
