REMARK  Name = ZINCpk00000KfKwc.0
REMARK                            x       y       z     vdW  Elec       q    Type
REMARK                         _______ _______ _______ _____ _____    ______ ____
ROOT
ATOM      1  N   LIG    1        0.112   0.758   0.091  0.00  0.00    -0.670 N 
ATOM      2  H   LIG    1        0.137  -0.212   0.091  0.00  0.00    +0.420 HD
ATOM      3  C   LIG    1       -1.072   1.402   0.087  0.00  0.00    +0.510 C 
ATOM      4  O   LIG    1       -1.104   2.611   0.008  0.00  0.00    -0.500 OA
ENDROOT
BRANCH   1   8
ATOM      5  C   LIG    1        3.665   2.933   0.090  0.00  0.00    -0.150 A 
ATOM      6  C   LIG    1        3.583   1.726   0.790  0.00  0.00    +0.100 A 
ATOM      7  C   LIG    1        2.407   1.010   0.789  0.00  0.00    -0.010 A 
ATOM      8  C   LIG    1        1.301   1.486   0.091  0.00  0.00    +0.170 A 
ATOM      9  C   LIG    1        1.381   2.684  -0.612  0.00  0.00    +0.010 A 
ATOM     10  C   LIG    1        2.552   3.408  -0.610  0.00  0.00    +0.070 A 
BRANCH   5  14
ATOM     11  N   LIG    1        5.001   4.867  -0.588  0.00  0.00    -0.850 N 
ATOM     12  H   LIG    1        5.829   5.373  -0.588  0.00  0.00    +0.410 HD
ATOM     13  H   LIG    1        4.230   5.198  -1.073  0.00  0.00    +0.400 HD
ATOM     14  C   LIG    1        4.924   3.703   0.089  0.00  0.00    +0.560 C 
ATOM     15  O   LIG    1        5.891   3.288   0.698  0.00  0.00    -0.540 OA
ENDBRANCH   5  14
ENDBRANCH   1   8
BRANCH   3  16
ATOM     16  C   LIG    1       -2.356   0.618   0.181  0.00  0.00    +0.310 C 
BRANCH  16  17
ATOM     17  N   LIG    1       -3.494   1.540   0.157  0.00  0.00    -0.730 N 
ATOM     18  H   LIG    1       -3.342   2.496   0.088  0.00  0.00    +0.420 HD
BRANCH  17  19
ATOM     19  C   LIG    1       -4.798   1.044   0.233  0.00  0.00    +0.240 A 
ATOM     20  C   LIG    1       -5.016  -0.312   0.429  0.00  0.00    -0.060 A 
ATOM     21  C   LIG    1       -6.306  -0.801   0.509  0.00  0.00    +0.070 A 
ATOM     22  C   LIG    1       -7.383   0.057   0.383  0.00  0.00    -0.030 A 
ATOM     23  C   LIG    1       -7.176   1.409   0.181  0.00  0.00    +0.070 A 
ATOM     24  C   LIG    1       -5.885   1.909   0.105  0.00  0.00    +0.050 A 
BRANCH  24  25
ATOM     25  N   LIG    1       -5.672   3.280  -0.098  0.00  0.00    -0.330 N 
ATOM     26  C   LIG    1       -6.238   4.053  -1.045  0.00  0.00    +0.480 A 
ATOM     27  N   LIG    1       -5.783   5.272  -0.899  0.00  0.00    -0.540 NA
ATOM     28  C   LIG    1       -4.923   5.314   0.118  0.00  0.00    +0.430 A 
ATOM     29  N   LIG    1       -4.822   4.120   0.640  0.00  0.00    -0.320 NA
ENDBRANCH  24  25
ENDBRANCH  17  19
ENDBRANCH  16  17
ENDBRANCH   3  16
TORSDOF 6
