REMARK  Name = ZINCvU000000078D.0
REMARK                            x       y       z     vdW  Elec       q    Type
REMARK                         _______ _______ _______ _____ _____    ______ ____
ROOT
ATOM      1  C   LIG    1       -3.416   3.788  -1.040  0.00  0.00    -0.110 A 
ATOM      2  C   LIG    1       -4.630   4.497  -0.980  0.00  0.00    +0.230 A 
ATOM      3  N   LIG    1       -4.937   5.232   0.079  0.00  0.00    -0.550 NA
ATOM      4  C   LIG    1       -4.129   5.337   1.122  0.00  0.00    +0.500 A 
ATOM      5  C   LIG    1       -2.896   4.660   1.153  0.00  0.00    -0.150 A 
ATOM      6  C   LIG    1       -2.523   3.870   0.047  0.00  0.00    +0.160 A 
ENDROOT
BRANCH   6   7
ATOM      7  C   LIG    1       -1.234   3.143   0.031  0.00  0.00    -0.090 A 
ATOM      8  C   LIG    1       -1.217   1.748   0.017  0.00  0.00    +0.040 A 
ATOM      9  C   LIG    1       -0.013   1.076   0.008  0.00  0.00    +0.010 A 
ATOM     10  C   LIG    1        1.177   1.782   0.000  0.00  0.00    +0.030 A 
ATOM     11  C   LIG    1        1.167   3.166   0.008  0.00  0.00    +0.010 A 
ATOM     12  C   LIG    1       -0.031   3.850   0.024  0.00  0.00    +0.040 A 
ENDBRANCH   6   7
BRANCH   4  13
ATOM     13  N   LIG    1       -4.504   6.118   2.197  0.00  0.00    -0.820 N 
ATOM     14  H   LIG    1       -3.917   6.200   2.964  0.00  0.00    +0.420 HD
ATOM     15  H   LIG    1       -5.354   6.585   2.184  0.00  0.00    +0.420 HD
ENDBRANCH   4  13
BRANCH   1  17
ATOM     16  N   LIG    1       -2.835   2.368  -3.100  0.00  0.00    -0.390 NA
ATOM     17  C   LIG    1       -3.092   2.996  -2.188  0.00  0.00    +0.250 C 
ENDBRANCH   1  17
BRANCH   5  18
ATOM     18  C   LIG    1       -2.031   4.776   2.288  0.00  0.00    +0.260 C 
ATOM     19  N   LIG    1       -1.345   4.868   3.188  0.00  0.00    -0.400 NA
ENDBRANCH   5  18
BRANCH   2  20
ATOM     20  S   LIG    1       -5.758   4.405  -2.330  0.00  0.00    +0.050 S 
BRANCH  20  21
ATOM     21  C   LIG    1       -7.080   5.473  -1.709  0.00  0.00    +0.110 C 
BRANCH  21  22
ATOM     22  C   LIG    1       -8.188   5.547  -2.728  0.00  0.00    +0.410 C 
ATOM     23  O   LIG    1       -8.092   4.937  -3.772  0.00  0.00    -0.430 OA
BRANCH  22  24
ATOM     24  C   LIG    1       -9.384   6.358  -2.457  0.00  0.00    -0.170 A 
ATOM     25  C   LIG    1      -10.401   6.422  -3.400  0.00  0.00    +0.120 A 
ATOM     26  C   LIG    1      -11.539   7.197  -3.133  0.00  0.00    -0.070 A 
ATOM     27  C   LIG    1      -12.591   7.287  -4.063  0.00  0.00    +0.040 A 
ATOM     28  C   LIG    1      -13.682   8.048  -3.774  0.00  0.00    +0.010 A 
ATOM     29  C   LIG    1      -13.773   8.741  -2.569  0.00  0.00    +0.030 A 
ATOM     30  C   LIG    1      -12.774   8.678  -1.645  0.00  0.00    +0.010 A 
ATOM     31  C   LIG    1      -11.633   7.903  -1.906  0.00  0.00    -0.030 A 
ATOM     32  C   LIG    1      -10.585   7.818  -0.971  0.00  0.00    +0.020 A 
ATOM     33  C   LIG    1       -9.493   7.059  -1.240  0.00  0.00    +0.050 A 
ENDBRANCH  22  24
ENDBRANCH  21  22
ENDBRANCH  20  21
ENDBRANCH   2  20
TORSDOF 8
