REMARK  Name = ZINCpk00000eb3rw.0
REMARK                            x       y       z     vdW  Elec       q    Type
REMARK                         _______ _______ _______ _____ _____    ______ ____
ROOT
ATOM      1  C   LIG    1       -0.154   0.372  -0.094  0.00  0.00    +0.200 C 
ENDROOT
BRANCH   1   9
ATOM      2  C   LIG    1       -5.880  -2.502  -1.136  0.00  0.00    +0.170 C 
ATOM      3  C   LIG    1       -5.247  -1.924   0.103  0.00  0.00    +0.140 A 
ATOM      4  C   LIG    1       -5.919  -1.962   1.276  0.00  0.00    -0.020 A 
ATOM      5  C   LIG    1       -5.340  -1.428   2.437  0.00  0.00    +0.140 A 
ATOM      6  C   LIG    1       -4.098  -0.871   2.374  0.00  0.00    +0.020 A 
ATOM      7  C   LIG    1       -3.415  -0.842   1.144  0.00  0.00    +0.400 A 
ATOM      8  N   LIG    1       -2.199  -0.303   1.082  0.00  0.00    -0.540 NA
ATOM      9  C   LIG    1       -1.526  -0.251  -0.057  0.00  0.00    +0.220 A 
ATOM     10  C   LIG    1       -2.078  -0.771  -1.211  0.00  0.00    -0.150 A 
ATOM     11  C   LIG    1       -3.354  -1.344  -1.153  0.00  0.00    +0.510 A 
ATOM     12  O   LIG    1       -3.870  -1.813  -2.155  0.00  0.00    -0.520 OA
ATOM     13  N   LIG    1       -4.005  -1.370   0.030  0.00  0.00    -0.430 N 
ENDBRANCH   1   9
BRANCH   1  14
ATOM     14  S   LIG    1       -0.306   2.174  -0.015  0.00  0.00    +0.060 S 
BRANCH  14  15
ATOM     15  C   LIG    1        1.395   2.627  -0.072  0.00  0.00    +0.200 A 
ATOM     16  N   LIG    1        2.421   1.807  -0.151  0.00  0.00    -0.330 NA
ATOM     17  N   LIG    1        3.523   2.466  -0.174  0.00  0.00    -0.030 NA
ATOM     18  N   LIG    1        3.289   3.732  -0.112  0.00  0.00    -0.060 NA
ATOM     19  N   LIG    1        1.893   3.886  -0.050  0.00  0.00    -0.350 N 
BRANCH  19  20
ATOM     20  C   LIG    1        1.139   5.140   0.027  0.00  0.00    +0.350 C 
BRANCH  20  21
ATOM     21  C   LIG    1        0.939   5.526   1.494  0.00  0.00    +0.150 C 
ATOM     22  C   LIG    1        0.047   6.783   1.587  0.00  0.00    +0.030 C 
ATOM     23  C   LIG    1        0.717   7.577   2.742  0.00  0.00    +0.010 C 
ATOM     24  C   LIG    1        2.208   7.215   2.521  0.00  0.00    +0.200 C 
ATOM     25  O   LIG    1        2.202   5.846   2.089  0.00  0.00    -0.370 OA
ENDBRANCH  20  21
ENDBRANCH  19  20
ENDBRANCH  14  15
ENDBRANCH   1  14
TORSDOF 5
