REMARK  Name = ZINCqH0000008sEM.0
REMARK                            x       y       z     vdW  Elec       q    Type
REMARK                         _______ _______ _______ _____ _____    ______ ____
ROOT
ATOM      1  C   LIG    1        2.764  -3.203   0.313  0.00  0.00    +0.040 C 
ATOM      2  C   LIG    1        3.010  -3.079  -1.192  0.00  0.00    +0.310 C 
ENDROOT
BRANCH   2   3
ATOM      3  C   LIG    1        4.437  -3.454  -1.500  0.00  0.00    -0.130 A 
ATOM      4  C   LIG    1        5.450  -2.536  -1.299  0.00  0.00    +0.040 A 
ATOM      5  C   LIG    1        6.760  -2.878  -1.576  0.00  0.00    -0.060 A 
ATOM      6  C   LIG    1        7.056  -4.142  -2.067  0.00  0.00    +0.120 A 
ATOM      7  C   LIG    1        6.036  -5.060  -2.273  0.00  0.00    +0.000 A 
ATOM      8  C   LIG    1        4.729  -4.714  -1.988  0.00  0.00    +0.080 A 
BRANCH   6   9
ATOM      9  O   LIG    1        8.342  -4.480  -2.346  0.00  0.00    -0.250 OA
BRANCH   9  10
ATOM     10  C   LIG    1        9.309  -3.552  -2.119  0.00  0.00    +0.030 A 
ATOM     11  C   LIG    1        9.944  -3.483  -0.883  0.00  0.00    +0.060 A 
ATOM     12  C   LIG    1       10.924  -2.521  -0.700  0.00  0.00    -0.010 A 
ATOM     13  C   LIG    1       11.235  -1.667  -1.741  0.00  0.00    +0.270 A 
ATOM     14  N   LIG    1       10.614  -1.759  -2.901  0.00  0.00    -0.470 NA
ATOM     15  C   LIG    1        9.680  -2.664  -3.118  0.00  0.00    +0.260 A 
ENDBRANCH   9  10
ENDBRANCH   6   9
ENDBRANCH   2   3
BRANCH   2  16
ATOM     16  N   LIG    1        2.766  -1.698  -1.615  0.00  0.00    -0.690 N 
ATOM     17  H   LIG    1        3.504  -1.073  -1.678  0.00  0.00    +0.410 HD
BRANCH  16  18
ATOM     18  C   LIG    1        1.484  -1.288  -1.925  0.00  0.00    +0.520 A 
ATOM     19  C   LIG    1        1.230   0.036  -2.334  0.00  0.00    -0.340 A 
ATOM     20  C   LIG    1        2.027   1.184  -2.534  0.00  0.00    +0.290 A 
ATOM     21  N   LIG    1        1.256   2.158  -2.924  0.00  0.00    -0.250 NA
ATOM     22  N   LIG    1       -0.069   1.711  -3.000  0.00  0.00    -0.380 N 
ATOM     23  C   LIG    1       -1.225   2.514  -3.406  0.00  0.00    +0.360 C 
ATOM     24  C   LIG    1       -0.098   0.397  -2.637  0.00  0.00    +0.370 A 
ATOM     25  N   LIG    1       -1.055  -0.522  -2.526  0.00  0.00    -0.580 NA
ATOM     26  C   LIG    1       -0.768  -1.746  -2.139  0.00  0.00    +0.590 A 
ATOM     27  N   LIG    1        0.461  -2.131  -1.845  0.00  0.00    -0.610 NA
ENDBRANCH  16  18
ENDBRANCH   2  16
TORSDOF 5
