REMARK  Name = ZINCrD00000rSVs3.0
REMARK                            x       y       z     vdW  Elec       q    Type
REMARK                         _______ _______ _______ _____ _____    ______ ____
ROOT
ATOM      1  C   LIG    1       -1.947   3.750   1.288  0.00  0.00    +0.010 C 
ATOM      2  C   LIG    1       -1.177   3.289   0.051  0.00  0.00    +0.060 C 
ATOM      3  C   LIG    1       -1.010   1.793   0.072  0.00  0.00    -0.020 C 
ATOM      4  C   LIG    1        0.182   1.251   0.062  0.00  0.00    -0.030 C 
ATOM      5  C   LIG    1        1.418   2.109   0.013  0.00  0.00    +0.200 C 
ATOM      6  O   LIG    1        2.575   1.294   0.218  0.00  0.00    -0.380 OA
ATOM      7  C   LIG    1        3.798   2.032   0.277  0.00  0.00    +0.210 C 
ATOM      8  C   LIG    1        4.038   2.510   1.710  0.00  0.00    +0.030 C 
ATOM      9  C   LIG    1        4.176   4.032   1.730  0.00  0.00    +0.040 C 
ATOM     10  C   LIG    1        3.099   4.633   2.596  0.00  0.00    +0.510 C 
ATOM     11  N   LIG    1        2.635   5.875   2.302  0.00  0.00    -0.740 N 
ATOM     12  H   LIG    1        2.987   6.362   1.538  0.00  0.00    +0.410 HD
ATOM     13  C   LIG    1        1.608   6.455   3.181  0.00  0.00    +0.300 C 
ATOM     14  C   LIG    1        0.304   6.638   2.402  0.00  0.00    +0.280 C 
ATOM     15  N   LIG    1       -0.145   5.342   1.882  0.00  0.00    -0.720 N 
ATOM     16  H   LIG    1        0.504   4.655   1.662  0.00  0.00    +0.400 HD
ATOM     17  O   LIG    1        2.656   4.018   3.542  0.00  0.00    -0.520 OA
ATOM     18  C   LIG    1       -1.464   5.115   1.709  0.00  0.00    +0.530 C 
ATOM     19  O   LIG    1       -2.269   6.003   1.904  0.00  0.00    -0.530 OA
ENDROOT
BRANCH  14  20
ATOM     20  C   LIG    1        0.525   7.595   1.260  0.00  0.00    -0.090 A 
ATOM     21  C   LIG    1        1.122   7.154   0.094  0.00  0.00    +0.000 A 
ATOM     22  C   LIG    1        1.321   8.030  -0.956  0.00  0.00    +0.000 A 
ATOM     23  C   LIG    1        0.931   9.351  -0.837  0.00  0.00    +0.000 A 
ATOM     24  C   LIG    1        0.339   9.794   0.331  0.00  0.00    +0.010 A 
ATOM     25  C   LIG    1        0.136   8.916   1.379  0.00  0.00    +0.020 A 
ENDBRANCH  14  20
BRANCH   1  26
ATOM     26  C   LIG    1       -1.735   2.763   2.437  0.00  0.00    +0.050 C 
BRANCH  26  28
ATOM     27  C   LIG    1       -4.085   3.010   3.248  0.00  0.00    +0.010 C 
ATOM     28  C   LIG    1       -2.611   3.166   3.625  0.00  0.00    -0.030 C 
ATOM     29  C   LIG    1       -2.293   2.267   4.822  0.00  0.00    +0.000 C 
ENDBRANCH  26  28
ENDBRANCH   1  26
TORSDOF 3
