REMARK  Name = ZINCpe00000MJMgx.0
REMARK                            x       y       z     vdW  Elec       q    Type
REMARK                         _______ _______ _______ _____ _____    ______ ____
ROOT
ATOM      1  C   LIG    1       -6.777   8.444  -1.282  0.00  0.00    +0.200 C 
ATOM      2  C   LIG    1       -6.229   7.027  -1.552  0.00  0.00    +0.050 C 
ATOM      3  C   LIG    1       -5.906   6.486  -0.145  0.00  0.00    +0.240 C 
ATOM      4  C   LIG    1       -5.740   7.778   0.689  0.00  0.00    +0.190 C 
ATOM      5  C   LIG    1       -4.406   8.452   0.360  0.00  0.00    +0.000 C 
ATOM      6  C   LIG    1       -3.243   7.489   0.589  0.00  0.00    +0.020 C 
ATOM      7  C   LIG    1       -3.385   6.313  -0.387  0.00  0.00    +0.220 C 
ATOM      8  C   LIG    1       -2.270   5.295  -0.139  0.00  0.00    +0.060 C 
ATOM      9  N   LIG    1       -4.692   5.689  -0.146  0.00  0.00    -0.580 N 
ATOM     10  C   LIG    1       -4.766   4.361   0.072  0.00  0.00    +0.590 C 
ATOM     11  O   LIG    1       -3.751   3.717   0.254  0.00  0.00    -0.520 OA
ATOM     12  O   LIG    1       -6.786   8.631   0.155  0.00  0.00    -0.340 OA
ENDROOT
BRANCH  10  13
ATOM     13  C   LIG    1       -6.082   3.687   0.090  0.00  0.00    -0.050 A 
ATOM     14  C   LIG    1       -6.179   2.347   0.485  0.00  0.00    +0.140 A 
ATOM     15  C   LIG    1       -7.432   1.759   0.484  0.00  0.00    -0.030 A 
ATOM     16  C   LIG    1       -8.521   2.538   0.091  0.00  0.00    +0.360 A 
ATOM     17  N   LIG    1       -8.335   3.802  -0.274  0.00  0.00    -0.310 NA
ATOM     18  N   LIG    1       -7.175   4.350  -0.270  0.00  0.00    -0.160 NA
BRANCH  16  19
ATOM     19  N   LIG    1       -9.794   1.991   0.075  0.00  0.00    -0.600 N 
ATOM     20  C   LIG    1      -10.921   2.775  -0.436  0.00  0.00    +0.300 C 
ATOM     21  C   LIG    1      -10.014   0.632   0.575  0.00  0.00    +0.300 C 
ENDBRANCH  16  19
ENDBRANCH  10  13
BRANCH   1  22
ATOM     22  C   LIG    1       -8.176   8.566  -1.827  0.00  0.00    +0.460 C 
ATOM     23  O   LIG    1       -9.105   8.740  -1.074  0.00  0.00    -0.480 OA
BRANCH  22  25
ATOM     24  C   LIG    1       -9.764   8.608  -3.604  0.00  0.00    +0.270 C 
ATOM     25  O   LIG    1       -8.391   8.481  -3.150  0.00  0.00    -0.360 OA
ENDBRANCH  22  25
ENDBRANCH   1  22
TORSDOF 4
