REMARK  Name = ZINCpk00000xR9Kd.0
REMARK                            x       y       z     vdW  Elec       q    Type
REMARK                         _______ _______ _______ _____ _____    ______ ____
ROOT
ATOM      1  C   LIG    1        1.641   2.785   1.269  0.00  0.00    +0.510 C 
ATOM      2  N   LIG    1        2.683   3.639   1.282  0.00  0.00    -0.720 N 
ATOM      3  H   LIG    1        3.263   3.709   0.507  0.00  0.00    +0.400 HD
ATOM      4  O   LIG    1        0.916   2.699   2.238  0.00  0.00    -0.520 OA
ENDROOT
BRANCH   1  11
ATOM      5  C   LIG    1       -2.478   1.556   0.123  0.00  0.00    +0.110 C 
ATOM      6  C   LIG    1       -1.117   2.204   0.101  0.00  0.00    +0.530 C 
ATOM      7  N   LIG    1       -0.007   1.440   0.080  0.00  0.00    -0.600 N 
ATOM      8  C   LIG    1        0.021  -0.034   0.076  0.00  0.00    +0.240 C 
ATOM      9  C   LIG    1        1.408  -0.406   0.658  0.00  0.00    +0.170 C 
ATOM     10  C   LIG    1        2.307   0.707   0.056  0.00  0.00    +0.080 C 
ATOM     11  C   LIG    1        1.376   1.938   0.051  0.00  0.00    +0.220 C 
ATOM     12  O   LIG    1       -1.021   3.413   0.102  0.00  0.00    -0.530 OA
BRANCH   9  13
ATOM     13  O   LIG    1        1.823  -1.698   0.209  0.00  0.00    -0.550 OA
ATOM     14  H   LIG    1        1.234  -2.415   0.479  0.00  0.00    +0.390 HD
ENDBRANCH   9  13
ENDBRANCH   1  11
BRANCH   2  15
ATOM     15  C   LIG    1        2.941   4.463   2.466  0.00  0.00    +0.290 C 
ATOM     16  C   LIG    1        3.772   3.664   3.472  0.00  0.00    +0.030 C 
BRANCH  15  17
ATOM     17  C   LIG    1        3.698   5.702   2.061  0.00  0.00    -0.080 A 
ATOM     18  C   LIG    1        4.706   5.618   1.118  0.00  0.00    +0.000 A 
ATOM     19  C   LIG    1        5.398   6.754   0.739  0.00  0.00    +0.020 A 
ATOM     20  C   LIG    1        5.093   7.973   1.310  0.00  0.00    -0.030 A 
ATOM     21  C   LIG    1        4.085   8.060   2.262  0.00  0.00    +0.090 A 
ATOM     22  C   LIG    1        3.387   6.919   2.636  0.00  0.00    +0.050 A 
BRANCH  21  23
ATOM     23  N   LIG    1        3.773   9.292   2.842  0.00  0.00    -0.490 N 
ATOM     24  C   LIG    1        4.926   9.823   3.613  0.00  0.00    +0.180 C 
ATOM     25  C   LIG    1        4.615  11.338   3.717  0.00  0.00    +0.030 C 
ATOM     26  C   LIG    1        3.991  11.657   2.339  0.00  0.00    +0.020 C 
ATOM     27  C   LIG    1        3.479  10.306   1.806  0.00  0.00    +0.170 C 
ENDBRANCH  21  23
ENDBRANCH  15  17
ENDBRANCH   2  15
TORSDOF 5
