REMARK  Name = ZINCvU00000006uy.0
REMARK                            x       y       z     vdW  Elec       q    Type
REMARK                         _______ _______ _______ _____ _____    ______ ____
ROOT
ATOM      1  C   LIG    1       -0.044   3.844   0.022  0.00  0.00    -0.090 A 
ATOM      2  C   LIG    1        1.160   3.168   0.008  0.00  0.00    +0.050 A 
ATOM      3  C   LIG    1        1.177   1.783   0.000  0.00  0.00    +0.080 A 
ATOM      4  C   LIG    1       -0.013   1.076   0.008  0.00  0.00    +0.040 A 
ATOM      5  C   LIG    1       -1.220   1.750   0.017  0.00  0.00    -0.170 A 
ATOM      6  C   LIG    1       -2.510   0.969   0.026  0.00  0.00    +0.300 C 
ATOM      7  O   LIG    1       -3.589   1.834  -0.341  0.00  0.00    -0.370 OA
ATOM      8  C   LIG    1       -3.587   3.070   0.384  0.00  0.00    +0.390 C 
ATOM      9  O   LIG    1       -2.419   3.811   0.032  0.00  0.00    -0.320 OA
ATOM     10  F   LIG    1        2.355   1.122  -0.014  0.00  0.00    -0.130 F 
ATOM     11  C   LIG    1       -1.238   3.135   0.027  0.00  0.00    +0.140 A 
ENDROOT
BRANCH   8  12
ATOM     12  C   LIG    1       -4.819   3.863   0.032  0.00  0.00    -0.100 A 
ATOM     13  C   LIG    1       -4.694   5.121  -0.529  0.00  0.00    +0.050 A 
ATOM     14  C   LIG    1       -5.824   5.847  -0.856  0.00  0.00    +0.010 A 
ATOM     15  C   LIG    1       -7.079   5.320  -0.612  0.00  0.00    +0.020 A 
ATOM     16  C   LIG    1       -7.204   4.065  -0.046  0.00  0.00    +0.010 A 
ATOM     17  C   LIG    1       -6.074   3.337   0.276  0.00  0.00    +0.040 A 
ENDBRANCH   8  12
BRANCH   1  18
ATOM     18  C   LIG    1       -0.062   5.351   0.031  0.00  0.00    +0.300 C 
BRANCH  18  19
ATOM     19  O   LIG    1        1.301   5.851   0.023  0.00  0.00    -0.350 OA
BRANCH  19  21
ATOM     20  O   LIG    1        0.489   7.917   0.042  0.00  0.00    -0.500 OA
ATOM     21  C   LIG    1        1.462   7.189   0.029  0.00  0.00    +0.520 C 
BRANCH  21  22
ATOM     22  C   LIG    1        2.817   7.769   0.021  0.00  0.00    -0.150 A 
ATOM     23  C   LIG    1        3.938   6.932   0.013  0.00  0.00    +0.130 A 
ATOM     24  C   LIG    1        5.202   7.478  -0.001  0.00  0.00    -0.070 A 
ATOM     25  C   LIG    1        5.365   8.858   0.006  0.00  0.00    +0.140 A 
ATOM     26  C   LIG    1        4.254   9.694   0.021  0.00  0.00    +0.000 A 
ATOM     27  C   LIG    1        2.986   9.156   0.028  0.00  0.00    +0.130 A 
BRANCH  25  28
ATOM     28  O   LIG    1        6.613   9.392  -0.001  0.00  0.00    -0.320 OA
BRANCH  28  29
ATOM     29  C   LIG    1        7.710   8.476  -0.016  0.00  0.00    +0.600 C 
ATOM     30  F   LIG    1        7.636   7.678  -1.162  0.00  0.00    -0.190 F 
ATOM     31  F   LIG    1        7.655   7.664   1.122  0.00  0.00    -0.200 F 
ENDBRANCH  28  29
ENDBRANCH  25  28
ENDBRANCH  21  22
ENDBRANCH  19  21
ENDBRANCH  18  19
ENDBRANCH   1  18
TORSDOF 7
