REMARK  Name = ZINCpk00000jZgvx.0
REMARK                            x       y       z     vdW  Elec       q    Type
REMARK                         _______ _______ _______ _____ _____    ______ ____
ROOT
ATOM      1  C   LIG    1       -5.269   7.879   1.971  0.00  0.00    +0.290 C 
ATOM      2  N   LIG    1       -4.115   7.164   2.522  0.00  0.00    -0.610 N 
ATOM      3  C   LIG    1       -3.081   7.854   3.042  0.00  0.00    +0.550 C 
ATOM      4  O   LIG    1       -2.125   7.262   3.498  0.00  0.00    -0.530 OA
ENDROOT
BRANCH   3   5
ATOM      5  C   LIG    1       -3.112   9.361   3.058  0.00  0.00    -0.070 C 
ATOM      6  C   LIG    1       -2.128  10.097   2.146  0.00  0.00    +0.060 C 
ATOM      7  C   LIG    1       -1.907  10.086   3.661  0.00  0.00    +0.010 C 
BRANCH   7   8
ATOM      8  C   LIG    1       -2.173  11.385   4.424  0.00  0.00    +0.010 C 
ATOM      9  C   LIG    1       -0.851  11.951   4.949  0.00  0.00    +0.000 C 
ATOM     10  C   LIG    1       -1.135  13.206   5.779  0.00  0.00    +0.210 C 
ATOM     11  O   LIG    1       -2.031  12.880   6.844  0.00  0.00    -0.380 OA
ATOM     12  C   LIG    1       -3.301  12.392   6.410  0.00  0.00    +0.200 C 
ATOM     13  C   LIG    1       -3.104  11.103   5.607  0.00  0.00    -0.010 C 
ENDBRANCH   7   8
ENDBRANCH   3   5
BRANCH   2  14
ATOM     14  C   LIG    1       -4.085   5.699   2.506  0.00  0.00    +0.280 C 
BRANCH  14  15
ATOM     15  C   LIG    1       -3.440   5.216   1.205  0.00  0.00    +0.250 C 
BRANCH  15  16
ATOM     16  N   LIG    1       -3.409   3.752   1.190  0.00  0.00    -0.730 N 
ATOM     17  H   LIG    1       -3.769   3.251   1.939  0.00  0.00    +0.400 HD
ATOM     18  C   LIG    1       -2.882   3.100   0.134  0.00  0.00    +0.540 C 
ATOM     19  O   LIG    1       -2.433   3.726  -0.802  0.00  0.00    -0.530 OA
BRANCH  18  20
ATOM     20  C   LIG    1       -2.851   1.593   0.118  0.00  0.00    -0.120 C 
ATOM     21  C   LIG    1       -2.206   1.108  -1.183  0.00  0.00    +0.050 C 
ATOM     22  C   LIG    1       -0.754   1.593  -1.232  0.00  0.00    -0.010 C 
ATOM     23  C   LIG    1       -0.013   1.086   0.008  0.00  0.00    +0.200 C 
ATOM     24  O   LIG    1       -0.682   1.547   1.183  0.00  0.00    -0.380 OA
ATOM     25  C   LIG    1       -4.278   1.050   0.215  0.00  0.00    +0.060 C 
ATOM     26  C   LIG    1       -2.029   1.086   1.306  0.00  0.00    +0.220 C 
ENDBRANCH  18  20
ENDBRANCH  15  16
ENDBRANCH  14  15
ENDBRANCH   2  14
TORSDOF 6
