REMARK  Name = ZINCrH00000tj16K.0
REMARK                            x       y       z     vdW  Elec       q    Type
REMARK                         _______ _______ _______ _____ _____    ______ ____
ROOT
ATOM      1  C   LIG    1       -3.580   4.639   3.792  0.00  0.00    +0.590 C 
ATOM      2  N   LIG    1       -4.535   3.687   3.801  0.00  0.00    -0.630 N 
ATOM      3  O   LIG    1       -2.431   4.350   4.065  0.00  0.00    -0.470 OA
ENDROOT
BRANCH   1   7
ATOM      4  C   LIG    1       -4.585   8.647   2.806  0.00  0.00    +0.150 A 
ATOM      5  C   LIG    1       -3.779   8.385   3.908  0.00  0.00    -0.050 A 
ATOM      6  C   LIG    1       -3.451   7.086   4.231  0.00  0.00    +0.120 A 
ATOM      7  C   LIG    1       -3.929   6.031   3.449  0.00  0.00    -0.130 A 
ATOM      8  C   LIG    1       -4.735   6.298   2.339  0.00  0.00    +0.060 A 
ATOM      9 CL   LIG    1       -3.185   9.696   4.879  0.00  0.00    -0.030 Cl
ATOM     10  C   LIG    1       -5.063   7.600   2.026  0.00  0.00    -0.070 A 
ATOM     11 CL   LIG    1       -6.069   7.933   0.650  0.00  0.00    -0.010 Cl
BRANCH   4  13
ATOM     12  C   LIG    1       -4.024  10.617   1.601  0.00  0.00    +0.250 C 
ATOM     13  O   LIG    1       -4.906   9.928   2.490  0.00  0.00    -0.320 OA
ENDBRANCH   4  13
ENDBRANCH   1   7
BRANCH   2  14
ATOM     14  C   LIG    1       -5.497   3.604   2.700  0.00  0.00    +0.290 C 
ATOM     15  C   LIG    1       -6.551   4.717   2.836  0.00  0.00    +0.060 C 
ATOM     16  C   LIG    1       -7.332   4.823   1.511  0.00  0.00    -0.300 C 
ATOM     17  S   LIG    1       -6.164   4.254   0.223  0.00  0.00    +2.380 S 
ATOM     18  O   LIG    1       -5.796   5.353  -0.598  0.00  0.00    -0.910 OA
ATOM     19  O   LIG    1       -6.662   3.062  -0.370  0.00  0.00    -0.920 OA
ATOM     20  C   LIG    1       -4.777   3.839   1.347  0.00  0.00    -0.340 C 
ENDBRANCH   2  14
BRANCH   2  21
ATOM     21  C   LIG    1       -4.610   2.736   4.913  0.00  0.00    +0.420 C 
BRANCH  21  22
ATOM     22  C   LIG    1       -3.765   1.529   4.600  0.00  0.00    -0.060 A 
ATOM     23  C   LIG    1       -2.463   1.379   4.905  0.00  0.00    -0.010 A 
ATOM     24  C   LIG    1       -2.075   0.105   4.431  0.00  0.00    -0.070 A 
ATOM     25  C   LIG    1       -3.163  -0.447   3.863  0.00  0.00    -0.000 A 
ATOM     26  C   LIG    1       -3.225  -1.808   3.218  0.00  0.00    +0.170 C 
ATOM     27  O   LIG    1       -4.181   0.422   3.963  0.00  0.00    -0.170 OA
ENDBRANCH  21  22
ENDBRANCH   2  21
TORSDOF 5
