REMARK  Name = ZINCrH000004rvO8.1
REMARK                            x       y       z     vdW  Elec       q    Type
REMARK                         _______ _______ _______ _____ _____    ______ ____
ROOT
ATOM      1  C   LIG    1        5.118   2.861  -2.129  0.00  0.00    +0.120 A 
ATOM      2  C   LIG    1        4.278   2.434  -1.109  0.00  0.00    +0.070 A 
ATOM      3  C   LIG    1        3.316   1.475  -1.363  0.00  0.00    -0.100 A 
ATOM      4  C   LIG    1        3.182   0.949  -2.635  0.00  0.00    +0.020 A 
ATOM      5  C   LIG    1        4.013   1.376  -3.654  0.00  0.00    +0.020 A 
ATOM      6  C   LIG    1        4.980   2.329  -3.406  0.00  0.00    -0.080 A 
ATOM      7  C   LIG    1        5.885   2.794  -4.518  0.00  0.00    +0.090 C 
ENDROOT
BRANCH   1   8
ATOM      8  N   LIG    1        6.095   3.825  -1.874  0.00  0.00    -1.050 N 
ATOM      9  H   LIG    1        6.037   4.698  -2.293  0.00  0.00    +0.430 HD
BRANCH   8  10
ATOM     10  S   LIG    1        7.354   3.479  -0.856  0.00  0.00    +2.690 S 
ATOM     11  O   LIG    1        6.783   2.884   0.301  0.00  0.00    -0.930 OA
ATOM     12  O   LIG    1        8.166   4.645  -0.810  0.00  0.00    -0.950 OA
BRANCH  10  17
ATOM     13  C   LIG    1       10.677  -0.802  -3.513  0.00  0.00    +0.110 C 
ATOM     14  C   LIG    1        9.846   0.266  -2.849  0.00  0.00    +0.000 A 
ATOM     15  C   LIG    1       10.381   1.522  -2.631  0.00  0.00    -0.010 A 
ATOM     16  C   LIG    1        9.618   2.505  -2.028  0.00  0.00    +0.160 A 
ATOM     17  C   LIG    1        8.324   2.229  -1.632  0.00  0.00    -0.730 A 
ATOM     18  C   LIG    1        7.787   0.971  -1.849  0.00  0.00    +0.210 A 
ATOM     19  F   LIG    1        6.519   0.702  -1.467  0.00  0.00    -0.110 F 
ATOM     20  C   LIG    1        8.550  -0.011  -2.458  0.00  0.00    -0.030 A 
ENDBRANCH  10  17
ENDBRANCH   8  10
ENDBRANCH   1   8
BRANCH   3  21
ATOM     21  C   LIG    1        2.408   1.008  -0.255  0.00  0.00    +0.330 C 
BRANCH  21  22
ATOM     22  C   LIG    1        1.079   1.710  -0.365  0.00  0.00    +0.100 A 
ATOM     23  C   LIG    1       -0.082   0.965  -0.438  0.00  0.00    -0.020 A 
ATOM     24  C   LIG    1       -1.300   1.620  -0.544  0.00  0.00    +0.070 A 
ATOM     25  C   LIG    1       -1.304   3.006  -0.563  0.00  0.00    -0.030 A 
ATOM     26  C   LIG    1       -0.101   3.684  -0.485  0.00  0.00    +0.260 A 
ATOM     27  N   LIG    1        1.038   3.028  -0.390  0.00  0.00    -0.470 NA
ENDBRANCH  21  22
BRANCH  21  28
ATOM     28  O   LIG    1        2.212  -0.404  -0.364  0.00  0.00    -0.540 OA
ATOM     29  H   LIG    1        1.811  -0.682  -1.198  0.00  0.00    +0.380 HD
ENDBRANCH  21  28
ENDBRANCH   3  21
TORSDOF 6
