REMARK  Name = ZINCqH0000002qPp.0
REMARK                            x       y       z     vdW  Elec       q    Type
REMARK                         _______ _______ _______ _____ _____    ______ ____
ROOT
ATOM      1  N   LIG    1        2.868   3.644  -0.007  0.00  0.00    -0.570 N 
ATOM      2  C   LIG    1        3.458   2.435  -0.018  0.00  0.00    +0.570 C 
ATOM      3  C   LIG    1        2.402   1.397  -0.013  0.00  0.00    -0.110 A 
ATOM      4  C   LIG    1        2.413   0.011  -0.021  0.00  0.00    +0.100 A 
ATOM      5  C   LIG    1        1.218  -0.688  -0.013  0.00  0.00    +0.130 A 
ATOM      6  C   LIG    1        0.002  -0.004   0.002  0.00  0.00    -0.100 A 
ATOM      7  C   LIG    1       -0.017   1.394   0.010  0.00  0.00    +0.180 A 
ATOM      8  C   LIG    1        1.177   2.095   0.002  0.00  0.00    -0.150 A 
ATOM      9  O   LIG    1        4.654   2.230  -0.031  0.00  0.00    -0.450 OA
ATOM     10  C   LIG    1        1.528   3.530   0.005  0.00  0.00    +0.580 C 
ATOM     11  O   LIG    1        0.739   4.453   0.017  0.00  0.00    -0.450 OA
ENDROOT
BRANCH   6  12
ATOM     12  C   LIG    1       -1.270  -0.759   0.010  0.00  0.00    +0.510 C 
ATOM     13  O   LIG    1       -2.329  -0.165   0.023  0.00  0.00    -0.490 OA
BRANCH  12  14
ATOM     14  O   LIG    1       -1.253  -2.106   0.003  0.00  0.00    -0.340 OA
BRANCH  14  15
ATOM     15  C   LIG    1       -2.538  -2.781   0.011  0.00  0.00    +0.270 C 
BRANCH  15  16
ATOM     16  C   LIG    1       -2.323  -4.273   0.001  0.00  0.00    -0.110 A 
ATOM     17  C   LIG    1       -2.241  -4.951  -1.200  0.00  0.00    +0.040 A 
ATOM     18  C   LIG    1       -2.037  -6.319  -1.210  0.00  0.00    +0.010 A 
ATOM     19  C   LIG    1       -1.927  -7.009  -0.017  0.00  0.00    -0.070 A 
ATOM     20  C   LIG    1       -2.015  -6.331   1.185  0.00  0.00    +0.010 A 
ATOM     21  C   LIG    1       -1.712  -8.501  -0.027  0.00  0.00    +0.090 C 
ATOM     22  C   LIG    1       -2.212  -4.963   1.194  0.00  0.00    +0.040 A 
ENDBRANCH  15  16
ENDBRANCH  14  15
ENDBRANCH  12  14
ENDBRANCH   6  12
BRANCH   1  23
ATOM     23  C   LIG    1        3.591   4.919  -0.008  0.00  0.00    +0.310 C 
BRANCH  23  24
ATOM     24  C   LIG    1        3.829   5.369  -1.451  0.00  0.00    +0.000 C 
BRANCH  24  26
ATOM     25  C   LIG    1        4.822   7.151  -2.894  0.00  0.00    +0.010 C 
ATOM     26  C   LIG    1        4.584   6.700  -1.452  0.00  0.00    +0.020 C 
ENDBRANCH  24  26
ENDBRANCH  23  24
ENDBRANCH   1  23
TORSDOF 7
