REMARK  Name = ZINCpk00000FlMbO.0
REMARK                            x       y       z     vdW  Elec       q    Type
REMARK                         _______ _______ _______ _____ _____    ______ ____
ROOT
ATOM      1  C   LIG    1        5.979   3.352  -0.039  0.00  0.00    +0.520 C 
ATOM      2  N   LIG    1        4.800   4.005  -0.024  0.00  0.00    -0.520 N 
ATOM      3  H   LIG    1        4.783   4.975  -0.018  0.00  0.00    +0.440 HD
ATOM      4  O   LIG    1        6.000   2.139  -0.046  0.00  0.00    -0.510 OA
ENDROOT
BRANCH   2   5
ATOM      5  N   LIG    1        3.599   3.284  -0.016  0.00  0.00    -0.510 N 
ATOM      6  H   LIG    1        3.616   2.314  -0.021  0.00  0.00    +0.430 HD
ATOM      7  C   LIG    1        2.420   3.937  -0.000  0.00  0.00    +0.570 C 
ATOM      8  O   LIG    1        2.399   5.152   0.006  0.00  0.00    -0.520 OA
BRANCH   7   9
ATOM      9  C   LIG    1        1.153   3.176   0.008  0.00  0.00    -0.130 A 
ATOM     10  C   LIG    1        1.174   1.780   0.000  0.00  0.00    +0.110 A 
ATOM     11  C   LIG    1       -0.013   1.076   0.008  0.00  0.00    +0.040 A 
ATOM     12  C   LIG    1       -1.221   1.750   0.017  0.00  0.00    +0.130 A 
ATOM     13  C   LIG    1       -1.248   3.133   0.031  0.00  0.00    -0.050 A 
ATOM     14  C   LIG    1       -0.070   3.849   0.023  0.00  0.00    +0.180 A 
BRANCH  13  15
ATOM     15  N   LIG    1       -2.546   3.846   0.047  0.00  0.00    +0.020 N 
ATOM     16  O   LIG    1       -3.587   3.215   0.054  0.00  0.00    -0.150 OA
ATOM     17  O   LIG    1       -2.571   5.064   0.054  0.00  0.00    -0.150 OA
ENDBRANCH  13  15
ENDBRANCH   7   9
ENDBRANCH   2   5
BRANCH   1  18
ATOM     18  C   LIG    1        7.270   4.128  -0.048  0.00  0.00    +0.290 C 
BRANCH  18  19
ATOM     19  O   LIG    1        8.390   3.204  -0.064  0.00  0.00    -0.320 OA
BRANCH  19  20
ATOM     20  C   LIG    1        9.621   3.739  -0.073  0.00  0.00    +0.500 C 
ATOM     21  O   LIG    1        9.759   4.939  -0.068  0.00  0.00    -0.470 OA
BRANCH  20  23
ATOM     22  C   LIG    1       10.692   1.530   0.685  0.00  0.00    +0.130 C 
ATOM     23  C   LIG    1       10.832   2.841  -0.090  0.00  0.00    -0.110 C 
ATOM     24  C   LIG    1       11.680   2.823  -1.363  0.00  0.00    +0.160 C 
ATOM     25  C   LIG    1       12.207   3.511  -0.102  0.00  0.00    +0.020 C 
ATOM     26 CL   LIG    1       13.540   2.695   0.798  0.00  0.00    -0.070 Cl
ATOM     27 CL   LIG    1       12.256   5.314  -0.095  0.00  0.00    -0.050 Cl
ENDBRANCH  20  23
ENDBRANCH  19  20
ENDBRANCH  18  19
ENDBRANCH   1  18
TORSDOF 7
