REMARK  Name = ZINCrH000004pBAn.0
REMARK                            x       y       z     vdW  Elec       q    Type
REMARK                         _______ _______ _______ _____ _____    ______ ____
ROOT
ATOM      1  N   LIG    1        2.369  -2.654   0.769  0.00  0.00    -0.620 N 
ATOM      2  C   LIG    1        2.276  -3.599   1.888  0.00  0.00    +0.300 C 
ATOM      3  C   LIG    1        3.612  -3.467   2.651  0.00  0.00    +0.000 C 
ATOM      4  C   LIG    1        4.561  -2.960   1.541  0.00  0.00    +0.070 C 
ATOM      5  C   LIG    1        3.643  -2.287   0.544  0.00  0.00    +0.520 C 
ATOM      6  O   LIG    1        4.003  -1.526  -0.328  0.00  0.00    -0.510 OA
ENDROOT
BRANCH   3   7
ATOM      7  C   LIG    1        4.066  -4.803   3.181  0.00  0.00    +0.530 C 
ATOM      8  N   LIG    1        5.215  -4.897   3.878  0.00  0.00    -0.660 N 
ATOM      9  H   LIG    1        5.716  -4.096   4.097  0.00  0.00    +0.420 HD
ATOM     10  O   LIG    1        3.396  -5.794   2.979  0.00  0.00    -0.510 OA
BRANCH   8  11
ATOM     11  C   LIG    1        5.686  -6.150   4.286  0.00  0.00    +0.080 A 
ATOM     12  C   LIG    1        4.795  -7.140   4.655  0.00  0.00    +0.090 A 
ATOM     13  C   LIG    1        5.318  -8.382   5.057  0.00  0.00    -0.090 A 
ATOM     14  C   LIG    1        4.476  -9.437   5.446  0.00  0.00    +0.030 A 
ATOM     15  C   LIG    1        5.018 -10.626   5.828  0.00  0.00    +0.020 A 
ATOM     16  C   LIG    1        6.399 -10.810   5.840  0.00  0.00    +0.030 A 
ATOM     17  C   LIG    1        7.244  -9.810   5.470  0.00  0.00    +0.050 A 
ATOM     18  C   LIG    1        6.723  -8.568   5.068  0.00  0.00    +0.110 A 
ATOM     19  N   LIG    1        7.533  -7.570   4.699  0.00  0.00    -0.450 NA
ATOM     20  C   LIG    1        7.061  -6.409   4.318  0.00  0.00    +0.280 A 
ENDBRANCH   8  11
ENDBRANCH   3   7
BRANCH   1  22
ATOM     21  C   LIG    1        1.345  -2.668  -1.452  0.00  0.00    +0.030 C 
ATOM     22  C   LIG    1        1.223  -2.177  -0.008  0.00  0.00    +0.300 C 
BRANCH  22  23
ATOM     23  C   LIG    1        1.195  -0.671   0.010  0.00  0.00    -0.090 A 
ATOM     24  C   LIG    1        0.861   0.029  -1.135  0.00  0.00    +0.020 A 
ATOM     25  C   LIG    1        0.835   1.411  -1.118  0.00  0.00    +0.000 A 
ATOM     26  C   LIG    1        1.143   2.093   0.044  0.00  0.00    +0.000 A 
ATOM     27  C   LIG    1        1.478   1.394   1.189  0.00  0.00    +0.000 A 
ATOM     28  C   LIG    1        1.504   0.012   1.172  0.00  0.00    +0.010 A 
ENDBRANCH  22  23
ENDBRANCH   1  22
TORSDOF 4
