REMARK  Name = ZINCtV00000L6kqn.0
REMARK                            x       y       z     vdW  Elec       q    Type
REMARK                         _______ _______ _______ _____ _____    ______ ____
ROOT
ATOM      1  N   LIG    1        6.666  -1.050  -1.183  0.00  0.00    -0.480 N 
ATOM      2  C   LIG    1        7.745  -1.811  -0.779  0.00  0.00    +0.060 A 
ATOM      3  C   LIG    1        8.738  -2.513  -1.449  0.00  0.00    +0.010 A 
ATOM      4  C   LIG    1        9.699  -3.191  -0.729  0.00  0.00    +0.040 A 
ATOM      5  C   LIG    1        9.680  -3.176   0.658  0.00  0.00    +0.000 A 
ATOM      6  C   LIG    1        8.710  -2.492   1.334  0.00  0.00    +0.070 A 
ATOM      7  C   LIG    1        7.726  -1.797   0.626  0.00  0.00    +0.040 A 
ATOM      8  N   LIG    1        6.663  -1.039   0.999  0.00  0.00    -0.460 NA
ATOM      9  C   LIG    1        6.040  -0.608  -0.059  0.00  0.00    +0.270 A 
ENDROOT
BRANCH   1  10
ATOM     10  C   LIG    1        6.269  -0.771  -2.565  0.00  0.00    +0.310 C 
BRANCH  10  11
ATOM     11  C   LIG    1        6.963   0.504  -3.047  0.00  0.00    +0.060 C 
BRANCH  11  15
ATOM     12  C   LIG    1        5.804   1.318  -7.078  0.00  0.00    +0.000 A 
ATOM     13  C   LIG    1        5.069   1.838  -6.029  0.00  0.00    +0.000 A 
ATOM     14  C   LIG    1        5.444   1.574  -4.725  0.00  0.00    +0.010 A 
ATOM     15  C   LIG    1        6.554   0.791  -4.469  0.00  0.00    -0.090 A 
ATOM     16  C   LIG    1        7.292   0.276  -5.518  0.00  0.00    +0.010 A 
ATOM     17  C   LIG    1        6.915   0.535  -6.822  0.00  0.00    +0.000 A 
ENDBRANCH  11  15
ENDBRANCH  10  11
ENDBRANCH   1  10
BRANCH   9  18
ATOM     18  C   LIG    1        4.809   0.262  -0.042  0.00  0.00    +0.320 C 
BRANCH  18  19
ATOM     19  O   LIG    1        3.643  -0.564  -0.036  0.00  0.00    -0.300 OA
BRANCH  19  20
ATOM     20  C   LIG    1        2.441   0.067  -0.020  0.00  0.00    +0.150 A 
ATOM     21  C   LIG    1        2.380   1.431  -0.012  0.00  0.00    -0.090 A 
ATOM     22  C   LIG    1        1.155   2.093   0.002  0.00  0.00    +0.060 A 
ATOM     23  C   LIG    1       -0.017   1.401   0.010  0.00  0.00    -0.010 A 
ATOM     24  C   LIG    1        0.002  -0.004   0.002  0.00  0.00    -0.020 A 
ATOM     25  C   LIG    1       -1.189  -0.750   0.009  0.00  0.00    +0.010 A 
ATOM     26  C   LIG    1       -1.132  -2.110   0.001  0.00  0.00    +0.030 A 
ATOM     27  C   LIG    1        0.092  -2.776  -0.014  0.00  0.00    -0.010 A 
ATOM     28  C   LIG    1        1.266  -2.086  -0.021  0.00  0.00    +0.050 A 
ATOM     29  C   LIG    1        1.246  -0.682  -0.013  0.00  0.00    -0.070 A 
ENDBRANCH  19  20
ENDBRANCH  18  19
ENDBRANCH   9  18
TORSDOF 6
