REMARK  Name = ZINCqH0000005sxq.0
REMARK                            x       y       z     vdW  Elec       q    Type
REMARK                         _______ _______ _______ _____ _____    ______ ____
ROOT
ATOM      1  N   LIG    1        1.319   2.768   1.330  0.00  0.00    -0.670 N 
ATOM      2  H   LIG    1        2.027   3.431   1.313  0.00  0.00    +0.410 HD
ATOM      3  C   LIG    1        0.031   3.160   1.390  0.00  0.00    +0.560 C 
ATOM      4  O   LIG    1       -0.859   2.333   1.341  0.00  0.00    -0.510 OA
ENDROOT
BRANCH   1   9
ATOM      5  C   LIG    1        3.103  -0.413   1.862  0.00  0.00    -0.130 A 
ATOM      6  C   LIG    1        2.247  -1.301   1.210  0.00  0.00    +0.030 A 
ATOM      7  C   LIG    1        1.097  -0.833   0.607  0.00  0.00    +0.020 A 
ATOM      8  C   LIG    1        0.788   0.513   0.647  0.00  0.00    +0.060 A 
ATOM      9  C   LIG    1        1.635   1.406   1.294  0.00  0.00    +0.130 A 
ATOM     10  C   LIG    1        2.793   0.947   1.902  0.00  0.00    -0.050 A 
ATOM     11  C   LIG    1        3.712   1.912   2.604  0.00  0.00    +0.110 C 
BRANCH   5  15
ATOM     12  C   LIG    1        5.775  -2.731   3.255  0.00  0.00    +0.290 C 
ATOM     13  N   LIG    1        4.553  -2.237   2.614  0.00  0.00    -0.730 N 
ATOM     14  H   LIG    1        3.901  -2.864   2.266  0.00  0.00    +0.400 HD
ATOM     15  C   LIG    1        4.337  -0.911   2.509  0.00  0.00    +0.560 C 
ATOM     16  O   LIG    1        5.154  -0.125   2.945  0.00  0.00    -0.530 OA
ENDBRANCH   5  15
ENDBRANCH   1   9
BRANCH   3  17
ATOM     17  C   LIG    1       -0.300   4.593   1.515  0.00  0.00    -0.160 A 
ATOM     18  C   LIG    1        0.720   5.547   1.541  0.00  0.00    +0.080 A 
ATOM     19  C   LIG    1        0.407   6.884   1.658  0.00  0.00    -0.020 A 
ATOM     20  C   LIG    1       -0.921   7.283   1.749  0.00  0.00    +0.180 A 
ATOM     21  C   LIG    1       -1.939   6.336   1.723  0.00  0.00    -0.020 A 
ATOM     22  C   LIG    1       -1.635   4.999   1.601  0.00  0.00    +0.020 A 
ATOM     23  C   LIG    1       -2.739   3.974   1.566  0.00  0.00    +0.110 C 
BRANCH  20  24
ATOM     24  N   LIG    1       -1.234   8.641   1.867  0.00  0.00    -0.400 N 
ATOM     25  C   LIG    1       -2.494   9.163   1.959  0.00  0.00    +0.150 A 
ATOM     26  C   LIG    1       -2.387  10.503   2.061  0.00  0.00    -0.040 A 
ATOM     27  C   LIG    1       -1.015  10.823   2.023  0.00  0.00    -0.040 A 
ATOM     28  C   LIG    1       -0.332   9.666   1.904  0.00  0.00    +0.150 A 
ENDBRANCH  20  24
ENDBRANCH   3  17
TORSDOF 4
