REMARK  Name = ZINCkj000005m4tY.1
REMARK                            x       y       z     vdW  Elec       q    Type
REMARK                         _______ _______ _______ _____ _____    ______ ____
ROOT
ATOM      1  O   LIG    1       -5.249   2.526   0.631  0.00  0.00    -0.500 OA
ATOM      2  C   LIG    1       -4.112   2.670   1.028  0.00  0.00    +0.500 C 
ATOM      3  N   LIG    1       -3.858   2.690   2.352  0.00  0.00    -0.630 N 
ATOM      4  C   LIG    1       -2.507   2.979   2.858  0.00  0.00    +0.300 C 
ATOM      5  C   LIG    1       -2.619   4.078   3.926  0.00  0.00    +0.270 C 
ATOM      6  N   LIG    1       -3.575   3.657   4.958  0.00  0.00    -0.500 N 
ATOM      7  C   LIG    1       -4.918   3.536   4.377  0.00  0.00    +0.220 C 
ATOM      8  H   LIG    1       -3.291   2.765   5.334  0.00  0.00    +0.430 HD
ATOM      9  H   LIG    1       -3.591   4.342   5.699  0.00  0.00    +0.440 HD
ATOM     10  C   LIG    1       -4.921   2.417   3.330  0.00  0.00    +0.340 C 
ENDROOT
BRANCH   7  11
ATOM     11  C   LIG    1       -5.909   3.211   5.464  0.00  0.00    -0.150 A 
ATOM     12  C   LIG    1       -5.571   2.317   6.462  0.00  0.00    +0.000 A 
ATOM     13  C   LIG    1       -6.479   2.021   7.462  0.00  0.00    +0.040 A 
ATOM     14  C   LIG    1       -7.728   2.614   7.458  0.00  0.00    +0.050 A 
ATOM     15  C   LIG    1       -8.068   3.504   6.457  0.00  0.00    +0.040 A 
ATOM     16  C   LIG    1       -7.159   3.802   5.460  0.00  0.00    +0.050 A 
ENDBRANCH   7  11
BRANCH   2  17
ATOM     17  C   LIG    1       -2.984   2.826   0.042  0.00  0.00    +0.230 C 
BRANCH  17  18
ATOM     18  C   LIG    1       -2.254   1.490  -0.115  0.00  0.00    -0.050 C 
ATOM     19  C   LIG    1       -1.165   1.506  -1.200  0.00  0.00    +0.050 C 
ATOM     20  C   LIG    1       -0.308   0.663  -0.242  0.00  0.00    +0.030 C 
ATOM     21  C   LIG    1       -1.121   1.281   0.908  0.00  0.00    +0.010 C 
ENDBRANCH  17  18
BRANCH  17  22
ATOM     22  O   LIG    1       -3.510   3.232  -1.224  0.00  0.00    -0.530 OA
ATOM     23  H   LIG    1       -4.139   2.606  -1.607  0.00  0.00    +0.390 HD
ENDBRANCH  17  22
ENDBRANCH   2  17
TORSDOF 4
