REMARK  Name = ZINCpk00000KfKOZ.0
REMARK                            x       y       z     vdW  Elec       q    Type
REMARK                         _______ _______ _______ _____ _____    ______ ____
ROOT
ATOM      1  C   LIG    1       -4.196   2.084  -0.454  0.00  0.00    +0.520 C 
ATOM      2  N   LIG    1       -3.498   3.161  -0.867  0.00  0.00    -0.720 N 
ATOM      3  H   LIG    1       -3.604   3.489  -1.774  0.00  0.00    +0.400 HD
ATOM      4  O   LIG    1       -4.064   1.674   0.679  0.00  0.00    -0.510 OA
ENDROOT
BRANCH   2   5
ATOM      5  C   LIG    1       -2.579   3.835   0.053  0.00  0.00    +0.290 C 
ATOM      6  C   LIG    1       -2.404   5.293  -0.379  0.00  0.00    -0.000 C 
ATOM      7  C   LIG    1       -1.229   5.890   0.406  0.00  0.00    +0.260 C 
ATOM      8  O   LIG    1       -0.036   5.204   0.022  0.00  0.00    -0.320 OA
ATOM      9  C   LIG    1       -0.057   3.846   0.021  0.00  0.00    +0.140 A 
ATOM     10  C   LIG    1        1.155   3.163   0.006  0.00  0.00    -0.020 A 
ATOM     11  C   LIG    1        1.175   1.783   0.000  0.00  0.00    +0.050 A 
ATOM     12  C   LIG    1       -0.013   1.076   0.008  0.00  0.00    -0.040 A 
ATOM     13  C   LIG    1       -1.218   1.750   0.017  0.00  0.00    +0.060 A 
ATOM     14  C   LIG    1       -1.244   3.135   0.031  0.00  0.00    -0.180 A 
ENDBRANCH   2   5
BRANCH   1  15
ATOM     15  C   LIG    1       -5.141   1.391  -1.401  0.00  0.00    +0.190 C 
ATOM     16  C   LIG    1       -6.218   2.376  -1.860  0.00  0.00    +0.030 C 
BRANCH  15  23
ATOM     17  C   LIG    1       -8.511  -3.929   0.814  0.00  0.00    +0.200 C 
ATOM     18  C   LIG    1       -8.158  -2.490   1.090  0.00  0.00    +0.180 A 
ATOM     19  N   LIG    1       -8.486  -1.798   2.151  0.00  0.00    -0.300 NA
ATOM     20  N   LIG    1       -8.017  -0.601   2.053  0.00  0.00    -0.280 NA
ATOM     21  C   LIG    1       -7.373  -0.479   0.935  0.00  0.00    +0.180 A 
ATOM     22  C   LIG    1       -6.650   0.720   0.375  0.00  0.00    +0.330 C 
ATOM     23  N   LIG    1       -5.775   0.256  -0.717  0.00  0.00    -0.520 NA
ATOM     24  C   LIG    1       -6.512  -0.588  -1.668  0.00  0.00    +0.210 C 
ATOM     25  C   LIG    1       -6.844  -1.937  -1.015  0.00  0.00    +0.310 C 
ATOM     26  N   LIG    1       -7.447  -1.675   0.292  0.00  0.00    -0.470 N 
ENDBRANCH  15  23
ENDBRANCH   1  15
TORSDOF 3
