REMARK  Name = ZINCrD00000l2shl.0
REMARK                            x       y       z     vdW  Elec       q    Type
REMARK                         _______ _______ _______ _____ _____    ______ ____
ROOT
ATOM      1  N   LIG    1       -0.920   1.702  -6.037  0.00  0.00    -0.670 N 
ATOM      2  H   LIG    1       -1.690   2.291  -6.057  0.00  0.00    +0.420 HD
ATOM      3  C   LIG    1       -0.486   1.198  -4.865  0.00  0.00    +0.520 C 
ATOM      4  O   LIG    1        0.415   0.387  -4.850  0.00  0.00    -0.490 OA
ENDROOT
BRANCH   1   8
ATOM      5  C   LIG    1        1.048   0.729  -9.578  0.00  0.00    -0.150 A 
ATOM      6  C   LIG    1       -0.334   0.938  -9.579  0.00  0.00    +0.100 A 
ATOM      7  C   LIG    1       -0.981   1.259  -8.407  0.00  0.00    -0.010 A 
ATOM      8  C   LIG    1       -0.261   1.376  -7.222  0.00  0.00    +0.170 A 
ATOM      9  C   LIG    1        1.115   1.173  -7.218  0.00  0.00    +0.010 A 
ATOM     10  C   LIG    1        1.768   0.847  -8.386  0.00  0.00    +0.070 A 
BRANCH   5  14
ATOM     11  N   LIG    1        3.078   0.184 -10.829  0.00  0.00    -0.850 N 
ATOM     12  H   LIG    1        3.536  -0.042 -11.654  0.00  0.00    +0.410 HD
ATOM     13  H   LIG    1        3.578   0.265 -10.003  0.00  0.00    +0.400 HD
ATOM     14  C   LIG    1        1.745   0.385 -10.832  0.00  0.00    +0.560 C 
ATOM     15  O   LIG    1        1.117   0.284 -11.868  0.00  0.00    -0.540 OA
ENDBRANCH   5  14
ENDBRANCH   1   8
BRANCH   3  16
ATOM     16  C   LIG    1       -1.122   1.642  -3.573  0.00  0.00    +0.270 C 
BRANCH  16  17
ATOM     17  O   LIG    1       -0.484   0.961  -2.460  0.00  0.00    -0.330 OA
BRANCH  17  18
ATOM     18  C   LIG    1       -0.937   1.248  -1.230  0.00  0.00    +0.470 C 
ATOM     19  O   LIG    1       -1.837   2.042  -1.087  0.00  0.00    -0.470 OA
BRANCH  18  20
ATOM     20  C   LIG    1       -0.324   0.580  -0.026  0.00  0.00    +0.300 C 
BRANCH  20  21
ATOM     21  O   LIG    1       -0.971   1.046   1.159  0.00  0.00    -0.270 OA
BRANCH  21  22
ATOM     22  C   LIG    1       -0.534   0.537   2.342  0.00  0.00    +0.160 A 
ATOM     23  C   LIG    1        0.493  -0.394   2.360  0.00  0.00    -0.020 A 
ATOM     24  C   LIG    1        0.940  -0.906   3.564  0.00  0.00    +0.010 A 
ATOM     25  C   LIG    1        0.356  -0.497   4.751  0.00  0.00    -0.060 A 
ATOM     26  C   LIG    1       -0.673   0.429   4.734  0.00  0.00    +0.110 A 
ATOM     27 CL   LIG    1        0.914  -1.146   6.261  0.00  0.00    -0.030 Cl
ATOM     28 CL   LIG    1        2.231  -2.067   3.588  0.00  0.00    -0.030 Cl
ATOM     29  C   LIG    1       -1.119   0.946   3.533  0.00  0.00    -0.050 A 
ATOM     30 CL   LIG    1       -2.410   2.107   3.513  0.00  0.00    -0.030 Cl
ENDBRANCH  21  22
ENDBRANCH  20  21
ENDBRANCH  18  20
ENDBRANCH  17  18
ENDBRANCH  16  17
ENDBRANCH   3  16
TORSDOF 8
