REMARK  Name = ZINCvU0000000GEk.0
REMARK                            x       y       z     vdW  Elec       q    Type
REMARK                         _______ _______ _______ _____ _____    ______ ____
ROOT
ATOM      1  N   LIG    1        2.765   4.433  -1.378  0.00  0.00    -0.590 N 
ATOM      2  C   LIG    1        2.220   5.541  -1.917  0.00  0.00    +0.610 C 
ATOM      3  O   LIG    1        2.344   5.763  -3.106  0.00  0.00    -0.500 OA
ENDROOT
BRANCH   2   4
ATOM      4  C   LIG    1        1.472   6.484  -1.064  0.00  0.00    -0.080 A 
ATOM      5  C   LIG    1        0.868   7.644  -1.460  0.00  0.00    +0.060 A 
ATOM      6  C   LIG    1        0.298   8.156  -0.262  0.00  0.00    +0.060 A 
ATOM      7  N   LIG    1        0.606   7.305   0.684  0.00  0.00    -0.330 NA
ATOM      8  O   LIG    1        1.252   6.376   0.260  0.00  0.00    +0.120 OA
BRANCH   6   9
ATOM      9  C   LIG    1       -0.483   9.409  -0.113  0.00  0.00    +0.000 A 
ATOM     10  C   LIG    1       -0.974   9.782   1.137  0.00  0.00    +0.040 A 
ATOM     11  C   LIG    1       -1.700  10.948   1.272  0.00  0.00    +0.050 A 
ATOM     12  C   LIG    1       -1.941  11.748   0.170  0.00  0.00    +0.000 A 
ATOM     13  C   LIG    1       -1.456  11.383  -1.076  0.00  0.00    +0.100 A 
ATOM     14  F   LIG    1       -1.694  12.168  -2.149  0.00  0.00    -0.130 F 
ATOM     15  C   LIG    1       -0.724  10.219  -1.220  0.00  0.00    +0.010 A 
ENDBRANCH   6   9
ENDBRANCH   2   4
BRANCH   1  16
ATOM     16  C   LIG    1        3.590   3.547  -2.203  0.00  0.00    +0.350 C 
BRANCH  16  20
ATOM     17  C   LIG    1        1.173   0.383  -3.751  0.00  0.00    -0.070 A 
ATOM     18  C   LIG    1        1.394   1.518  -4.509  0.00  0.00    +0.000 A 
ATOM     19  C   LIG    1        2.176   2.542  -4.008  0.00  0.00    +0.040 A 
ATOM     20  C   LIG    1        2.737   2.431  -2.749  0.00  0.00    -0.120 A 
ATOM     21  C   LIG    1        2.521   1.294  -1.994  0.00  0.00    +0.020 A 
ATOM     22  C   LIG    1        1.735   0.272  -2.493  0.00  0.00    +0.000 A 
BRANCH  17  24
ATOM     23  C   LIG    1        1.203  -1.724  -5.058  0.00  0.00    +0.030 C 
ATOM     24  C   LIG    1        0.320  -0.733  -4.297  0.00  0.00    +0.050 C 
ENDBRANCH  17  24
ENDBRANCH  16  20
ENDBRANCH   1  16
BRANCH   1  25
ATOM     25  C   LIG    1        2.534   4.114   0.033  0.00  0.00    +0.350 C 
BRANCH  25  26
ATOM     26  C   LIG    1        3.694   4.612   0.857  0.00  0.00    -0.160 A 
ATOM     27  C   LIG    1        3.743   5.932   1.275  0.00  0.00    +0.070 A 
ATOM     28  C   LIG    1        4.829   6.345   2.031  0.00  0.00    -0.030 A 
ATOM     29  C   LIG    1        5.823   5.434   2.337  0.00  0.00    +0.270 A 
ATOM     30  N   LIG    1        5.740   4.184   1.927  0.00  0.00    -0.480 NA
ATOM     31  C   LIG    1        4.722   3.756   1.206  0.00  0.00    +0.280 A 
ENDBRANCH  25  26
ENDBRANCH   1  25
TORSDOF 7
