REMARK  Name = ZINCrD000000CX2R.0
REMARK                            x       y       z     vdW  Elec       q    Type
REMARK                         _______ _______ _______ _____ _____    ______ ____
ROOT
ATOM      1  C   LIG    1       -5.009   3.681  -0.196  0.00  0.00    +0.530 C 
ATOM      2  N   LIG    1       -5.314   4.838  -0.816  0.00  0.00    -0.640 N 
ATOM      3  H   LIG    1       -4.680   5.240  -1.431  0.00  0.00    +0.410 HD
ATOM      4  O   LIG    1       -5.801   3.178   0.572  0.00  0.00    -0.460 OA
ENDROOT
BRANCH   1   8
ATOM      5  O   LIG    1       -2.541  -0.185  -0.164  0.00  0.00    -0.430 OA
ATOM      6  C   LIG    1       -2.507   1.014   0.021  0.00  0.00    +0.530 C 
ATOM      7  O   LIG    1       -3.640   1.731   0.235  0.00  0.00    -0.330 OA
ATOM      8  C   LIG    1       -3.684   3.012  -0.457  0.00  0.00    +0.210 C 
ATOM      9  C   LIG    1       -2.552   3.903   0.058  0.00  0.00    +0.110 C 
ATOM     10  C   LIG    1       -1.246   3.155   0.034  0.00  0.00    -0.040 A 
ATOM     11  C   LIG    1       -0.054   3.852   0.025  0.00  0.00    +0.020 A 
ATOM     12  C   LIG    1        1.150   3.169   0.008  0.00  0.00    +0.050 A 
ATOM     13  C   LIG    1        1.171   1.786   0.001  0.00  0.00    +0.010 A 
ATOM     14  C   LIG    1       -0.013   1.076   0.008  0.00  0.00    +0.090 A 
ATOM     15  C   LIG    1       -1.227   1.760   0.017  0.00  0.00    -0.170 A 
ENDBRANCH   1   8
BRANCH   2  16
ATOM     16  C   LIG    1       -6.540   5.457  -0.575  0.00  0.00    +0.300 A 
ATOM     17  C   LIG    1       -7.520   5.003   0.254  0.00  0.00    -0.100 A 
ATOM     18  C   LIG    1       -8.576   5.918   0.208  0.00  0.00    +0.250 A 
ATOM     19  N   LIG    1       -8.252   6.879  -0.618  0.00  0.00    -0.280 NA
ATOM     20  N   LIG    1       -6.974   6.614  -1.125  0.00  0.00    -0.380 N 
BRANCH  20  21
ATOM     21  C   LIG    1       -6.237   7.442  -2.083  0.00  0.00    +0.390 C 
BRANCH  21  22
ATOM     22  C   LIG    1       -6.562   6.998  -3.486  0.00  0.00    -0.110 A 
ATOM     23  C   LIG    1       -7.625   7.568  -4.162  0.00  0.00    +0.060 A 
ATOM     24  C   LIG    1       -7.924   7.161  -5.449  0.00  0.00    +0.040 A 
ATOM     25  C   LIG    1       -7.161   6.184  -6.060  0.00  0.00    +0.040 A 
ATOM     26  C   LIG    1       -6.097   5.613  -5.384  0.00  0.00    -0.040 A 
ATOM     27 CL   LIG    1       -5.139   4.386  -6.151  0.00  0.00    -0.060 Cl
ATOM     28  C   LIG    1       -5.795   6.024  -4.098  0.00  0.00    +0.020 A 
ENDBRANCH  21  22
ENDBRANCH  20  21
ENDBRANCH   2  16
TORSDOF 4
