REMARK  Name = ZINCrH000004tOHp.0
REMARK                            x       y       z     vdW  Elec       q    Type
REMARK                         _______ _______ _______ _____ _____    ______ ____
ROOT
ATOM      1  N   LIG    1        0.035   0.925   0.319  0.00  0.00    -0.720 N 
ATOM      2  H   LIG    1        0.031  -0.045   0.322  0.00  0.00    +0.420 HD
ENDROOT
BRANCH   1   3
ATOM      3  C   LIG    1       -1.166   1.630   0.172  0.00  0.00    +0.260 A 
ATOM      4  C   LIG    1       -1.162   3.017   0.169  0.00  0.00    -0.060 A 
ATOM      5  C   LIG    1       -2.349   3.711   0.023  0.00  0.00    +0.070 A 
ATOM      6  C   LIG    1       -3.542   3.027  -0.120  0.00  0.00    -0.030 A 
ATOM      7  C   LIG    1       -3.555   1.643  -0.118  0.00  0.00    -0.020 A 
ATOM      8 CL   LIG    1       -5.055   0.789  -0.298  0.00  0.00    -0.050 Cl
ATOM      9  C   LIG    1       -2.368   0.939   0.022  0.00  0.00    +0.020 A 
BRANCH   9  10
ATOM     10  N   LIG    1       -2.378  -0.462   0.019  0.00  0.00    -0.490 N 
ATOM     11  C   LIG    1       -2.882  -0.982  -1.260  0.00  0.00    +0.150 C 
ATOM     12  C   LIG    1       -2.819  -2.512  -1.243  0.00  0.00    +0.230 C 
ATOM     13  O   LIG    1       -3.567  -3.002  -0.127  0.00  0.00    -0.380 OA
ATOM     14  C   LIG    1       -3.103  -2.515   1.135  0.00  0.00    +0.230 C 
ATOM     15  C   LIG    1       -3.168  -0.986   1.142  0.00  0.00    +0.150 C 
ENDBRANCH   9  10
ENDBRANCH   1   3
BRANCH   1  16
ATOM     16  C   LIG    1        1.298   1.653   0.464  0.00  0.00    +0.310 C 
BRANCH  16  18
ATOM     17  O   LIG    1        2.207  -0.522   0.576  0.00  0.00    -0.510 OA
ATOM     18  C   LIG    1        2.432   0.669   0.599  0.00  0.00    +0.510 C 
ATOM     19  N   LIG    1        3.696   1.113   0.745  0.00  0.00    -0.670 N 
ATOM     20  H   LIG    1        3.885   2.064   0.695  0.00  0.00    +0.410 HD
BRANCH  19  21
ATOM     21  C   LIG    1        4.736   0.204   0.967  0.00  0.00    +0.140 A 
ATOM     22  C   LIG    1        4.710  -1.046   0.362  0.00  0.00    +0.020 A 
ATOM     23  C   LIG    1        5.739  -1.938   0.584  0.00  0.00    +0.030 A 
ATOM     24  C   LIG    1        6.798  -1.594   1.408  0.00  0.00    -0.110 A 
ATOM     25  C   LIG    1        8.027  -2.383   1.804  0.00  0.00    +0.080 C 
ATOM     26  C   LIG    1        8.585  -1.664   3.050  0.00  0.00    +0.030 C 
ATOM     27  C   LIG    1        8.077  -0.220   2.854  0.00  0.00    +0.080 C 
ATOM     28  C   LIG    1        6.827  -0.350   2.012  0.00  0.00    -0.080 A 
ATOM     29  C   LIG    1        5.800   0.550   1.788  0.00  0.00    -0.010 A 
ENDBRANCH  19  21
ENDBRANCH  16  18
ENDBRANCH   1  16
TORSDOF 5
