REMARK  Name = ZINCpe000015pNIV.0
REMARK                            x       y       z     vdW  Elec       q    Type
REMARK                         _______ _______ _______ _____ _____    ______ ____
ROOT
ATOM      1  N   LIG    1        4.521   2.413   1.240  0.00  0.00    -0.590 N 
ATOM      2  H   LIG    1        3.637   2.285   1.710  0.00  0.00    +0.360 HD
ENDROOT
BRANCH   1   8
ATOM      3  C   LIG    1        5.480   1.160   3.191  0.00  0.00    +0.010 A 
ATOM      4  N   LIG    1        6.694   0.885   3.586  0.00  0.00    -0.260 NA
ATOM      5  N   LIG    1        7.568   1.383   2.788  0.00  0.00    -0.270 N 
ATOM      6  C   LIG    1        6.935   2.045   1.765  0.00  0.00    -0.060 A 
ATOM      7  C   LIG    1        9.020   1.263   2.945  0.00  0.00    +0.370 C 
ATOM      8  C   LIG    1        5.570   1.909   2.006  0.00  0.00    +0.050 A 
BRANCH   6   9
ATOM      9  C   LIG    1        7.566   2.751   0.648  0.00  0.00    +0.600 C 
ATOM     10  O   LIG    1        7.678   3.962   0.679  0.00  0.00    -0.510 OA
ATOM     11  N   LIG    1        8.023   2.059  -0.415  0.00  0.00    -0.850 N 
ATOM     12  H   LIG    1        8.505   2.517  -1.121  0.00  0.00    +0.410 HD
ATOM     13  H   LIG    1        7.869   1.103  -0.473  0.00  0.00    +0.400 HD
ENDBRANCH   6   9
BRANCH   3  15
ATOM     14  C   LIG    1        3.755  -0.615   3.344  0.00  0.00    +0.030 C 
ATOM     15  C   LIG    1        4.207   0.744   3.882  0.00  0.00    +0.110 C 
ENDBRANCH   3  15
ENDBRANCH   1   8
BRANCH   1  16
ATOM     16  C   LIG    1        4.501   1.799  -0.094  0.00  0.00    +0.270 C 
BRANCH  16  17
ATOM     17  C   LIG    1        3.723   0.509  -0.042  0.00  0.00    -0.110 A 
ATOM     18  C   LIG    1        4.389  -0.700  -0.004  0.00  0.00    +0.040 A 
ATOM     19  C   LIG    1        3.679  -1.888   0.045  0.00  0.00    +0.020 A 
ATOM     20  C   LIG    1        2.298  -1.873   0.054  0.00  0.00    +0.030 A 
ATOM     21  C   LIG    1        1.620  -0.664   0.016  0.00  0.00    +0.090 A 
ATOM     22  N   LIG    1        0.269  -0.326   0.013  0.00  0.00    -0.540 N 
ATOM     23  C   LIG    1       -0.851  -1.269   0.055  0.00  0.00    +0.350 C 
ATOM     24  C   LIG    1        0.168   1.016  -0.034  0.00  0.00    +0.680 A 
ATOM     25  O   LIG    1       -0.876   1.640  -0.054  0.00  0.00    -0.550 OA
ATOM     26  N   LIG    1        1.399   1.562  -0.063  0.00  0.00    -0.540 N 
ATOM     27  C   LIG    1        1.699   2.995  -0.116  0.00  0.00    +0.350 C 
ATOM     28  C   LIG    1        2.337   0.533  -0.032  0.00  0.00    +0.100 A 
ENDBRANCH  16  17
ENDBRANCH   1  16
TORSDOF 5
