REMARK  Name = ZINCrH00000No4xS.0
REMARK                            x       y       z     vdW  Elec       q    Type
REMARK                         _______ _______ _______ _____ _____    ______ ____
ROOT
ATOM      1  C   LIG    1       -0.148   1.182   2.380  0.00  0.00    +0.110 A 
ATOM      2  C   LIG    1        0.989   0.401   2.420  0.00  0.00    -0.010 A 
ATOM      3  C   LIG    1        1.535   0.027   3.654  0.00  0.00    -0.080 A 
ATOM      4  C   LIG    1        0.925   0.449   4.841  0.00  0.00    +0.050 A 
ATOM      5  C   LIG    1       -0.210   1.228   4.792  0.00  0.00    -0.040 A 
ATOM      6  C   LIG    1       -0.748   1.602   3.568  0.00  0.00    +0.120 A 
ENDROOT
BRANCH   3   7
ATOM      7  C   LIG    1        2.745  -0.803   3.703  0.00  0.00    +0.150 C 
ATOM      8  C   LIG    1        3.272  -1.163   4.896  0.00  0.00    -0.120 C 
BRANCH   8   9
ATOM      9  C   LIG    1        4.440  -1.964   4.943  0.00  0.00    +0.430 C 
ATOM     10  O   LIG    1        4.969  -2.329   3.910  0.00  0.00    -0.460 OA
BRANCH   9  11
ATOM     11  C   LIG    1        5.015  -2.357   6.248  0.00  0.00    -0.170 A 
ATOM     12  C   LIG    1        4.413  -1.936   7.435  0.00  0.00    +0.060 A 
ATOM     13  C   LIG    1        4.951  -2.310   8.649  0.00  0.00    +0.000 A 
ATOM     14  C   LIG    1        6.092  -3.093   8.691  0.00  0.00    -0.060 A 
ATOM     15  C   LIG    1        6.696  -3.510   7.518  0.00  0.00    +0.000 A 
ATOM     16  C   LIG    1        6.678  -3.493  10.021  0.00  0.00    +0.100 C 
ATOM     17  C   LIG    1        6.165  -3.147   6.298  0.00  0.00    +0.070 A 
ENDBRANCH   9  11
ENDBRANCH   8   9
ENDBRANCH   3   7
BRANCH   1  18
ATOM     18  O   LIG    1       -0.682   1.547   1.184  0.00  0.00    -0.300 OA
BRANCH  18  20
ATOM     19  C   LIG    1       -0.753   1.593  -1.232  0.00  0.00    +0.070 C 
ATOM     20  C   LIG    1       -0.013   1.086   0.008  0.00  0.00    +0.170 C 
ENDBRANCH  18  20
ENDBRANCH   1  18
BRANCH   6  21
ATOM     21  O   LIG    1       -1.864   2.375   3.526  0.00  0.00    -0.270 OA
BRANCH  21  22
ATOM     22  C   LIG    1       -2.426   2.770   4.779  0.00  0.00    +0.230 C 
BRANCH  22  23
ATOM     23  C   LIG    1       -3.650   3.616   4.536  0.00  0.00    +0.510 C 
ATOM     24  N   LIG    1       -4.349   4.105   5.579  0.00  0.00    -0.620 N 
ATOM     25  C   LIG    1       -3.920   3.814   6.950  0.00  0.00    +0.280 C 
ATOM     26  C   LIG    1       -5.538   4.928   5.343  0.00  0.00    +0.290 C 
ATOM     27  O   LIG    1       -4.005   3.857   3.402  0.00  0.00    -0.510 OA
ENDBRANCH  22  23
ENDBRANCH  21  22
ENDBRANCH   6  21
TORSDOF 8
