REMARK  Name = ZINCqH0000034ekq.0
REMARK                            x       y       z     vdW  Elec       q    Type
REMARK                         _______ _______ _______ _____ _____    ______ ____
ROOT
ATOM      1  N   LIG    1       -0.355  -3.670  -1.861  0.00  0.00    -0.670 N 
ATOM      2  H   LIG    1       -1.027  -4.369  -1.881  0.00  0.00    +0.410 HD
ATOM      3  C   LIG    1       -0.705  -2.409  -1.539  0.00  0.00    +0.510 C 
ATOM      4  O   LIG    1        0.143  -1.546  -1.456  0.00  0.00    -0.480 OA
ENDROOT
BRANCH   1  11
ATOM      5  C   LIG    1        1.600  -5.058  -1.570  0.00  0.00    -0.090 A 
ATOM      6  C   LIG    1        2.914  -5.352  -1.874  0.00  0.00    +0.040 A 
ATOM      7  C   LIG    1        3.611  -4.565  -2.772  0.00  0.00    +0.030 A 
ATOM      8  C   LIG    1        2.994  -3.479  -3.369  0.00  0.00    -0.030 A 
ATOM      9  C   LIG    1        1.676  -3.183  -3.073  0.00  0.00    -0.050 A 
ATOM     10 CL   LIG    1        3.872  -2.494  -4.496  0.00  0.00    -0.060 Cl
ATOM     11  C   LIG    1        0.977  -3.970  -2.167  0.00  0.00    +0.150 A 
BRANCH   5  13
ATOM     12  C   LIG    1        0.045  -6.978  -1.353  0.00  0.00    +0.020 C 
ATOM     13  C   LIG    1        0.842  -5.917  -0.591  0.00  0.00    +0.060 C 
ENDBRANCH   5  13
BRANCH   9  14
ATOM     14  C   LIG    1        1.002  -2.005  -3.727  0.00  0.00    +0.070 C 
ATOM     15  C   LIG    1        2.028  -0.894  -3.958  0.00  0.00    +0.020 C 
ENDBRANCH   9  14
ENDBRANCH   1  11
BRANCH   3  16
ATOM     16  C   LIG    1       -2.151  -2.071  -1.280  0.00  0.00    +0.210 C 
BRANCH  16  17
ATOM     17  C   LIG    1       -2.272  -0.607  -0.942  0.00  0.00    +0.290 A 
ATOM     18  N   LIG    1       -2.200  -0.102   0.267  0.00  0.00    -0.320 NA
ATOM     19  N   LIG    1       -2.361   1.284   0.142  0.00  0.00    -0.330 N 
ATOM     20  C   LIG    1       -2.377   2.306   1.039  0.00  0.00    +0.210 A 
ATOM     21  C   LIG    1       -2.558   3.575   0.589  0.00  0.00    -0.060 A 
ATOM     22  C   LIG    1       -2.725   3.796  -0.784  0.00  0.00    +0.240 A 
ATOM     23  N   LIG    1       -2.711   2.787  -1.625  0.00  0.00    -0.460 NA
ATOM     24  C   LIG    1       -2.927   5.198  -1.298  0.00  0.00    +0.170 C 
ATOM     25  C   LIG    1       -2.194   2.036   2.510  0.00  0.00    +0.170 C 
ATOM     26  C   LIG    1       -2.527   1.535  -1.191  0.00  0.00    +0.460 A 
ATOM     27  N   LIG    1       -2.467   0.367  -1.821  0.00  0.00    -0.510 NA
ENDBRANCH  16  17
ENDBRANCH   3  16
TORSDOF 5
