REMARK  Name = ZINCrH00000No4AC.0
REMARK                            x       y       z     vdW  Elec       q    Type
REMARK                         _______ _______ _______ _____ _____    ______ ____
ROOT
ATOM      1  C   LIG    1        4.542   4.616  -0.721  0.00  0.00    +0.540 C 
ATOM      2  O   LIG    1        5.667   4.162  -0.607  0.00  0.00    -0.560 OA
ENDROOT
BRANCH   1   9
ATOM      3  N   LIG    1        5.403   8.038  -1.492  0.00  0.00    -0.370 N 
ATOM      4  N   LIG    1        6.734   8.471  -1.572  0.00  0.00    -0.480 N 
ATOM      5  H   LIG    1        7.026   9.374  -1.773  0.00  0.00    +0.450 HD
ATOM      6  C   LIG    1        7.547   7.405  -1.324  0.00  0.00    +0.350 A 
ATOM      7  C   LIG    1        6.782   6.317  -1.085  0.00  0.00    -0.110 A 
ATOM      8  C   LIG    1        5.428   6.699  -1.183  0.00  0.00    +0.480 A 
ATOM      9  N   LIG    1        4.370   5.909  -1.014  0.00  0.00    -0.670 NA
BRANCH   3  11
ATOM     10  C   LIG    1        4.194  10.001  -0.678  0.00  0.00    +0.040 C 
ATOM     11  C   LIG    1        4.208   8.860  -1.697  0.00  0.00    +0.320 C 
BRANCH  11  12
ATOM     12  C   LIG    1        4.225   9.440  -3.112  0.00  0.00    -0.070 C 
ATOM     13  C   LIG    1        4.428  10.950  -3.254  0.00  0.00    +0.010 C 
ATOM     14  C   LIG    1        3.053  10.335  -3.523  0.00  0.00    +0.040 C 
ENDBRANCH  11  12
ENDBRANCH   3  11
ENDBRANCH   1   9
BRANCH   1  15
ATOM     15  C   LIG    1        3.364   3.736  -0.532  0.00  0.00    -0.080 A 
ATOM     16  C   LIG    1        3.544   2.387  -0.226  0.00  0.00    +0.060 A 
ATOM     17  C   LIG    1        2.450   1.568  -0.050  0.00  0.00    +0.060 A 
ATOM     18  C   LIG    1        1.160   2.089  -0.179  0.00  0.00    -0.140 A 
ATOM     19  C   LIG    1        0.981   3.439  -0.492  0.00  0.00    +0.040 A 
ATOM     20  C   LIG    1        2.076   4.257  -0.662  0.00  0.00    +0.070 A 
BRANCH  18  21
ATOM     21  C   LIG    1       -0.014   1.211   0.009  0.00  0.00    +0.440 C 
ATOM     22  O   LIG    1        0.039   0.044  -0.326  0.00  0.00    -0.440 OA
BRANCH  21  23
ATOM     23  C   LIG    1       -1.255   1.754   0.598  0.00  0.00    -0.160 A 
ATOM     24  C   LIG    1       -1.272   3.045   1.133  0.00  0.00    +0.060 A 
ATOM     25  C   LIG    1       -2.436   3.547   1.675  0.00  0.00    +0.000 A 
ATOM     26  C   LIG    1       -3.582   2.772   1.703  0.00  0.00    +0.040 A 
ATOM     27  C   LIG    1       -3.571   1.491   1.180  0.00  0.00    +0.000 A 
ATOM     28  C   LIG    1       -2.416   0.977   0.628  0.00  0.00    +0.070 A 
ENDBRANCH  21  23
ENDBRANCH  18  21
ENDBRANCH   1  15
TORSDOF 6
