REMARK  Name = ZINCrH000004u7Y3.0
REMARK                            x       y       z     vdW  Elec       q    Type
REMARK                         _______ _______ _______ _____ _____    ______ ____
ROOT
ATOM      1  O   LIG    1        5.270  -3.665  -4.979  0.00  0.00    -0.530 OA
ATOM      2  C   LIG    1        4.320  -2.995  -5.333  0.00  0.00    +0.560 C 
ATOM      3  N   LIG    1        3.396  -2.607  -4.433  0.00  0.00    -0.710 N 
ATOM      4  H   LIG    1        2.638  -2.072  -4.716  0.00  0.00    +0.410 HD
ENDROOT
BRANCH   2   5
ATOM      5  C   LIG    1        4.179  -2.606  -6.753  0.00  0.00    -0.100 A 
ATOM      6  C   LIG    1        3.087  -1.841  -7.164  0.00  0.00    +0.050 A 
ATOM      7  C   LIG    1        2.964  -1.476  -8.489  0.00  0.00    +0.070 A 
ATOM      8  C   LIG    1        3.915  -1.876  -9.411  0.00  0.00    -0.160 A 
ATOM      9  C   LIG    1        4.997  -2.639  -9.010  0.00  0.00    +0.070 A 
ATOM     10  C   LIG    1        5.135  -3.006  -7.688  0.00  0.00    +0.090 A 
BRANCH   8  11
ATOM     11  C   LIG    1        3.771  -1.480 -10.858  0.00  0.00    +0.510 C 
ATOM     12  F   LIG    1        5.039  -1.361 -11.437  0.00  0.00    -0.170 F 
ATOM     13  F   LIG    1        3.103  -0.253 -10.941  0.00  0.00    -0.170 F 
ATOM     14  F   LIG    1        3.037  -2.457 -11.538  0.00  0.00    -0.170 F 
ENDBRANCH   8  11
ENDBRANCH   2   5
BRANCH   3  15
ATOM     15  C   LIG    1        3.535  -2.993  -3.026  0.00  0.00    +0.300 C 
BRANCH  15  16
ATOM     16  C   LIG    1        2.380  -2.437  -2.236  0.00  0.00    +0.530 C 
ATOM     17  N   LIG    1        2.297  -2.666  -0.910  0.00  0.00    -0.610 N 
ATOM     18  C   LIG    1        3.263  -3.442  -0.111  0.00  0.00    +0.250 C 
ATOM     19  C   LIG    1        2.458  -3.933   1.118  0.00  0.00    +0.040 C 
ATOM     20  C   LIG    1        1.538  -2.714   1.395  0.00  0.00    +0.050 C 
ATOM     21  C   LIG    1        1.229  -2.186  -0.022  0.00  0.00    +0.270 C 
ATOM     22  O   LIG    1        1.523  -1.782  -2.792  0.00  0.00    -0.520 OA
BRANCH  21  23
ATOM     23  C   LIG    1        1.208  -0.679  -0.014  0.00  0.00    -0.090 A 
ATOM     24  C   LIG    1        0.002  -0.004   0.002  0.00  0.00    +0.020 A 
ATOM     25  C   LIG    1       -0.017   1.378   0.010  0.00  0.00    +0.000 A 
ATOM     26  C   LIG    1        1.171   2.086   0.002  0.00  0.00    +0.000 A 
ATOM     27  C   LIG    1        2.377   1.411  -0.014  0.00  0.00    +0.000 A 
ATOM     28  C   LIG    1        2.396   0.029  -0.021  0.00  0.00    +0.000 A 
ENDBRANCH  21  23
ENDBRANCH  15  16
ENDBRANCH   3  15
TORSDOF 5
