REMARK  Name = ZINCkj000018RFaG.0
REMARK                            x       y       z     vdW  Elec       q    Type
REMARK                         _______ _______ _______ _____ _____    ______ ____
ROOT
ATOM      1  C   LIG    1       -1.304   2.115   0.020  0.00  0.00    +0.610 C 
ATOM      2  N   LIG    1       -2.461   1.431  -0.080  0.00  0.00    -0.640 N 
ATOM      3  C   LIG    1       -2.852   0.013  -0.128  0.00  0.00    +0.320 C 
ATOM      4  C   LIG    1       -4.206   0.428   0.458  0.00  0.00    +0.010 C 
ATOM      5  C   LIG    1       -4.240   0.473   1.983  0.00  0.00    +0.100 C 
ATOM      6  C   LIG    1       -5.558   1.112   2.435  0.00  0.00    +0.040 C 
ATOM      7  C   LIG    1       -6.725   0.350   1.801  0.00  0.00    +0.050 C 
ATOM      8  C   LIG    1       -6.596   0.394   0.278  0.00  0.00    +0.260 C 
ATOM      9  N   LIG    1       -5.350  -0.267  -0.132  0.00  0.00    -0.490 N 
ATOM     10  H   LIG    1       -5.359  -1.226   0.183  0.00  0.00    +0.430 HD
ATOM     11  H   LIG    1       -5.274  -0.246  -1.138  0.00  0.00    +0.430 HD
ATOM     12  C   LIG    1       -3.887   1.774  -0.196  0.00  0.00    +0.330 C 
ATOM     13  O   LIG    1       -1.321   3.325   0.129  0.00  0.00    -0.500 OA
ENDROOT
BRANCH   1  16
ATOM     14  C   LIG    1        2.379   1.404   0.206  0.00  0.00    +0.100 A 
ATOM     15  C   LIG    1        1.176   2.082   0.235  0.00  0.00    +0.020 A 
ATOM     16  C   LIG    1       -0.016   1.394  -0.004  0.00  0.00    -0.110 A 
ATOM     17  C   LIG    1        0.013   0.023  -0.270  0.00  0.00    +0.010 A 
ATOM     18  C   LIG    1        1.217  -0.648  -0.297  0.00  0.00    +0.030 A 
ATOM     19  C   LIG    1        2.402   0.036  -0.060  0.00  0.00    +0.120 A 
BRANCH  14  21
ATOM     20  C   LIG    1        3.444   3.472   0.703  0.00  0.00    +0.250 C 
ATOM     21  O   LIG    1        3.541   2.071   0.437  0.00  0.00    -0.300 OA
ENDBRANCH  14  21
BRANCH  19  22
ATOM     22  O   LIG    1        3.585  -0.630  -0.089  0.00  0.00    -0.480 OA
ATOM     23  H   LIG    1        4.003  -0.653  -0.961  0.00  0.00    +0.400 HD
ENDBRANCH  19  22
ENDBRANCH   1  16
TORSDOF 3
