REMARK  Name = ZINCpk00000ebhYW.0
REMARK                            x       y       z     vdW  Elec       q    Type
REMARK                         _______ _______ _______ _____ _____    ______ ____
ROOT
ATOM      1  C   LIG    1        3.470  -1.064  -0.035  0.00  0.00    +0.600 C 
ATOM      2  N   LIG    1        3.315  -2.403  -0.040  0.00  0.00    -0.600 N 
ATOM      3  C   LIG    1        2.026  -3.119  -0.032  0.00  0.00    +0.270 C 
ATOM      4  C   LIG    1        2.337  -4.503  -0.654  0.00  0.00    +0.040 C 
ATOM      5  C   LIG    1        3.751  -4.790  -0.084  0.00  0.00    +0.040 C 
ATOM      6  C   LIG    1        4.403  -3.392  -0.061  0.00  0.00    +0.230 C 
ATOM      7  O   LIG    1        4.586  -0.582  -0.043  0.00  0.00    -0.490 OA
ENDROOT
BRANCH   1  11
ATOM      8  C   LIG    1       -1.279  -0.715   0.010  0.00  0.00    +0.360 C 
ATOM      9  N   LIG    1        0.002  -0.004   0.002  0.00  0.00    -0.370 N 
ATOM     10  N   LIG    1        1.078  -0.696  -0.011  0.00  0.00    -0.200 NA
ATOM     11  C   LIG    1        2.285  -0.184  -0.020  0.00  0.00    +0.060 A 
ATOM     12  C   LIG    1        2.444   1.279  -0.014  0.00  0.00    -0.040 A 
ATOM     13  C   LIG    1        3.687   1.902  -0.024  0.00  0.00    +0.080 A 
ATOM     14  C   LIG    1        3.755   3.279  -0.015  0.00  0.00    +0.050 A 
ATOM     15  C   LIG    1        2.599   4.048  -0.000  0.00  0.00    +0.030 A 
ATOM     16  C   LIG    1        1.355   3.450   0.008  0.00  0.00    +0.080 A 
ATOM     17  C   LIG    1        1.266   2.062   0.001  0.00  0.00    -0.140 A 
ATOM     18  C   LIG    1       -0.016   1.345   0.009  0.00  0.00    +0.510 A 
ATOM     19  O   LIG    1       -1.071   1.953   0.018  0.00  0.00    -0.500 OA
ENDBRANCH   1  11
BRANCH   6  20
ATOM     20  C   LIG    1        5.264  -3.243   1.195  0.00  0.00    +0.310 C 
BRANCH  20  21
ATOM     21  N   LIG    1        5.959  -1.954   1.160  0.00  0.00    -0.360 N 
ATOM     22  C   LIG    1        5.917  -1.004   2.118  0.00  0.00    +0.220 A 
ATOM     23  C   LIG    1        6.689   0.029   1.708  0.00  0.00    -0.120 A 
ATOM     24  C   LIG    1        7.221  -0.300   0.457  0.00  0.00    +0.220 A 
ATOM     25  N   LIG    1        6.788  -1.491   0.130  0.00  0.00    -0.270 NA
ENDBRANCH  20  21
ENDBRANCH   6  20
TORSDOF 3
