REMARK  Name = ZINCpk00000ebI9P.0
REMARK                            x       y       z     vdW  Elec       q    Type
REMARK                         _______ _______ _______ _____ _____    ______ ____
ROOT
ATOM      1  O   LIG    1       -3.631  -2.880  -3.491  0.00  0.00    -0.490 OA
ATOM      2  C   LIG    1       -4.137  -2.711  -4.581  0.00  0.00    +0.510 C 
ATOM      3  N   LIG    1       -4.213  -1.471  -5.104  0.00  0.00    -0.610 N 
ATOM      4  C   LIG    1       -4.926  -1.224  -6.367  0.00  0.00    +0.250 C 
ATOM      5  C   LIG    1       -4.004  -0.427  -7.296  0.00  0.00    +0.210 C 
ATOM      6  O   LIG    1       -3.521   0.726  -6.604  0.00  0.00    -0.370 OA
ATOM      7  C   LIG    1       -2.726   0.428  -5.453  0.00  0.00    +0.240 C 
ATOM      8  C   LIG    1       -3.584  -0.325  -4.429  0.00  0.00    +0.310 C 
ENDROOT
BRANCH   8   9
ATOM      9  C   LIG    1       -2.713  -0.815  -3.301  0.00  0.00    +0.250 A 
ATOM     10  N   LIG    1       -2.916  -0.584  -2.030  0.00  0.00    -0.310 NA
ATOM     11  N   LIG    1       -1.874  -1.217  -1.332  0.00  0.00    -0.370 N 
ATOM     12  C   LIG    1       -1.101  -1.807  -2.260  0.00  0.00    +0.480 A 
ATOM     13  N   LIG    1       -1.616  -1.558  -3.436  0.00  0.00    -0.530 NA
BRANCH  11  14
ATOM     14  C   LIG    1       -1.674  -1.235   0.119  0.00  0.00    +0.380 C 
BRANCH  14  15
ATOM     15  C   LIG    1       -0.719  -0.135   0.508  0.00  0.00    -0.120 A 
ATOM     16  C   LIG    1       -1.204   1.121   0.823  0.00  0.00    +0.030 A 
ATOM     17  C   LIG    1       -0.328   2.129   1.180  0.00  0.00    +0.010 A 
ATOM     18  C   LIG    1        1.031   1.883   1.221  0.00  0.00    +0.010 A 
ATOM     19  C   LIG    1        1.515   0.626   0.907  0.00  0.00    +0.010 A 
ATOM     20  C   LIG    1        0.640  -0.382   0.550  0.00  0.00    +0.020 A 
ENDBRANCH  14  15
ENDBRANCH  11  14
ENDBRANCH   8   9
BRANCH   2  21
ATOM     21  C   LIG    1       -4.680  -3.888  -5.350  0.00  0.00    +0.180 C 
ATOM     22  C   LIG    1       -6.211  -3.755  -5.498  0.00  0.00    +0.030 C 
ATOM     23  C   LIG    1       -6.688  -5.222  -5.306  0.00  0.00    +0.020 C 
ATOM     24  C   LIG    1       -5.653  -5.736  -4.273  0.00  0.00    +0.200 C 
ATOM     25  O   LIG    1       -4.416  -5.100  -4.633  0.00  0.00    -0.350 OA
ENDBRANCH   2  21
TORSDOF 4
