REMARK  Name = ZINCc70000002G6C.0
REMARK                            x       y       z     vdW  Elec       q    Type
REMARK                         _______ _______ _______ _____ _____    ______ ____
ROOT
ATOM      1  C   LIG    1       -0.957   1.909  -1.397  0.00  0.00    -0.650 A 
ATOM      2  C   LIG    1       -1.877   1.036  -1.950  0.00  0.00    +0.120 A 
ATOM      3  C   LIG    1       -2.619   1.416  -3.049  0.00  0.00    +0.070 A 
ATOM      4  C   LIG    1       -2.433   2.683  -3.610  0.00  0.00    -0.130 A 
ATOM      5  C   LIG    1       -1.497   3.558  -3.048  0.00  0.00    +0.060 A 
ATOM      6  C   LIG    1       -0.767   3.166  -1.946  0.00  0.00    +0.120 A 
ENDROOT
BRANCH   1   7
ATOM      7  S   LIG    1       -0.017   1.417   0.010  0.00  0.00    +2.700 S 
ATOM      8  O   LIG    1        1.162   2.210   0.003  0.00  0.00    -0.960 OA
ATOM      9  O   LIG    1        0.002  -0.004   0.002  0.00  0.00    -0.960 OA
BRANCH   7  10
ATOM     10  N   LIG    1       -0.875   1.865   1.354  0.00  0.00    -1.250 NA
ATOM     11  H   LIG    1       -1.730   2.313   1.256  0.00  0.00    +0.420 HD
ATOM     12  H   LIG    1       -0.522   1.680   2.238  0.00  0.00    +0.420 HD
ENDBRANCH   7  10
ENDBRANCH   1   7
BRANCH   4  13
ATOM     13  C   LIG    1       -3.216   3.094  -4.785  0.00  0.00    +0.500 C 
ATOM     14  O   LIG    1       -4.027   2.333  -5.270  0.00  0.00    -0.440 OA
ENDBRANCH   4  13
TORSDOF 3
