REMARK  Name = ZINCrg00000fS7Rl.0
REMARK                            x       y       z     vdW  Elec       q    Type
REMARK                         _______ _______ _______ _____ _____    ______ ____
ROOT
ATOM      1  C   LIG    1        1.357  -2.060  -0.342  0.00  0.00    -0.310 A 
ATOM      2  C   LIG    1        1.069  -0.693  -0.365  0.00  0.00    +0.400 A 
ATOM      3  N   LIG    1       -0.126  -0.022  -0.240  0.00  0.00    -0.620 N 
ATOM      4  H   LIG    1       -0.945  -0.526  -0.112  0.00  0.00    +0.440 HD
ATOM      5  C   LIG    1       -0.178   1.326  -0.293  0.00  0.00    +0.560 A 
ATOM      6  C   LIG    1        1.080   2.069  -0.489  0.00  0.00    -0.170 A 
ATOM      7  C   LIG    1        1.098   3.461  -0.554  0.00  0.00    +0.130 A 
ATOM      8  C   LIG    1        2.297   4.117  -0.738  0.00  0.00    +0.020 A 
ATOM      9  C   LIG    1        3.477   3.400  -0.859  0.00  0.00    +0.090 A 
ATOM     10  C   LIG    1        3.472   2.021  -0.797  0.00  0.00    +0.030 A 
ATOM     11  C   LIG    1        2.276   1.344  -0.613  0.00  0.00    +0.190 A 
ATOM     12  O   LIG    1       -1.238   1.913  -0.187  0.00  0.00    -0.480 OA
ATOM     13  N   LIG    1        2.240  -0.046  -0.546  0.00  0.00    -0.320 N 
ATOM     14  N   LIG    1        3.263  -0.999  -0.637  0.00  0.00    -0.270 NA
ATOM     15  C   LIG    1        2.753  -2.192  -0.517  0.00  0.00    +0.370 A 
ENDROOT
BRANCH   1  16
ATOM     16  C   LIG    1        0.393  -3.152  -0.168  0.00  0.00    +0.560 C 
ATOM     17  O   LIG    1       -0.789  -2.902  -0.025  0.00  0.00    -0.530 OA
BRANCH  16  18
ATOM     18  O   LIG    1        0.816  -4.432  -0.166  0.00  0.00    -0.320 OA
BRANCH  18  20
ATOM     19  C   LIG    1       -0.361  -5.757   1.503  0.00  0.00    +0.070 C 
ATOM     20  C   LIG    1       -0.193  -5.460   0.012  0.00  0.00    +0.180 C 
BRANCH  20  21
ATOM     21  C   LIG    1        0.236  -6.714  -0.705  0.00  0.00    +0.520 C 
ATOM     22  N   LIG    1       -0.621  -7.748  -0.826  0.00  0.00    -0.610 N 
ATOM     23  C   LIG    1       -2.000  -7.616  -0.349  0.00  0.00    +0.290 C 
ATOM     24  O   LIG    1        1.352  -6.793  -1.174  0.00  0.00    -0.510 OA
BRANCH  22  25
ATOM     25  C   LIG    1       -0.172  -9.003  -1.433  0.00  0.00    +0.310 C 
BRANCH  25  26
ATOM     26  C   LIG    1        0.386  -9.925  -0.347  0.00  0.00    +0.180 C 
BRANCH  26  27
ATOM     27  C   LIG    1        0.836 -11.186  -0.957  0.00  0.00    +0.200 C 
ATOM     28  N   LIG    1        1.183 -12.160  -1.428  0.00  0.00    -0.420 NA
ENDBRANCH  26  27
ENDBRANCH  25  26
ENDBRANCH  22  25
ENDBRANCH  20  21
ENDBRANCH  18  20
ENDBRANCH  16  18
ENDBRANCH   1  16
TORSDOF 7
