REMARK  Name = ZINCrH00000xtsFN.0
REMARK                            x       y       z     vdW  Elec       q    Type
REMARK                         _______ _______ _______ _____ _____    ______ ____
ROOT
ATOM      1  C   LIG    1       -0.376   8.022  -1.021  0.00  0.00    +0.080 C 
ATOM      2  C   LIG    1       -1.819   7.549  -1.215  0.00  0.00    +0.040 C 
ATOM      3  C   LIG    1       -2.211   6.630  -0.054  0.00  0.00    +0.300 C 
ATOM      4  N   LIG    1       -1.227   5.543   0.042  0.00  0.00    -0.580 N 
ATOM      5  C   LIG    1        0.198   5.887   0.146  0.00  0.00    +0.290 C 
ATOM      6  C   LIG    1        0.563   6.814  -1.023  0.00  0.00    +0.040 C 
ENDROOT
BRANCH   1  10
ATOM      7  C   LIG    1        0.247   8.793  -5.808  0.00  0.00    +0.140 C 
ATOM      8  C   LIG    1        0.292   9.304  -4.391  0.00  0.00    +0.180 A 
ATOM      9  N   LIG    1       -0.030   8.511  -3.384  0.00  0.00    -0.510 NA
ATOM     10  C   LIG    1        0.002   8.954  -2.143  0.00  0.00    +0.330 A 
ATOM     11  N   LIG    1        0.360  10.188  -1.859  0.00  0.00    -0.520 NA
ATOM     12  C   LIG    1        0.703  11.041  -2.819  0.00  0.00    +0.180 A 
ATOM     13  C   LIG    1        1.097  12.440  -2.430  0.00  0.00    +0.110 C 
ATOM     14  C   LIG    1        1.853  13.118  -3.572  0.00  0.00    +0.030 C 
ATOM     15  C   LIG    1        1.030  12.969  -4.857  0.00  0.00    +0.030 C 
ATOM     16  C   LIG    1        1.057  11.501  -5.282  0.00  0.00    +0.090 C 
ATOM     17  C   LIG    1        0.679  10.614  -4.128  0.00  0.00    -0.190 A 
ENDBRANCH   1  10
BRANCH   4  18
ATOM     18  C   LIG    1       -1.636   4.214   0.039  0.00  0.00    +0.350 A 
ATOM     19  C   LIG    1       -0.710   3.194  -0.029  0.00  0.00    -0.160 A 
ATOM     20  C   LIG    1       -1.137   1.863  -0.030  0.00  0.00    +0.260 A 
ATOM     21  N   LIG    1       -2.410   1.564   0.033  0.00  0.00    -0.320 NA
ATOM     22  N   LIG    1       -3.381   2.566   0.108  0.00  0.00    -0.240 N 
ATOM     23  C   LIG    1       -4.742   2.534   0.174  0.00  0.00    +0.180 A 
ATOM     24  C   LIG    1       -5.172   3.817   0.220  0.00  0.00    +0.200 A 
ATOM     25  N   LIG    1       -4.110   4.622   0.178  0.00  0.00    -0.450 NA
ATOM     26 CL   LIG    1        0.037   0.588  -0.115  0.00  0.00    +0.020 Cl
ATOM     27  C   LIG    1       -3.011   3.885   0.106  0.00  0.00    +0.140 A 
ENDBRANCH   4  18
TORSDOF 2
