REMARK  Name = ZINCkj000005f8Fx.0
REMARK                            x       y       z     vdW  Elec       q    Type
REMARK                         _______ _______ _______ _____ _____    ______ ____
ROOT
ATOM      1  C   LIG    1        1.478  -2.223   0.000  0.00  0.00    +0.110 C 
ATOM      2  C   LIG    1        0.135  -2.654  -0.587  0.00  0.00    +0.090 C 
ATOM      3  C   LIG    1       -0.957  -1.739  -0.019  0.00  0.00    +0.030 C 
ATOM      4  C   LIG    1       -0.777  -0.345  -0.617  0.00  0.00    +0.090 C 
ATOM      5  C   LIG    1        0.646   0.122  -0.453  0.00  0.00    -0.040 A 
ATOM      6  C   LIG    1        0.901   1.480  -0.595  0.00  0.00    +0.020 A 
ATOM      7  C   LIG    1        2.184   1.970  -0.462  0.00  0.00    +0.060 A 
ATOM      8  C   LIG    1        3.225   1.103  -0.188  0.00  0.00    +0.020 A 
ATOM      9  C   LIG    1        2.973  -0.246  -0.045  0.00  0.00    +0.020 A 
ATOM     10  C   LIG    1        1.682  -0.741  -0.175  0.00  0.00    -0.130 A 
ENDROOT
BRANCH   1  11
ATOM     11  N   LIG    1        1.507  -2.550   1.432  0.00  0.00    -0.490 N 
ATOM     12  H   LIG    1        0.735  -2.097   1.897  0.00  0.00    +0.440 HD
ATOM     13  H   LIG    1        2.376  -2.229   1.832  0.00  0.00    +0.430 HD
BRANCH  11  14
ATOM     14  C   LIG    1        1.397  -4.005   1.605  0.00  0.00    +0.280 C 
BRANCH  14  17
ATOM     15  N   LIG    1        1.398  -5.629   3.470  0.00  0.00    -0.700 N 
ATOM     16  H   LIG    1        1.290  -6.335   2.814  0.00  0.00    +0.410 HD
ATOM     17  C   LIG    1        1.478  -4.344   3.071  0.00  0.00    +0.500 C 
ATOM     18  O   LIG    1        1.614  -3.461   3.891  0.00  0.00    -0.530 OA
BRANCH  15  20
ATOM     19  C   LIG    1        0.769  -7.291   5.150  0.00  0.00    +0.050 C 
ATOM     20  C   LIG    1        1.477  -5.959   4.896  0.00  0.00    +0.230 C 
ATOM     21  C   LIG    1        2.944  -6.073   5.313  0.00  0.00    +0.030 C 
ENDBRANCH  15  20
ENDBRANCH  14  17
ENDBRANCH  11  14
ENDBRANCH   1  11
BRANCH   1  22
ATOM     22  C   LIG    1        2.604  -2.975  -0.712  0.00  0.00    +0.210 C 
BRANCH  22  23
ATOM     23  O   LIG    1        2.654  -2.572  -2.082  0.00  0.00    -0.540 OA
ATOM     24  H   LIG    1        3.346  -3.010  -2.596  0.00  0.00    +0.400 HD
ENDBRANCH  22  23
ENDBRANCH   1  22
TORSDOF 6
