REMARK  Name = ZINCvU00000005wi.0
REMARK                            x       y       z     vdW  Elec       q    Type
REMARK                         _______ _______ _______ _____ _____    ______ ____
ROOT
ATOM      1  C   LIG    1       -1.260   5.908  -0.065  0.00  0.00    +0.380 A 
ATOM      2  N   LIG    1       -1.317   7.218  -0.056  0.00  0.00    -0.510 NA
ATOM      3  C   LIG    1       -0.205   7.972   0.034  0.00  0.00    +0.080 A 
ATOM      4  C   LIG    1        1.045   7.357   0.128  0.00  0.00    -0.220 A 
ATOM      5  C   LIG    1        1.087   5.928   0.123  0.00  0.00    +0.570 A 
ATOM      6  O   LIG    1        2.151   5.340   0.202  0.00  0.00    -0.500 OA
ATOM      7  C   LIG    1        2.099   8.280   0.215  0.00  0.00    +0.090 A 
ATOM      8  C   LIG    1        1.741   9.565   0.194  0.00  0.00    -0.160 A 
ATOM      9  S   LIG    1       -0.002   9.720   0.060  0.00  0.00    +0.240 S 
ATOM     10  N   LIG    1       -0.069   5.243   0.029  0.00  0.00    -0.470 N 
ENDROOT
BRANCH   8  11
ATOM     11  C   LIG    1        2.683  10.701   0.274  0.00  0.00    -0.020 A 
ATOM     12  C   LIG    1        4.055  10.468   0.386  0.00  0.00    +0.030 A 
ATOM     13  C   LIG    1        4.929  11.533   0.454  0.00  0.00    +0.020 A 
ATOM     14  C   LIG    1        4.448  12.830   0.424  0.00  0.00    +0.020 A 
ATOM     15  C   LIG    1        3.089  13.068   0.319  0.00  0.00    +0.020 A 
ATOM     16  C   LIG    1        2.204  12.012   0.244  0.00  0.00    +0.010 A 
ENDBRANCH   8  11
BRANCH  10  17
ATOM     17  C   LIG    1       -0.050   3.842   0.023  0.00  0.00    +0.080 A 
ATOM     18  C   LIG    1        0.055   3.154  -1.178  0.00  0.00    +0.040 A 
ATOM     19  C   LIG    1        0.073   1.773  -1.182  0.00  0.00    +0.030 A 
ATOM     20  C   LIG    1       -0.014   1.076   0.009  0.00  0.00    +0.040 A 
ATOM     21  C   LIG    1       -0.125   1.758   1.207  0.00  0.00    +0.030 A 
ATOM     22  C   LIG    1       -0.137   3.140   1.217  0.00  0.00    +0.040 A 
ENDBRANCH  10  17
BRANCH   1  23
ATOM     23  S   LIG    1       -2.754   4.982  -0.193  0.00  0.00    +0.080 S 
BRANCH  23  24
ATOM     24  C   LIG    1       -3.954   6.334  -0.283  0.00  0.00    +0.260 C 
BRANCH  24  28
ATOM     25  C   LIG    1       -7.271   4.991   0.011  0.00  0.00    +0.180 A 
ATOM     26  N   LIG    1       -7.091   5.029  -1.275  0.00  0.00    -0.370 NA
ATOM     27  O   LIG    1       -5.993   5.475  -1.533  0.00  0.00    +0.090 OA
ATOM     28  C   LIG    1       -5.344   5.764  -0.401  0.00  0.00    +0.180 A 
ATOM     29  N   LIG    1       -6.151   5.463   0.588  0.00  0.00    -0.450 NA
BRANCH  25  31
ATOM     30  C   LIG    1       -9.468   5.679   0.931  0.00  0.00    +0.040 C 
ATOM     31  C   LIG    1       -8.506   4.507   0.726  0.00  0.00    +0.150 C 
ENDBRANCH  25  31
ENDBRANCH  24  28
ENDBRANCH  23  24
ENDBRANCH   1  23
TORSDOF 6
