REMARK  Name = ZINCqH0000033e0I.0
REMARK                            x       y       z     vdW  Elec       q    Type
REMARK                         _______ _______ _______ _____ _____    ______ ____
ROOT
ATOM      1  C   LIG    1       -3.439   2.955   4.028  0.00  0.00    -0.170 A 
ATOM      2  C   LIG    1       -4.751   2.749   4.472  0.00  0.00    +0.040 A 
ATOM      3  C   LIG    1       -5.207   3.443   5.575  0.00  0.00    +0.200 A 
ATOM      4  N   LIG    1       -4.432   4.294   6.217  0.00  0.00    -0.420 NA
ATOM      5  C   LIG    1       -3.184   4.528   5.842  0.00  0.00    +0.100 A 
ATOM      6  C   LIG    1       -2.635   3.863   4.736  0.00  0.00    +0.230 A 
ENDROOT
BRANCH   5   7
ATOM      7  C   LIG    1       -2.357   5.496   6.602  0.00  0.00    -0.040 A 
ATOM      8  C   LIG    1       -2.386   5.498   7.996  0.00  0.00    +0.050 A 
ATOM      9  C   LIG    1       -1.610   6.398   8.698  0.00  0.00    +0.010 A 
ATOM     10  C   LIG    1       -0.814   7.304   8.021  0.00  0.00    +0.010 A 
ATOM     11  C   LIG    1       -0.785   7.310   6.638  0.00  0.00    +0.010 A 
ATOM     12  C   LIG    1       -1.552   6.411   5.925  0.00  0.00    +0.010 A 
ENDBRANCH   5   7
BRANCH   1  14
ATOM     13  N   LIG    1       -2.868   0.885   2.853  0.00  0.00    -0.600 N 
ATOM     14  C   LIG    1       -2.914   2.232   2.852  0.00  0.00    +0.570 C 
ATOM     15  O   LIG    1       -2.524   2.852   1.882  0.00  0.00    -0.520 OA
BRANCH  13  16
ATOM     16  C   LIG    1       -2.255   0.172   1.730  0.00  0.00    +0.240 C 
ATOM     17  C   LIG    1       -0.790   0.599   1.590  0.00  0.00    -0.010 C 
ATOM     18  C   LIG    1       -0.181  -0.091   0.367  0.00  0.00    +0.210 C 
ATOM     19  O   LIG    1       -0.940   0.244  -0.796  0.00  0.00    -0.370 OA
ATOM     20  C   LIG    1       -2.306  -0.174  -0.741  0.00  0.00    +0.120 C 
ATOM     21  C   LIG    1       -2.368  -1.692  -0.556  0.00  0.00    +0.020 C 
ATOM     22  C   LIG    1       -3.010   0.210  -2.044  0.00  0.00    +0.070 C 
ATOM     23  C   LIG    1       -3.001   0.513   0.437  0.00  0.00    +0.010 C 
ENDBRANCH  13  16
BRANCH  13  25
ATOM     24  C   LIG    1       -2.348  -0.086   5.037  0.00  0.00    +0.020 C 
ATOM     25  C   LIG    1       -3.431   0.134   3.979  0.00  0.00    +0.260 C 
ENDBRANCH  13  25
ENDBRANCH   1  14
BRANCH   6  26
ATOM     26  N   LIG    1       -1.327   4.102   4.345  0.00  0.00    -0.850 N 
ATOM     27  H   LIG    1       -0.737   4.619   4.915  0.00  0.00    +0.410 HD
ATOM     28  H   LIG    1       -1.001   3.753   3.500  0.00  0.00    +0.410 HD
ENDBRANCH   6  26
TORSDOF 5
