REMARK  Name = ZINCrH000004qrNy.0
REMARK                            x       y       z     vdW  Elec       q    Type
REMARK                         _______ _______ _______ _____ _____    ______ ____
ROOT
ATOM      1  C   LIG    1        2.513   0.979  -0.817  0.00  0.00    +0.130 A 
ATOM      2  C   LIG    1        3.190  -0.221  -0.991  0.00  0.00    +0.080 A 
ATOM      3  C   LIG    1        2.559  -1.416  -0.703  0.00  0.00    +0.020 A 
ATOM      4  C   LIG    1        1.255  -1.418  -0.242  0.00  0.00    +0.120 A 
ATOM      5  C   LIG    1        0.579  -0.224  -0.068  0.00  0.00    -0.660 A 
ATOM      6  C   LIG    1        1.203   0.974  -0.354  0.00  0.00    +0.100 A 
ENDROOT
BRANCH   1   8
ATOM      7  C   LIG    1        4.447   2.363  -0.795  0.00  0.00    +0.600 C 
ATOM      8  N   LIG    1        3.148   2.191  -1.109  0.00  0.00    -0.670 N 
ATOM      9  H   LIG    1        2.653   2.907  -1.537  0.00  0.00    +0.410 HD
ATOM     10  O   LIG    1        5.088   1.439  -0.330  0.00  0.00    -0.530 OA
BRANCH   7  14
ATOM     11  C   LIG    1        5.251   7.237  -2.071  0.00  0.00    +0.130 C 
ATOM     12  C   LIG    1        5.426   5.821  -1.584  0.00  0.00    +0.020 A 
ATOM     13  C   LIG    1        4.469   4.876  -1.569  0.00  0.00    -0.020 A 
ATOM     14  C   LIG    1        5.091   3.668  -1.015  0.00  0.00    -0.250 A 
ATOM     15  C   LIG    1        6.391   3.999  -0.749  0.00  0.00    +0.130 A 
ATOM     16  C   LIG    1        7.435   3.078  -0.170  0.00  0.00    +0.150 C 
ATOM     17  N   LIG    1        6.581   5.287  -1.093  0.00  0.00    -0.410 N 
BRANCH  17  18
ATOM     18  C   LIG    1        7.847   6.012  -0.958  0.00  0.00    +0.170 C 
ATOM     19  C   LIG    1        8.375   6.747  -2.192  0.00  0.00    +0.060 C 
ATOM     20  C   LIG    1        9.059   5.463  -1.714  0.00  0.00    +0.040 C 
ENDBRANCH  17  18
ENDBRANCH   7  14
ENDBRANCH   1   8
BRANCH   5  21
ATOM     21  S   LIG    1       -1.083  -0.232   0.519  0.00  0.00    +2.700 S 
ATOM     22  O   LIG    1       -1.240   0.948   1.295  0.00  0.00    -0.960 OA
ATOM     23  O   LIG    1       -1.321  -1.536   1.031  0.00  0.00    -0.950 OA
BRANCH  21  24
ATOM     24  N   LIG    1       -2.070  -0.060  -0.799  0.00  0.00    -1.110 NA
ATOM     25  H   LIG    1       -2.591   0.750  -0.912  0.00  0.00    +0.420 HD
BRANCH  24  26
ATOM     26  C   LIG    1       -2.155  -1.131  -1.795  0.00  0.00    +0.170 C 
ATOM     27  C   LIG    1       -0.750  -1.486  -2.285  0.00  0.00    +0.030 C 
ATOM     28  C   LIG    1       -3.004  -0.661  -2.978  0.00  0.00    +0.040 C 
ATOM     29  C   LIG    1       -2.801  -2.365  -1.162  0.00  0.00    +0.040 C 
ENDBRANCH  24  26
ENDBRANCH  21  24
ENDBRANCH   5  21
TORSDOF 6
