REMARK  Name = ZINCvU0000000ENL.0
REMARK                            x       y       z     vdW  Elec       q    Type
REMARK                         _______ _______ _______ _____ _____    ______ ____
ROOT
ATOM      1  O   LIG    1       10.684   5.510   0.933  0.00  0.00    -0.490 OA
ATOM      2  C   LIG    1        9.556   5.060   1.005  0.00  0.00    +0.570 C 
ATOM      3  C   LIG    1        8.976   4.772   2.322  0.00  0.00    -0.170 A 
ATOM      4  C   LIG    1        9.691   5.002   3.498  0.00  0.00    +0.110 A 
ATOM      5  C   LIG    1        9.112   4.719   4.716  0.00  0.00    -0.020 A 
ATOM      6  C   LIG    1        7.825   4.206   4.786  0.00  0.00    +0.070 A 
ATOM      7  C   LIG    1        7.100   3.970   3.635  0.00  0.00    -0.020 A 
ATOM      8  C   LIG    1        7.667   4.250   2.398  0.00  0.00    +0.050 A 
ATOM      9  C   LIG    1        6.935   4.016   1.136  0.00  0.00    -0.310 C 
ATOM     10  C   LIG    1        7.615   4.335  -0.125  0.00  0.00    +0.580 C 
ATOM     11  O   LIG    1        7.042   4.149  -1.183  0.00  0.00    -0.520 OA
ATOM     12  C   LIG    1        5.654   3.509   1.142  0.00  0.00    +0.440 C 
ATOM     13  N   LIG    1        8.862   4.835  -0.123  0.00  0.00    -0.510 N 
ENDROOT
BRANCH  13  14
ATOM     14  C   LIG    1        9.467   5.129  -1.352  0.00  0.00    +0.120 A 
ATOM     15  C   LIG    1        8.965   6.149  -2.148  0.00  0.00    +0.080 A 
ATOM     16  C   LIG    1        9.564   6.437  -3.359  0.00  0.00    +0.040 A 
ATOM     17  C   LIG    1       10.663   5.709  -3.779  0.00  0.00    +0.090 A 
ATOM     18  C   LIG    1       11.165   4.692  -2.987  0.00  0.00    -0.170 A 
ATOM     19  C   LIG    1       10.574   4.404  -1.773  0.00  0.00    +0.100 A 
BRANCH  18  20
ATOM     20  C   LIG    1       12.363   3.902  -3.448  0.00  0.00    +0.510 C 
ATOM     21  F   LIG    1       12.016   2.551  -3.558  0.00  0.00    -0.180 F 
ATOM     22  F   LIG    1       13.400   4.044  -2.520  0.00  0.00    -0.170 F 
ATOM     23  F   LIG    1       12.785   4.378  -4.694  0.00  0.00    -0.170 F 
ENDBRANCH  18  20
ENDBRANCH  13  14
BRANCH  12  24
ATOM     24  N   LIG    1        5.051   3.172  -0.029  0.00  0.00    -0.610 N 
ATOM     25  H   LIG    1        5.490   3.361  -0.873  0.00  0.00    +0.430 HD
BRANCH  24  26
ATOM     26  C   LIG    1        3.797   2.553  -0.016  0.00  0.00    +0.130 A 
ATOM     27  C   LIG    1        3.180   2.208  -1.212  0.00  0.00    +0.010 A 
ATOM     28  C   LIG    1        1.942   1.597  -1.199  0.00  0.00    +0.030 A 
ATOM     29  C   LIG    1        1.314   1.327   0.008  0.00  0.00    +0.090 A 
ATOM     30  C   LIG    1        1.927   1.675   1.203  0.00  0.00    +0.030 A 
ATOM     31  C   LIG    1        3.167   2.282   1.192  0.00  0.00    -0.020 A 
BRANCH  29  32
ATOM     32  O   LIG    1        0.095   0.726   0.020  0.00  0.00    -0.500 OA
ATOM     33  H   LIG    1        0.133  -0.240   0.050  0.00  0.00    +0.390 HD
ENDBRANCH  29  32
ENDBRANCH  24  26
ENDBRANCH  12  24
TORSDOF 5
