REMARK  Name = ZINCkj000005hsNP.0
REMARK                            x       y       z     vdW  Elec       q    Type
REMARK                         _______ _______ _______ _____ _____    ______ ____
ROOT
ATOM      1  N   LIG    1        2.743   4.942   2.955  0.00  0.00    -0.520 NA
ATOM      2  C   LIG    1        2.278   5.426   1.649  0.00  0.00    +0.210 C 
ATOM      3  C   LIG    1        0.827   4.991   1.429  0.00  0.00    +0.050 C 
ATOM      4  C   LIG    1        0.744   3.463   1.488  0.00  0.00    +0.160 C 
ATOM      5  C   LIG    1        1.279   2.982   2.840  0.00  0.00    +0.060 C 
ATOM      6  C   LIG    1        2.716   3.475   3.018  0.00  0.00    +0.200 C 
ENDROOT
BRANCH   4   7
ATOM      7  N   LIG    1       -0.656   3.042   1.336  0.00  0.00    -0.510 N 
ATOM      8  H   LIG    1       -1.193   3.369   2.125  0.00  0.00    +0.430 HD
ATOM      9  H   LIG    1       -1.034   3.433   0.486  0.00  0.00    +0.420 HD
BRANCH   7  10
ATOM     10  C   LIG    1       -0.722   1.576   1.272  0.00  0.00    +0.170 C 
ATOM     11  C   LIG    1       -0.013   1.086   0.008  0.00  0.00    +0.050 C 
ATOM     12  C   LIG    1       -0.745   1.589  -1.237  0.00  0.00    +0.020 C 
ATOM     13  C   LIG    1       -2.216   1.141  -1.169  0.00  0.00    +0.000 C 
ATOM     14  C   LIG    1       -2.227  -0.346  -0.745  0.00  0.00    +0.030 C 
ATOM     15  C   LIG    1       -2.210  -0.354   0.794  0.00  0.00    +0.040 C 
ATOM     16  C   LIG    1       -2.849   1.872   0.044  0.00  0.00    +0.030 C 
ATOM     17  C   LIG    1       -2.189   1.128   1.234  0.00  0.00    +0.000 C 
ENDBRANCH   7  10
ENDBRANCH   4   7
BRANCH   1  18
ATOM     18  C   LIG    1        4.084   5.458   3.261  0.00  0.00    +0.210 C 
BRANCH  18  22
ATOM     19  C   LIG    1        5.949   5.230   6.596  0.00  0.00    +0.290 C 
ATOM     20  N   LIG    1        5.616   5.530   5.201  0.00  0.00    -0.730 N 
ATOM     21  H   LIG    1        6.252   6.003   4.642  0.00  0.00    +0.400 HD
ATOM     22  C   LIG    1        4.427   5.149   4.695  0.00  0.00    +0.510 C 
ATOM     23  O   LIG    1        3.632   4.557   5.395  0.00  0.00    -0.520 OA
ENDBRANCH  18  22
ENDBRANCH   1  18
TORSDOF 4
