REMARK  Name = ZINCrD000000Cz1v.0
REMARK                            x       y       z     vdW  Elec       q    Type
REMARK                         _______ _______ _______ _____ _____    ______ ____
ROOT
ATOM      1  O   LIG    1        0.086   1.224   2.510  0.00  0.00    -0.520 OA
ATOM      2  C   LIG    1        0.025   0.010   2.496  0.00  0.00    +0.580 C 
ATOM      3  N   LIG    1       -0.057  -0.674   3.654  0.00  0.00    -0.600 N 
ATOM      4  C   LIG    1       -0.044  -2.143   3.659  0.00  0.00    +0.270 C 
ATOM      5  C   LIG    1       -1.263  -2.649   4.428  0.00  0.00    +0.040 C 
ATOM      6  C   LIG    1       -1.283  -2.016   5.821  0.00  0.00    +0.040 C 
ATOM      7  C   LIG    1       -1.389  -0.494   5.690  0.00  0.00    +0.100 C 
ATOM      8  C   LIG    1       -0.166   0.036   4.936  0.00  0.00    +0.290 C 
ENDROOT
BRANCH   2   9
ATOM      9  C   LIG    1        0.040  -0.715   1.211  0.00  0.00    -0.130 A 
ATOM     10  C   LIG    1        0.979  -1.724   0.985  0.00  0.00    +0.040 A 
ATOM     11  C   LIG    1        0.987  -2.399  -0.219  0.00  0.00    +0.090 A 
ATOM     12  C   LIG    1        0.067  -2.078  -1.206  0.00  0.00    +0.040 A 
ATOM     13  C   LIG    1       -0.869  -1.085  -0.992  0.00  0.00    +0.030 A 
ATOM     14  F   LIG    1        1.894  -3.376  -0.437  0.00  0.00    -0.130 F 
ATOM     15  C   LIG    1       -0.887  -0.394   0.210  0.00  0.00    +0.150 A 
BRANCH  15  16
ATOM     16  O   LIG    1       -1.804   0.585   0.419  0.00  0.00    -0.490 OA
ATOM     17  H   LIG    1       -1.507   1.465   0.149  0.00  0.00    +0.400 HD
ENDBRANCH  15  16
ENDBRANCH   2   9
BRANCH   7  18
ATOM     18  C   LIG    1       -1.442   0.126   7.063  0.00  0.00    +0.300 A 
ATOM     19  N   LIG    1       -2.527   0.459   7.711  0.00  0.00    -0.520 NA
ATOM     20  C   LIG    1       -2.201   0.979   8.902  0.00  0.00    +0.270 A 
ATOM     21  N   LIG    1       -0.891   0.988   9.015  0.00  0.00    -0.300 NA
ATOM     22  N   LIG    1       -0.380   0.437   7.828  0.00  0.00    -0.480 N 
ATOM     23  H   LIG    1        0.554   0.307   7.604  0.00  0.00    +0.440 HD
BRANCH  20  24
ATOM     24  C   LIG    1       -3.160   1.470   9.923  0.00  0.00    -0.020 A 
ATOM     25  C   LIG    1       -4.531   1.411   9.680  0.00  0.00    +0.070 A 
ATOM     26  C   LIG    1       -5.418   1.864  10.635  0.00  0.00    +0.010 A 
ATOM     27  C   LIG    1       -4.949   2.386  11.827  0.00  0.00    +0.030 A 
ATOM     28  C   LIG    1       -3.589   2.452  12.071  0.00  0.00    +0.010 A 
ATOM     29  C   LIG    1       -2.693   1.997  11.125  0.00  0.00    +0.050 A 
ENDBRANCH  20  24
ENDBRANCH   7  18
TORSDOF 4
