REMARK  Name = ZINCrD000000Cz1v.1
REMARK                            x       y       z     vdW  Elec       q    Type
REMARK                         _______ _______ _______ _____ _____    ______ ____
ROOT
ATOM      1  O   LIG    1       -1.062   1.309  -3.200  0.00  0.00    -0.520 OA
ATOM      2  C   LIG    1       -1.132   0.720  -2.138  0.00  0.00    +0.570 C 
ATOM      3  N   LIG    1       -1.549   1.369  -1.034  0.00  0.00    -0.610 N 
ATOM      4  C   LIG    1       -1.741   0.647   0.231  0.00  0.00    +0.270 C 
ATOM      5  C   LIG    1       -3.157   0.920   0.749  0.00  0.00    +0.040 C 
ATOM      6  C   LIG    1       -3.377   2.432   0.845  0.00  0.00    +0.040 C 
ATOM      7  C   LIG    1       -3.236   3.062  -0.543  0.00  0.00    +0.110 C 
ATOM      8  C   LIG    1       -1.820   2.813  -1.071  0.00  0.00    +0.290 C 
ENDROOT
BRANCH   2   9
ATOM      9  C   LIG    1       -0.760  -0.706  -2.060  0.00  0.00    -0.140 A 
ATOM     10  C   LIG    1       -0.080  -1.194  -0.942  0.00  0.00    +0.040 A 
ATOM     11  C   LIG    1        0.265  -2.528  -0.875  0.00  0.00    +0.090 A 
ATOM     12  C   LIG    1       -0.060  -3.387  -1.914  0.00  0.00    +0.040 A 
ATOM     13  C   LIG    1       -0.733  -2.916  -3.024  0.00  0.00    +0.030 A 
ATOM     14  F   LIG    1        0.922  -3.000   0.207  0.00  0.00    -0.130 F 
ATOM     15  C   LIG    1       -1.091  -1.579  -3.105  0.00  0.00    +0.160 A 
BRANCH  15  16
ATOM     16  O   LIG    1       -1.756  -1.117  -4.194  0.00  0.00    -0.480 OA
ATOM     17  H   LIG    1       -1.179  -0.803  -4.903  0.00  0.00    +0.400 HD
ENDBRANCH  15  16
ENDBRANCH   2   9
BRANCH   7  18
ATOM     18  C   LIG    1       -3.484   4.546  -0.449  0.00  0.00    +0.200 A 
ATOM     19  N   LIG    1       -4.616   5.156  -0.675  0.00  0.00    -0.280 NA
ATOM     20  N   LIG    1       -4.476   6.423  -0.502  0.00  0.00    -0.270 NA
ATOM     21  C   LIG    1       -3.235   6.689  -0.161  0.00  0.00    +0.230 A 
ATOM     22  N   LIG    1       -2.567   5.496  -0.118  0.00  0.00    -0.580 N 
ATOM     23  H   LIG    1       -1.633   5.356   0.103  0.00  0.00    +0.430 HD
BRANCH  21  24
ATOM     24  C   LIG    1       -2.669   8.026   0.122  0.00  0.00    -0.020 A 
ATOM     25  C   LIG    1       -1.327   8.156   0.481  0.00  0.00    +0.010 A 
ATOM     26  C   LIG    1       -0.803   9.406   0.739  0.00  0.00    +0.010 A 
ATOM     27  C   LIG    1       -1.608  10.528   0.653  0.00  0.00    +0.030 A 
ATOM     28  C   LIG    1       -2.941  10.405   0.303  0.00  0.00    +0.010 A 
ATOM     29  C   LIG    1       -3.475   9.161   0.038  0.00  0.00    +0.070 A 
ENDBRANCH  21  24
ENDBRANCH   7  18
TORSDOF 4
