REMARK  Name = ZINCtV000002Os7r.0
REMARK                            x       y       z     vdW  Elec       q    Type
REMARK                         _______ _______ _______ _____ _____    ______ ____
ROOT
ATOM      1  O   LIG    1        2.422   0.276   0.428  0.00  0.00    -0.510 OA
ATOM      2  C   LIG    1        1.523  -0.527   0.277  0.00  0.00    +0.560 C 
ATOM      3  N   LIG    1        0.267  -0.097   0.046  0.00  0.00    -0.670 N 
ATOM      4  H   LIG    1       -0.462  -0.734  -0.008  0.00  0.00    +0.410 HD
ENDROOT
BRANCH   2   5
ATOM      5  C   LIG    1        1.806  -1.976   0.346  0.00  0.00    -0.120 A 
ATOM      6  C   LIG    1        0.775  -2.901   0.178  0.00  0.00    +0.050 A 
ATOM      7  C   LIG    1        1.047  -4.252   0.238  0.00  0.00    +0.050 A 
ATOM      8  C   LIG    1        2.338  -4.691   0.475  0.00  0.00    -0.040 A 
ATOM      9  C   LIG    1        3.364  -3.779   0.648  0.00  0.00    +0.040 A 
ATOM     10  C   LIG    1        3.106  -2.425   0.585  0.00  0.00    +0.090 A 
BRANCH   8  11
ATOM     11  C   LIG    1        2.627  -6.168   0.546  0.00  0.00    +0.120 C 
ATOM     12  S   LIG    1        2.174  -6.951  -1.029  0.00  0.00    -0.210 S 
ATOM     13  C   LIG    1        2.510  -8.706  -0.718  0.00  0.00    +0.110 C 
ATOM     14  C   LIG    1        1.615  -9.221   0.403  0.00  0.00    +0.060 C 
ATOM     15  C   LIG    1        2.069  -8.675   1.752  0.00  0.00    +0.110 C 
ATOM     16  S   LIG    1        1.653  -6.915   1.883  0.00  0.00    -0.210 S 
ENDBRANCH   8  11
ENDBRANCH   2   5
BRANCH   3  17
ATOM     17  C   LIG    1        0.014   1.270  -0.116  0.00  0.00    +0.130 A 
ATOM     18  C   LIG    1       -0.960   1.695  -1.012  0.00  0.00    +0.020 A 
ATOM     19  C   LIG    1       -1.214   3.045  -1.175  0.00  0.00    +0.030 A 
ATOM     20  C   LIG    1       -0.502   3.978  -0.450  0.00  0.00    +0.050 A 
ATOM     21  C   LIG    1        0.479   3.561   0.453  0.00  0.00    -0.140 A 
ATOM     22  C   LIG    1        0.731   2.199   0.622  0.00  0.00    +0.090 A 
BRANCH  21  23
ATOM     23  C   LIG    1        1.243   4.558   1.231  0.00  0.00    +0.440 C 
ATOM     24  O   LIG    1        1.833   4.221   2.238  0.00  0.00    -0.440 OA
BRANCH  23  25
ATOM     25  C   LIG    1        1.289   5.966   0.784  0.00  0.00    -0.160 A 
ATOM     26  C   LIG    1        1.110   6.280  -0.565  0.00  0.00    +0.060 A 
ATOM     27  C   LIG    1        1.149   7.596  -0.975  0.00  0.00    +0.000 A 
ATOM     28  C   LIG    1        1.376   8.604  -0.054  0.00  0.00    +0.040 A 
ATOM     29  C   LIG    1        1.561   8.300   1.283  0.00  0.00    +0.000 A 
ATOM     30  C   LIG    1        1.519   6.988   1.708  0.00  0.00    +0.070 A 
ENDBRANCH  23  25
ENDBRANCH  21  23
ENDBRANCH   3  17
TORSDOF 5
