REMARK  Name = ZINCpk00000eb3fn.0
REMARK                            x       y       z     vdW  Elec       q    Type
REMARK                         _______ _______ _______ _____ _____    ______ ____
ROOT
ATOM      1  C   LIG    1       -3.143  -0.019  -1.428  0.00  0.00    +0.520 C 
ATOM      2  N   LIG    1       -3.018  -0.615  -2.631  0.00  0.00    -0.610 N 
ATOM      3  C   LIG    1       -2.631   0.174  -3.803  0.00  0.00    +0.290 C 
ATOM      4  O   LIG    1       -3.463  -0.673  -0.458  0.00  0.00    -0.520 OA
ENDROOT
BRANCH   1   5
ATOM      5  C   LIG    1       -2.885   1.459  -1.289  0.00  0.00    +0.140 C 
BRANCH   5   9
ATOM      6  C   LIG    1       -0.205   0.537   0.139  0.00  0.00    +0.090 C 
ATOM      7  C   LIG    1       -0.877   1.117   1.356  0.00  0.00    -0.030 A 
ATOM      8  C   LIG    1       -2.149   1.682   1.251  0.00  0.00    -0.090 A 
ATOM      9  C   LIG    1       -3.091   1.872   0.145  0.00  0.00    -0.160 A 
ATOM     10  C   LIG    1       -4.173   2.485   0.652  0.00  0.00    +0.230 A 
ATOM     11  N   LIG    1       -4.006   2.692   1.994  0.00  0.00    -0.590 N 
ATOM     12  H   LIG    1       -4.653   3.119   2.577  0.00  0.00    +0.420 HD
ATOM     13  C   LIG    1       -2.775   2.219   2.391  0.00  0.00    +0.100 A 
ATOM     14  C   LIG    1       -2.110   2.188   3.612  0.00  0.00    -0.020 A 
ATOM     15  C   LIG    1       -0.852   1.630   3.692  0.00  0.00    +0.020 A 
ATOM     16  C   LIG    1       -0.241   1.098   2.565  0.00  0.00    -0.030 A 
ENDBRANCH   5   9
ENDBRANCH   1   5
BRANCH   2  17
ATOM     17  C   LIG    1       -3.269  -2.052  -2.765  0.00  0.00    +0.320 C 
BRANCH  17  18
ATOM     18  C   LIG    1       -4.724  -2.280  -3.085  0.00  0.00    +0.500 C 
ATOM     19  N   LIG    1       -5.189  -3.534  -3.255  0.00  0.00    -0.620 N 
ATOM     20  C   LIG    1       -4.287  -4.688  -3.137  0.00  0.00    +0.280 C 
ATOM     21  C   LIG    1       -4.403  -5.540  -4.400  0.00  0.00    -0.010 C 
ATOM     22  C   LIG    1       -5.870  -5.909  -4.631  0.00  0.00    +0.160 C 
ATOM     23  C   LIG    1       -6.693  -4.634  -4.830  0.00  0.00    +0.020 C 
ATOM     24  C   LIG    1       -6.604  -3.772  -3.567  0.00  0.00    +0.280 C 
ATOM     25  O   LIG    1       -5.477  -1.335  -3.190  0.00  0.00    -0.530 OA
BRANCH  22  26
ATOM     26  O   LIG    1       -5.976  -6.730  -5.796  0.00  0.00    -0.570 OA
ATOM     27  H   LIG    1       -5.478  -7.557  -5.740  0.00  0.00    +0.380 HD
ENDBRANCH  22  26
ENDBRANCH  17  18
ENDBRANCH   2  17
TORSDOF 5
