REMARK  Name = ZINCqH0000007eG9.1
REMARK                            x       y       z     vdW  Elec       q    Type
REMARK                         _______ _______ _______ _____ _____    ______ ____
ROOT
ATOM      1  C   LIG    1       -1.310   2.116   0.020  0.00  0.00    +0.280 A 
ATOM      2  N   LIG    1       -1.451   3.422   0.033  0.00  0.00    -0.260 NA
ATOM      3  N   LIG    1       -2.831   3.684   0.036  0.00  0.00    -0.460 N 
ATOM      4  H   LIG    1       -3.256   4.555   0.043  0.00  0.00    +0.450 HD
ATOM      5  C   LIG    1       -3.449   2.482   0.032  0.00  0.00    +0.250 A 
ATOM      6  N   LIG    1       -2.524   1.547   0.022  0.00  0.00    -0.530 NA
ENDROOT
BRANCH   1  13
ATOM      7  C   LIG    1        1.188   2.098   0.002  0.00  0.00    +0.170 A 
ATOM      8  C   LIG    1        2.391   1.411  -0.013  0.00  0.00    -0.050 A 
ATOM      9  C   LIG    1        2.400   0.029  -0.020  0.00  0.00    +0.090 A 
ATOM     10  C   LIG    1        1.209  -0.677  -0.013  0.00  0.00    -0.080 A 
ATOM     11  C   LIG    1        0.002  -0.004   0.002  0.00  0.00    +0.120 A 
ATOM     12 CL   LIG    1        1.231  -2.413  -0.023  0.00  0.00    -0.060 Cl
ATOM     13  C   LIG    1       -0.017   1.388   0.010  0.00  0.00    -0.040 A 
BRANCH   7  15
ATOM     14  C   LIG    1        2.448   4.114   0.000  0.00  0.00    +0.240 C 
ATOM     15  O   LIG    1        1.179   3.457   0.009  0.00  0.00    -0.290 OA
ENDBRANCH   7  15
ENDBRANCH   1  13
BRANCH   5  16
ATOM     16  S   LIG    1       -5.191   2.214   0.039  0.00  0.00    +0.090 S 
BRANCH  16  17
ATOM     17  C   LIG    1       -5.231   0.405   0.028  0.00  0.00    +0.110 C 
BRANCH  17  18
ATOM     18  C   LIG    1       -6.662  -0.066   0.032  0.00  0.00    +0.530 C 
ATOM     19  N   LIG    1       -6.938  -1.385   0.026  0.00  0.00    -0.600 N 
ATOM     20  C   LIG    1       -5.853  -2.377   0.008  0.00  0.00    +0.270 C 
ATOM     21  C   LIG    1       -6.064  -3.352   1.176  0.00  0.00    -0.020 C 
ATOM     22  C   LIG    1       -7.467  -3.955   1.083  0.00  0.00    +0.030 C 
ATOM     23  C   LIG    1       -8.511  -2.841   1.192  0.00  0.00    -0.030 C 
ATOM     24  C   LIG    1       -9.915  -3.448   1.132  0.00  0.00    +0.030 C 
ATOM     25  C   LIG    1       -5.916  -2.606   2.503  0.00  0.00    +0.030 C 
ATOM     26  C   LIG    1       -8.328  -1.860   0.030  0.00  0.00    +0.280 C 
ATOM     27  O   LIG    1       -7.567   0.742   0.042  0.00  0.00    -0.530 OA
ENDBRANCH  17  18
ENDBRANCH  16  17
ENDBRANCH   5  16
TORSDOF 5
