REMARK  Name = ZINCqH0000007eG9.0
REMARK                            x       y       z     vdW  Elec       q    Type
REMARK                         _______ _______ _______ _____ _____    ______ ____
ROOT
ATOM      1  C   LIG    1        1.170   3.566   0.010  0.00  0.00    +0.350 A 
ATOM      2  N   LIG    1        2.229   4.352   0.003  0.00  0.00    -0.480 NA
ATOM      3  C   LIG    1        1.842   5.629   0.013  0.00  0.00    +0.190 A 
ATOM      4  N   LIG    1        0.529   5.679   0.026  0.00  0.00    -0.320 NA
ATOM      5  N   LIG    1        0.069   4.352   0.018  0.00  0.00    -0.470 N 
ATOM      6  H   LIG    1       -0.855   4.058   0.021  0.00  0.00    +0.440 HD
ENDROOT
BRANCH   1  13
ATOM      7  C   LIG    1        2.400   1.395  -0.013  0.00  0.00    +0.190 A 
ATOM      8  C   LIG    1        2.402   0.010  -0.021  0.00  0.00    -0.050 A 
ATOM      9  C   LIG    1        1.208  -0.685  -0.013  0.00  0.00    +0.100 A 
ATOM     10  C   LIG    1        0.002  -0.004   0.002  0.00  0.00    -0.080 A 
ATOM     11  C   LIG    1       -0.017   1.377   0.010  0.00  0.00    +0.090 A 
ATOM     12 CL   LIG    1       -1.491  -0.889   0.012  0.00  0.00    -0.060 Cl
ATOM     13  C   LIG    1        1.183   2.088   0.002  0.00  0.00    -0.070 A 
BRANCH   7  15
ATOM     14  C   LIG    1        4.774   1.306  -0.036  0.00  0.00    +0.250 C 
ATOM     15  O   LIG    1        3.573   2.079  -0.021  0.00  0.00    -0.270 OA
ENDBRANCH   7  15
ENDBRANCH   1  13
BRANCH   3  16
ATOM     16  S   LIG    1        2.918   7.024   0.009  0.00  0.00    +0.110 S 
BRANCH  16  17
ATOM     17  C   LIG    1        1.768   8.427   0.028  0.00  0.00    +0.080 C 
BRANCH  17  18
ATOM     18  C   LIG    1        2.548   9.716   0.026  0.00  0.00    +0.540 C 
ATOM     19  N   LIG    1        1.899  10.897   0.038  0.00  0.00    -0.600 N 
ATOM     20  C   LIG    1        0.430  10.943   0.048  0.00  0.00    +0.280 C 
ATOM     21  C   LIG    1       -0.024  11.814   1.230  0.00  0.00    -0.020 C 
ATOM     22  C   LIG    1        0.648  13.185   1.133  0.00  0.00    +0.030 C 
ATOM     23  C   LIG    1        2.167  13.019   1.213  0.00  0.00    -0.030 C 
ATOM     24  C   LIG    1        2.836  14.393   1.150  0.00  0.00    +0.030 C 
ATOM     25  C   LIG    1        0.374  11.142   2.546  0.00  0.00    +0.020 C 
ATOM     26  C   LIG    1        2.646  12.162   0.037  0.00  0.00    +0.290 C 
ATOM     27  O   LIG    1        3.761   9.691   0.013  0.00  0.00    -0.520 OA
ENDBRANCH  17  18
ENDBRANCH  16  17
ENDBRANCH   3  16
TORSDOF 5
