REMARK  Name = ZINCqH0000037b5X.0
REMARK                            x       y       z     vdW  Elec       q    Type
REMARK                         _______ _______ _______ _____ _____    ______ ____
ROOT
ATOM      1  N   LIG    1       -0.855   1.310  -1.169  0.00  0.00    -0.730 N 
ATOM      2  H   LIG    1       -1.575   1.959  -1.134  0.00  0.00    +0.400 HD
ATOM      3  C   LIG    1       -0.630   0.615  -2.302  0.00  0.00    +0.520 C 
ATOM      4  O   LIG    1        0.270  -0.197  -2.346  0.00  0.00    -0.510 OA
ENDROOT
BRANCH   1   6
ATOM      5  C   LIG    1        1.221   1.988  -0.068  0.00  0.00    +0.040 C 
ATOM      6  C   LIG    1       -0.013   1.086   0.008  0.00  0.00    +0.290 C 
BRANCH   6   7
ATOM      7  C   LIG    1       -0.795   1.409   1.255  0.00  0.00    -0.080 A 
ATOM      8  C   LIG    1       -1.826   2.328   1.204  0.00  0.00    +0.050 A 
ATOM      9  C   LIG    1       -2.545   2.624   2.348  0.00  0.00    +0.040 A 
ATOM     10  C   LIG    1       -2.232   2.001   3.543  0.00  0.00    -0.030 A 
ATOM     11  C   LIG    1       -1.200   1.081   3.593  0.00  0.00    +0.050 A 
ATOM     12 CL   LIG    1       -3.135   2.374   4.978  0.00  0.00    -0.050 Cl
ATOM     13  C   LIG    1       -0.485   0.781   2.448  0.00  0.00    -0.020 A 
ATOM     14 CL   LIG    1        0.805  -0.379   2.510  0.00  0.00    -0.040 Cl
ENDBRANCH   6   7
ENDBRANCH   1   6
BRANCH   3  15
ATOM     15  C   LIG    1       -1.496   0.846  -3.513  0.00  0.00    +0.210 C 
BRANCH  15  16
ATOM     16  N   LIG    1       -1.051  -0.027  -4.607  0.00  0.00    -0.510 NA
ATOM     17  C   LIG    1       -1.362  -1.439  -4.317  0.00  0.00    +0.200 C 
ATOM     18  C   LIG    1       -2.226  -1.965  -5.483  0.00  0.00    -0.010 C 
ATOM     19  C   LIG    1       -1.882  -0.991  -6.641  0.00  0.00    +0.170 C 
ATOM     20  C   LIG    1       -1.702   0.347  -5.881  0.00  0.00    +0.220 C 
BRANCH  19  21
ATOM     21  O   LIG    1       -2.959  -0.908  -7.576  0.00  0.00    -0.300 OA
BRANCH  21  22
ATOM     22  C   LIG    1       -2.931  -1.768  -8.626  0.00  0.00    +0.170 A 
ATOM     23  C   LIG    1       -1.890  -2.682  -8.773  0.00  0.00    -0.120 A 
ATOM     24  C   LIG    1       -1.902  -3.544  -9.850  0.00  0.00    +0.300 A 
ATOM     25  N   LIG    1       -2.876  -3.502 -10.739  0.00  0.00    -0.510 NA
ATOM     26  C   LIG    1       -3.876  -2.647 -10.637  0.00  0.00    +0.290 A 
ATOM     27  C   LIG    1       -3.940  -1.756  -9.585  0.00  0.00    -0.070 A 
ENDBRANCH  21  22
ENDBRANCH  19  21
ENDBRANCH  15  16
ENDBRANCH   3  15
TORSDOF 6
