REMARK  Name = ZINCpk00000xIgkH.0
REMARK                            x       y       z     vdW  Elec       q    Type
REMARK                         _______ _______ _______ _____ _____    ______ ____
ROOT
ATOM      1  N   LIG    1        0.446   8.912   0.799  0.00  0.00    -0.280 N 
ATOM      2  N   LIG    1        0.023  10.125   0.910  0.00  0.00    -0.250 NA
ATOM      3  C   LIG    1        0.293  10.807  -0.161  0.00  0.00    +0.000 A 
ATOM      4  C   LIG    1        0.961   9.953  -1.053  0.00  0.00    -0.150 A 
ATOM      5  C   LIG    1        1.422  10.393  -2.416  0.00  0.00    +0.100 C 
ATOM      6  C   LIG    1        0.712  11.717  -2.740  0.00  0.00    +0.150 C 
ATOM      7  O   LIG    1        0.812  12.606  -1.625  0.00  0.00    -0.370 OA
ATOM      8  C   LIG    1        1.367  12.360  -3.964  0.00  0.00    +0.060 C 
ATOM      9  C   LIG    1        0.003  12.249  -0.495  0.00  0.00    +0.260 C 
ATOM     10  C   LIG    1        0.357  13.139   0.698  0.00  0.00    +0.070 C 
ATOM     11  C   LIG    1        1.046   8.742  -0.422  0.00  0.00    -0.020 A 
ENDROOT
BRANCH  11  12
ATOM     12  C   LIG    1        1.660   7.511  -0.944  0.00  0.00    +0.600 C 
ATOM     13  N   LIG    1        0.902   6.597  -1.582  0.00  0.00    -0.700 N 
ATOM     14  H   LIG    1       -0.060   6.714  -1.631  0.00  0.00    +0.400 HD
ATOM     15  O   LIG    1        2.852   7.317  -0.800  0.00  0.00    -0.510 OA
BRANCH  13  16
ATOM     16  C   LIG    1        1.530   5.428  -2.202  0.00  0.00    +0.230 C 
ATOM     17  C   LIG    1        0.586   4.222  -2.340  0.00  0.00    +0.040 C 
ATOM     18  C   LIG    1        0.180   4.796  -3.708  0.00  0.00    -0.020 C 
ATOM     19  C   LIG    1        1.555   5.484  -3.739  0.00  0.00    +0.020 C 
BRANCH  18  20
ATOM     20  C   LIG    1        0.004   3.731  -4.792  0.00  0.00    +0.030 C 
BRANCH  20  21
ATOM     21  C   LIG    1       -0.517   4.387  -6.072  0.00  0.00    +0.170 C 
BRANCH  21  22
ATOM     22  O   LIG    1       -0.682   3.392  -7.084  0.00  0.00    -0.580 OA
ATOM     23  H   LIG    1       -1.010   3.737  -7.926  0.00  0.00    +0.380 HD
ENDBRANCH  21  22
ENDBRANCH  20  21
ENDBRANCH  18  20
ENDBRANCH  13  16
ENDBRANCH  11  12
BRANCH   1  24
ATOM     24  C   LIG    1        0.308   7.874   1.823  0.00  0.00    +0.350 C 
BRANCH  24  25
ATOM     25  C   LIG    1        1.462   7.986   2.822  0.00  0.00    +0.170 C 
BRANCH  25  27
ATOM     26  C   LIG    1        2.360   6.990   4.808  0.00  0.00    +0.220 C 
ATOM     27  O   LIG    1        1.327   6.973   3.821  0.00  0.00    -0.390 OA
ENDBRANCH  25  27
ENDBRANCH  24  25
ENDBRANCH   1  24
TORSDOF 8
