REMARK  Name = ZINCrg000000tSdA.0
REMARK                            x       y       z     vdW  Elec       q    Type
REMARK                         _______ _______ _______ _____ _____    ______ ____
ROOT
ATOM      1  C   LIG    1        1.658   3.138  -0.833  0.00  0.00    +0.180 A 
ATOM      2  N   LIG    1        1.388   3.266  -2.098  0.00  0.00    -0.360 NA
ATOM      3  O   LIG    1        1.654   4.389  -2.472  0.00  0.00    +0.100 OA
ATOM      4  C   LIG    1        2.135   5.104  -1.451  0.00  0.00    +0.150 A 
ATOM      5  N   LIG    1        2.137   4.318  -0.402  0.00  0.00    -0.440 NA
ENDROOT
BRANCH   1   9
ATOM      6  O   LIG    1        1.489  -1.648  -0.478  0.00  0.00    -0.520 OA
ATOM      7  C   LIG    1        1.203  -0.474  -0.379  0.00  0.00    +0.520 C 
ATOM      8  C   LIG    1        2.144   0.675  -0.664  0.00  0.00    +0.070 C 
ATOM      9  C   LIG    1        1.465   1.896  -0.002  0.00  0.00    +0.120 C 
ATOM     10  C   LIG    1       -0.018   1.463   0.010  0.00  0.00    +0.290 C 
ATOM     11  N   LIG    1        0.002  -0.004   0.002  0.00  0.00    -0.610 N 
BRANCH  11  12
ATOM     12  C   LIG    1       -1.140  -0.848   0.362  0.00  0.00    +0.310 C 
BRANCH  12  13
ATOM     13  C   LIG    1       -1.972  -1.140  -0.888  0.00  0.00    -0.040 C 
ATOM     14  C   LIG    1       -3.041  -0.074  -1.179  0.00  0.00    -0.000 C 
ATOM     15  C   LIG    1       -3.977  -1.231  -1.567  0.00  0.00    +0.010 C 
ATOM     16  C   LIG    1       -3.130  -2.122  -0.642  0.00  0.00    +0.020 C 
ENDBRANCH  12  13
ENDBRANCH  11  12
ENDBRANCH   1   9
BRANCH   4  17
ATOM     17  C   LIG    1        2.584   6.542  -1.496  0.00  0.00    +0.550 C 
BRANCH  17  18
ATOM     18  N   LIG    1        4.011   6.598  -1.825  0.00  0.00    -0.440 N 
ATOM     19  N   LIG    1        5.073   6.584  -0.911  0.00  0.00    -0.280 NA
ATOM     20  C   LIG    1        6.193   6.648  -1.593  0.00  0.00    +0.300 A 
ATOM     21  C   LIG    1        7.551   6.666  -1.188  0.00  0.00    +0.030 A 
ATOM     22  C   LIG    1        8.524   6.738  -2.129  0.00  0.00    +0.110 A 
ATOM     23  C   LIG    1        8.177   6.794  -3.494  0.00  0.00    -0.020 A 
ATOM     24  C   LIG    1        6.887   6.777  -3.874  0.00  0.00    +0.300 A 
ATOM     25  N   LIG    1        5.882   6.704  -2.939  0.00  0.00    -0.480 N 
ATOM     26  C   LIG    1        4.540   6.668  -3.064  0.00  0.00    +0.650 A 
ATOM     27  O   LIG    1        3.916   6.695  -4.111  0.00  0.00    -0.520 OA
ENDBRANCH  17  18
ENDBRANCH   4  17
TORSDOF 5
