REMARK  Name = ZINCkj000005kQpA.0
REMARK                            x       y       z     vdW  Elec       q    Type
REMARK                         _______ _______ _______ _____ _____    ______ ____
ROOT
ATOM      1  N   LIG    1        0.763   1.792   1.629  0.00  0.00    -0.660 N 
ATOM      2  H   LIG    1        0.816   2.751   1.494  0.00  0.00    +0.410 HD
ATOM      3  C   LIG    1       -0.402   1.145   1.428  0.00  0.00    +0.720 C 
ATOM      4  N   LIG    1       -1.515   1.842   1.123  0.00  0.00    -0.640 N 
ATOM      5  C   LIG    1       -1.461   3.295   0.903  0.00  0.00    +0.310 C 
ATOM      6  C   LIG    1       -2.166   3.607  -0.426  0.00  0.00    +0.270 C 
ATOM      7  N   LIG    1       -3.524   3.049  -0.399  0.00  0.00    -0.380 N 
ATOM      8  C   LIG    1       -3.461   1.584  -0.322  0.00  0.00    +0.270 C 
ATOM      9  H   LIG    1       -4.017   3.406   0.405  0.00  0.00    +0.430 HD
ATOM     10  C   LIG    1       -2.819   1.171   1.006  0.00  0.00    +0.350 C 
ATOM     11  O   LIG    1       -0.448  -0.067   1.516  0.00  0.00    -0.540 OA
ENDROOT
BRANCH   1  18
ATOM     12  C   LIG    1        3.111   3.247   2.421  0.00  0.00    +0.150 C 
ATOM     13  C   LIG    1        3.058   1.741   2.426  0.00  0.00    +0.040 A 
ATOM     14  N   LIG    1        4.110   1.043   2.802  0.00  0.00    -0.220 NA
ATOM     15  N   LIG    1        4.110  -0.239   2.821  0.00  0.00    -0.250 NA
ATOM     16  C   LIG    1        3.057  -0.952   2.466  0.00  0.00    +0.240 A 
ATOM     17  C   LIG    1        1.898  -0.315   2.060  0.00  0.00    +0.040 A 
ATOM     18  C   LIG    1        1.895   1.081   2.032  0.00  0.00    +0.150 A 
ENDBRANCH   1  18
BRANCH   7  19
ATOM     19  C   LIG    1       -4.236   3.443  -1.622  0.00  0.00    +0.300 C 
BRANCH  19  20
ATOM     20  C   LIG    1       -3.438   2.987  -2.846  0.00  0.00    -0.100 C 
ATOM     21  C   LIG    1       -2.850   4.071  -3.751  0.00  0.00    +0.050 C 
ATOM     22  C   LIG    1       -4.049   3.247  -4.224  0.00  0.00    +0.070 C 
ENDBRANCH  19  20
ENDBRANCH   7  19
TORSDOF 3
