REMARK  Name = ZINCrD000000fR90.0
REMARK                            x       y       z     vdW  Elec       q    Type
REMARK                         _______ _______ _______ _____ _____    ______ ____
ROOT
ATOM      1  C   LIG    1        4.141  -0.163  -5.987  0.00  0.00    +0.110 C 
ENDROOT
BRANCH   1   4
ATOM      2  N   LIG    1        4.942  -0.377  -8.317  0.00  0.00    -0.670 N 
ATOM      3  H   LIG    1        5.318   0.513  -8.238  0.00  0.00    +0.420 HD
ATOM      4  C   LIG    1        4.246  -0.908  -7.292  0.00  0.00    +0.530 C 
ATOM      5  O   LIG    1        3.705  -1.986  -7.421  0.00  0.00    -0.500 OA
BRANCH   2  10
ATOM      6  C   LIG    1        4.299  -2.678 -11.127  0.00  0.00    -0.150 A 
ATOM      7  C   LIG    1        5.497  -2.556 -11.839  0.00  0.00    +0.060 A 
ATOM      8  C   LIG    1        6.491  -1.719 -11.376  0.00  0.00    +0.030 A 
ATOM      9  C   LIG    1        6.306  -0.993 -10.214  0.00  0.00    +0.020 A 
ATOM     10  C   LIG    1        5.121  -1.111  -9.496  0.00  0.00    +0.130 A 
ATOM     11  C   LIG    1        4.115  -1.948  -9.950  0.00  0.00    +0.090 A 
BRANCH   6  13
ATOM     12  C   LIG    1        3.438  -4.356 -12.888  0.00  0.00    +0.070 C 
ATOM     13  C   LIG    1        3.237  -3.571 -11.617  0.00  0.00    +0.390 C 
ATOM     14  O   LIG    1        2.199  -3.675 -10.999  0.00  0.00    -0.450 OA
ENDBRANCH   6  13
ENDBRANCH   2  10
ENDBRANCH   1   4
BRANCH   1  15
ATOM     15  S   LIG    1        3.151  -1.129  -4.819  0.00  0.00    +0.090 S 
BRANCH  15  16
ATOM     16  C   LIG    1        3.191  -0.055  -3.423  0.00  0.00    +0.140 A 
ATOM     17  N   LIG    1        3.800   1.106  -3.348  0.00  0.00    -0.290 NA
ATOM     18  N   LIG    1        3.622   1.618  -2.183  0.00  0.00    -0.280 NA
ATOM     19  C   LIG    1        2.895   0.822  -1.450  0.00  0.00    +0.200 A 
ATOM     20  N   LIG    1        2.599  -0.275  -2.212  0.00  0.00    -0.460 N 
ATOM     21  C   LIG    1        1.808  -1.441  -1.813  0.00  0.00    +0.360 C 
BRANCH  19  22
ATOM     22  C   LIG    1        2.466   1.062  -0.026  0.00  0.00    +0.210 C 
BRANCH  22  23
ATOM     23  C   LIG    1        1.146   1.789  -0.014  0.00  0.00    -0.090 A 
ATOM     24  C   LIG    1       -0.036   1.074  -0.006  0.00  0.00    +0.010 A 
ATOM     25  C   LIG    1       -1.247   1.740  -0.001  0.00  0.00    +0.000 A 
ATOM     26  C   LIG    1       -1.275   3.122   0.006  0.00  0.00    +0.000 A 
ATOM     27  C   LIG    1       -0.092   3.838  -0.002  0.00  0.00    +0.010 A 
ATOM     28  C   LIG    1        1.118   3.171  -0.012  0.00  0.00    +0.030 A 
ENDBRANCH  22  23
ENDBRANCH  19  22
ENDBRANCH  15  16
ENDBRANCH   1  15
TORSDOF 7
