REMARK  Name = ZINCpk00000xLf6G.0
REMARK                            x       y       z     vdW  Elec       q    Type
REMARK                         _______ _______ _______ _____ _____    ______ ____
ROOT
ATOM      1  C   LIG    1       -0.001   1.258   0.060  0.00  0.00    +0.580 C 
ATOM      2  N   LIG    1        1.175   1.914   0.123  0.00  0.00    -0.610 N 
ATOM      3  C   LIG    1        1.342   3.375   0.120  0.00  0.00    +0.250 C 
ATOM      4  C   LIG    1        2.854   3.663   0.236  0.00  0.00    +0.050 C 
ATOM      5  C   LIG    1        3.413   2.356   0.858  0.00  0.00    +0.140 C 
ATOM      6  C   LIG    1        2.507   1.286   0.199  0.00  0.00    +0.280 C 
ATOM      7  O   LIG    1       -0.016   0.046  -0.030  0.00  0.00    -0.530 OA
ENDROOT
BRANCH   1  12
ATOM      8  C   LIG    1       -3.672   2.048   0.224  0.00  0.00    +0.120 A 
ATOM      9  C   LIG    1       -3.651   3.434   0.156  0.00  0.00    -0.050 A 
ATOM     10  C   LIG    1       -2.448   4.108   0.058  0.00  0.00    +0.040 A 
ATOM     11  C   LIG    1       -1.260   3.407   0.026  0.00  0.00    +0.000 A 
ATOM     12  C   LIG    1       -1.271   2.013   0.093  0.00  0.00    -0.090 A 
ATOM     13  C   LIG    1       -2.486   1.334   0.187  0.00  0.00    +0.050 A 
BRANCH   8  15
ATOM     14  C   LIG    1       -6.043   2.190   0.346  0.00  0.00    +0.250 C 
ATOM     15  O   LIG    1       -4.858   1.391   0.320  0.00  0.00    -0.310 OA
ENDBRANCH   8  15
ENDBRANCH   1  12
BRANCH   5  16
ATOM     16  N   LIG    1        4.820   2.156   0.486  0.00  0.00    -0.520 NA
ATOM     17  C   LIG    1        5.237   0.769   0.731  0.00  0.00    +0.200 C 
BRANCH  16  18
ATOM     18  C   LIG    1        5.691   3.101   1.197  0.00  0.00    +0.290 C 
BRANCH  18  19
ATOM     19  C   LIG    1        7.081   3.036   0.617  0.00  0.00    +0.370 A 
ATOM     20  N   LIG    1        7.950   2.189   1.129  0.00  0.00    -0.560 NA
ATOM     21  C   LIG    1        9.181   2.097   0.645  0.00  0.00    +0.350 A 
ATOM     22  C   LIG    1        9.554   2.912  -0.406  0.00  0.00    -0.160 A 
ATOM     23  C   LIG    1        8.611   3.803  -0.921  0.00  0.00    +0.440 A 
ATOM     24  N   LIG    1        7.394   3.833  -0.386  0.00  0.00    -0.560 NA
BRANCH  23  25
ATOM     25  N   LIG    1        8.937   4.641  -1.975  0.00  0.00    -0.840 N 
ATOM     26  H   LIG    1        9.827   4.613  -2.360  0.00  0.00    +0.410 HD
ATOM     27  H   LIG    1        8.275   5.258  -2.327  0.00  0.00    +0.410 HD
ENDBRANCH  23  25
ENDBRANCH  18  19
ENDBRANCH  16  18
ENDBRANCH   5  16
TORSDOF 6
