REMARK  Name = ZINCpk00000eaTKB.0
REMARK                            x       y       z     vdW  Elec       q    Type
REMARK                         _______ _______ _______ _____ _____    ______ ____
ROOT
ATOM      1  C   LIG    1       -1.298   2.036   0.019  0.00  0.00    +0.550 C 
ATOM      2  O   LIG    1       -1.306   3.251   0.026  0.00  0.00    -0.490 OA
ENDROOT
BRANCH   1   3
ATOM      3  C   LIG    1       -0.016   1.307   0.009  0.00  0.00    +0.060 A 
ATOM      4  N   LIG    1        0.002  -0.004   0.002  0.00  0.00    -0.150 NA
ATOM      5  N   LIG    1        1.069  -0.710  -0.012  0.00  0.00    -0.450 N 
ATOM      6  H   LIG    1        0.981  -1.676  -0.016  0.00  0.00    +0.450 HD
ATOM      7  C   LIG    1        2.311  -0.182  -0.021  0.00  0.00    +0.520 A 
ATOM      8  C   LIG    1        2.451   1.280  -0.015  0.00  0.00    -0.140 A 
ATOM      9  C   LIG    1        3.685   1.921  -0.023  0.00  0.00    +0.100 A 
ATOM     10  C   LIG    1        3.730   3.300  -0.017  0.00  0.00    +0.030 A 
ATOM     11  C   LIG    1        2.561   4.048  -0.001  0.00  0.00    +0.060 A 
ATOM     12  C   LIG    1        1.328   3.431   0.008  0.00  0.00    +0.070 A 
ATOM     13  O   LIG    1        3.293  -0.902  -0.035  0.00  0.00    -0.490 OA
ATOM     14  C   LIG    1        1.259   2.043   0.001  0.00  0.00    -0.030 A 
ENDBRANCH   1   3
BRANCH   1  15
ATOM     15  O   LIG    1       -2.461   1.355   0.021  0.00  0.00    -0.310 OA
BRANCH  15  16
ATOM     16  C   LIG    1       -3.683   2.137   0.031  0.00  0.00    +0.210 C 
ATOM     17  C   LIG    1       -4.120   2.420  -1.408  0.00  0.00    +0.090 C 
BRANCH  16  20
ATOM     18  N   LIG    1       -5.997   1.902   0.875  0.00  0.00    -0.630 N 
ATOM     19  H   LIG    1       -6.185   2.781   0.511  0.00  0.00    +0.420 HD
ATOM     20  C   LIG    1       -4.766   1.368   0.743  0.00  0.00    +0.530 C 
ATOM     21  O   LIG    1       -4.531   0.268   1.196  0.00  0.00    -0.480 OA
BRANCH  18  25
ATOM     22  C   LIG    1       -8.565  -1.576   3.357  0.00  0.00    +0.190 C 
ATOM     23  C   LIG    1       -8.118  -0.340   2.621  0.00  0.00    -0.020 A 
ATOM     24  C   LIG    1       -6.886  -0.100   2.117  0.00  0.00    -0.040 A 
ATOM     25  C   LIG    1       -6.999   1.190   1.533  0.00  0.00    +0.250 A 
ATOM     26  N   LIG    1       -8.230   1.578   1.742  0.00  0.00    -0.390 NA
ATOM     27  O   LIG    1       -8.864   0.739   2.339  0.00  0.00    +0.100 OA
ENDBRANCH  18  25
ENDBRANCH  16  20
ENDBRANCH  15  16
ENDBRANCH   1  15
TORSDOF 5
