REMARK  Name = ZINCpk00000xI344.0
REMARK                            x       y       z     vdW  Elec       q    Type
REMARK                         _______ _______ _______ _____ _____    ______ ____
ROOT
ATOM      1  C   LIG    1        1.248   1.716  -0.001  0.00  0.00    +0.230 C 
ATOM      2  C   LIG    1        1.611   2.090  -1.440  0.00  0.00    +0.030 C 
ATOM      3  C   LIG    1        2.957   2.818  -1.448  0.00  0.00    +0.180 C 
ATOM      4  N   LIG    1        3.990   1.948  -0.873  0.00  0.00    -0.520 NA
ATOM      5  C   LIG    1        3.686   1.615   0.524  0.00  0.00    +0.180 C 
ATOM      6  C   LIG    1        2.363   0.849   0.591  0.00  0.00    +0.040 C 
ENDROOT
BRANCH   1   8
ATOM      7  C   LIG    1       -1.187   1.624   0.017  0.00  0.00    +0.600 C 
ATOM      8  N   LIG    1       -0.011   0.966   0.007  0.00  0.00    -0.720 N 
ATOM      9  H   LIG    1        0.002  -0.004   0.002  0.00  0.00    +0.400 HD
ATOM     10  O   LIG    1       -1.204   2.841   0.023  0.00  0.00    -0.520 OA
BRANCH   7  13
ATOM     11  C   LIG    1       -3.952   2.890   0.036  0.00  0.00    +0.170 C 
ATOM     12  C   LIG    1       -3.695   1.405   0.027  0.00  0.00    +0.150 A 
ATOM     13  C   LIG    1       -2.447   0.873   0.018  0.00  0.00    -0.300 A 
ATOM     14  S   LIG    1       -2.612  -0.881   0.002  0.00  0.00    +0.160 S 
ATOM     15  C   LIG    1       -4.315  -0.731   0.019  0.00  0.00    +0.260 A 
ATOM     16  N   LIG    1       -4.657   0.517   0.027  0.00  0.00    -0.480 NA
ENDBRANCH   7  13
ENDBRANCH   1   8
BRANCH   4  17
ATOM     17  C   LIG    1        5.320   2.561  -0.991  0.00  0.00    +0.220 C 
BRANCH  17  18
ATOM     18  C   LIG    1        5.699   2.664  -2.446  0.00  0.00    +0.530 C 
ATOM     19  N   LIG    1        6.885   3.198  -2.797  0.00  0.00    -0.610 N 
ATOM     20  C   LIG    1        7.806   3.679  -1.765  0.00  0.00    +0.290 C 
ATOM     21  O   LIG    1        4.936   2.265  -3.301  0.00  0.00    -0.500 OA
BRANCH  19  22
ATOM     22  C   LIG    1        7.254   3.298  -4.212  0.00  0.00    +0.280 C 
ATOM     23  C   LIG    1        6.227   4.162  -4.946  0.00  0.00    +0.080 C 
ATOM     24  C   LIG    1        7.280   1.899  -4.832  0.00  0.00    +0.080 C 
BRANCH  22  25
ATOM     25  C   LIG    1        8.586   3.912  -4.330  0.00  0.00    +0.200 C 
ATOM     26  N   LIG    1        9.614   4.386  -4.420  0.00  0.00    -0.400 NA
ENDBRANCH  22  25
ENDBRANCH  19  22
ENDBRANCH  17  18
ENDBRANCH   4  17
TORSDOF 6
