REMARK  Name = ZINCkj000005kLhw.1
REMARK                            x       y       z     vdW  Elec       q    Type
REMARK                         _______ _______ _______ _____ _____    ______ ____
ROOT
ATOM      1  C   LIG    1       -3.197   3.988  -3.126  0.00  0.00    +0.200 A 
ATOM      2  N   LIG    1       -2.414   3.538  -4.082  0.00  0.00    -0.330 NA
ATOM      3  N   LIG    1       -2.821   3.948  -5.229  0.00  0.00    -0.030 NA
ATOM      4  N   LIG    1       -3.870   4.685  -5.094  0.00  0.00    -0.050 NA
ATOM      5  N   LIG    1       -4.155   4.740  -3.718  0.00  0.00    -0.350 N 
ENDROOT
BRANCH   5   6
ATOM      6  C   LIG    1       -5.254   5.456  -3.065  0.00  0.00    +0.260 C 
ATOM      7  C   LIG    1       -6.593   4.933  -3.594  0.00  0.00    +0.020 C 
ATOM      8  C   LIG    1       -7.731   5.741  -2.967  0.00  0.00    +0.230 C 
ATOM      9  O   LIG    1       -7.552   7.127  -3.265  0.00  0.00    -0.370 OA
ATOM     10  C   LIG    1       -6.339   7.682  -2.753  0.00  0.00    +0.230 C 
ATOM     11  C   LIG    1       -5.144   6.953  -3.373  0.00  0.00    +0.020 C 
ENDBRANCH   5   6
BRANCH   1  12
ATOM     12  S   LIG    1       -3.028   3.678  -1.400  0.00  0.00    +0.080 S 
BRANCH  12  13
ATOM     13  C   LIG    1       -1.556   2.624  -1.413  0.00  0.00    +0.080 C 
BRANCH  13  14
ATOM     14  C   LIG    1       -1.207   2.218   0.020  0.00  0.00    +0.380 C 
BRANCH  14  21
ATOM     15  C   LIG    1        1.725   3.217   0.003  0.00  0.00    +0.240 C 
ATOM     16  C   LIG    1        1.268   1.782  -0.001  0.00  0.00    +0.320 C 
ATOM     17  N   LIG    1        2.047   0.735  -0.013  0.00  0.00    -0.480 N 
ATOM     18  C   LIG    1        1.296  -0.376  -0.012  0.00  0.00    +0.240 C 
ATOM     19  C   LIG    1        0.002  -0.004   0.002  0.00  0.00    +0.260 C 
ATOM     20  H   LIG    1        3.017   0.757  -0.022  0.00  0.00    +0.460 HD
ATOM     21  N   LIG    1       -0.017   1.365   0.009  0.00  0.00    -0.410 N 
ENDBRANCH  14  21
ENDBRANCH  13  14
ENDBRANCH  12  13
ENDBRANCH   1  12
TORSDOF 5
