REMARK  Name = ZINCtj00001n1jUM.1
REMARK                            x       y       z     vdW  Elec       q    Type
REMARK                         _______ _______ _______ _____ _____    ______ ____
ROOT
ATOM      1  N   LIG    1       -1.447   2.989   4.891  0.00  0.00    -0.720 N 
ATOM      2  H   LIG    1       -2.129   3.669   5.007  0.00  0.00    +0.400 HD
ATOM      3  C   LIG    1       -0.922   2.761   3.671  0.00  0.00    +0.510 C 
ATOM      4  O   LIG    1       -0.070   1.911   3.526  0.00  0.00    -0.520 OA
ENDROOT
BRANCH   1   9
ATOM      5  N   LIG    1       -0.781   2.219   8.484  0.00  0.00    -0.460 N 
ATOM      6  C   LIG    1       -1.551   0.974   8.602  0.00  0.00    +0.180 C 
ATOM      7  C   LIG    1       -1.327   0.114   7.356  0.00  0.00    +0.040 C 
ATOM      8  C   LIG    1       -1.770   0.895   6.116  0.00  0.00    +0.000 C 
ATOM      9  C   LIG    1       -0.988   2.209   6.043  0.00  0.00    +0.250 C 
ATOM     10  C   LIG    1       -1.221   3.009   7.327  0.00  0.00    +0.180 C 
BRANCH   5  14
ATOM     11  C   LIG    1       -2.551   4.728  12.339  0.00  0.00    +0.360 C 
ATOM     12  N   LIG    1       -1.637   4.091  11.387  0.00  0.00    -0.370 N 
ATOM     13  C   LIG    1       -1.997   3.398  10.274  0.00  0.00    +0.200 A 
ATOM     14  C   LIG    1       -0.859   2.974   9.670  0.00  0.00    -0.060 A 
ATOM     15  C   LIG    1        0.227   3.416  10.440  0.00  0.00    +0.260 A 
ATOM     16  N   LIG    1       -0.239   4.087  11.462  0.00  0.00    -0.290 NA
ENDBRANCH   5  14
ENDBRANCH   1   9
BRANCH   3  17
ATOM     17  C   LIG    1       -1.395   3.563   2.486  0.00  0.00    +0.220 C 
BRANCH  17  18
ATOM     18  N   LIG    1       -0.574   3.234   1.313  0.00  0.00    -0.520 NA
ATOM     19  C   LIG    1       -1.149   3.811   0.089  0.00  0.00    +0.220 C 
ATOM     20  C   LIG    1       -0.300   3.396  -1.114  0.00  0.00    +0.280 C 
ATOM     21  N   LIG    1        1.078   3.871  -0.929  0.00  0.00    -0.390 N 
ATOM     22  C   LIG    1        1.647   3.268   0.284  0.00  0.00    +0.280 C 
ATOM     23  H   LIG    1        1.077   4.876  -0.836  0.00  0.00    +0.420 HD
ATOM     24  C   LIG    1        0.813   3.682   1.499  0.00  0.00    +0.210 C 
BRANCH  21  25
ATOM     25  C   LIG    1        1.889   3.488  -2.092  0.00  0.00    +0.330 C 
BRANCH  25  26
ATOM     26  C   LIG    1        3.327   3.867  -1.849  0.00  0.00    -0.160 A 
ATOM     27  C   LIG    1        3.788   5.112  -2.234  0.00  0.00    +0.040 A 
ATOM     28  C   LIG    1        5.107   5.460  -2.007  0.00  0.00    +0.030 A 
ATOM     29  C   LIG    1        5.965   4.561  -1.403  0.00  0.00    +0.060 A 
ATOM     30  C   LIG    1        5.505   3.315  -1.022  0.00  0.00    +0.030 A 
ATOM     31  C   LIG    1        4.186   2.967  -1.246  0.00  0.00    +0.030 A 
ENDBRANCH  25  26
ENDBRANCH  21  25
ENDBRANCH  17  18
ENDBRANCH   3  17
TORSDOF 6
