REMARK  Name = ZINCrH000004sMpM.0
REMARK                            x       y       z     vdW  Elec       q    Type
REMARK                         _______ _______ _______ _____ _____    ______ ____
ROOT
ATOM      1  S   LIG    1        3.324   3.794  -0.987  0.00  0.00    +0.090 S 
ENDROOT
BRANCH   1   6
ATOM      2  C   LIG    1        7.644   6.810  -1.683  0.00  0.00    +0.200 C 
ATOM      3  C   LIG    1        6.717   5.701  -1.258  0.00  0.00    +0.190 A 
ATOM      4  N   LIG    1        7.037   4.656  -0.549  0.00  0.00    -0.280 NA
ATOM      5  N   LIG    1        6.003   3.915  -0.364  0.00  0.00    -0.290 NA
ATOM      6  C   LIG    1        4.961   4.447  -0.958  0.00  0.00    +0.140 A 
ATOM      7  N   LIG    1        5.383   5.606  -1.544  0.00  0.00    -0.450 N 
BRANCH   7   8
ATOM      8  C   LIG    1        4.575   6.551  -2.319  0.00  0.00    +0.370 C 
BRANCH   8   9
ATOM      9  C   LIG    1        3.990   7.588  -1.395  0.00  0.00    -0.130 A 
ATOM     10  C   LIG    1        2.756   7.376  -0.810  0.00  0.00    +0.040 A 
ATOM     11  C   LIG    1        2.222   8.325   0.041  0.00  0.00    +0.010 A 
ATOM     12  C   LIG    1        2.919   9.491   0.301  0.00  0.00    +0.030 A 
ATOM     13  C   LIG    1        4.151   9.705  -0.287  0.00  0.00    +0.010 A 
ATOM     14  C   LIG    1        4.687   8.754  -1.135  0.00  0.00    +0.020 A 
ENDBRANCH   8   9
ENDBRANCH   7   8
ENDBRANCH   1   6
BRANCH   1  15
ATOM     15  C   LIG    1        3.571   2.285  -0.019  0.00  0.00    +0.080 C 
ATOM     16  C   LIG    1        3.949   2.655   1.416  0.00  0.00    +0.100 C 
BRANCH  15  17
ATOM     17  C   LIG    1        2.298   1.479  -0.011  0.00  0.00    +0.470 A 
ATOM     18  N   LIG    1        1.162   2.119   0.002  0.00  0.00    -0.580 NA
ATOM     19  C   LIG    1       -0.018   1.470   0.010  0.00  0.00    +0.540 A 
ATOM     20  C   LIG    1        0.002  -0.004   0.002  0.00  0.00    -0.210 A 
ATOM     21  C   LIG    1       -1.168  -0.760   0.010  0.00  0.00    +0.110 A 
ATOM     22  C   LIG    1       -1.086  -2.135   0.001  0.00  0.00    -0.010 A 
ATOM     23  C   LIG    1        0.150  -2.767  -0.013  0.00  0.00    +0.090 A 
ATOM     24  C   LIG    1        1.317  -2.031  -0.021  0.00  0.00    -0.020 A 
ATOM     25  C   LIG    1        1.255  -0.645  -0.013  0.00  0.00    +0.180 A 
ATOM     26  O   LIG    1       -1.071   2.083   0.018  0.00  0.00    -0.470 OA
ATOM     27  N   LIG    1        2.392   0.138  -0.020  0.00  0.00    -0.620 N 
ATOM     28  H   LIG    1        3.266  -0.283  -0.031  0.00  0.00    +0.420 HD
ENDBRANCH  15  17
ENDBRANCH   1  15
TORSDOF 5
