REMARK  Name = ZINCqH00000036ki.0
REMARK                            x       y       z     vdW  Elec       q    Type
REMARK                         _______ _______ _______ _____ _____    ______ ____
ROOT
ATOM      1  C   LIG    1       -0.085   5.279   0.036  0.00  0.00    -0.070 A 
ATOM      2  C   LIG    1        1.140   5.935   0.037  0.00  0.00    +0.020 A 
ATOM      3  C   LIG    1        2.317   5.192   0.029  0.00  0.00    +0.180 A 
ATOM      4  N   LIG    1        2.309   3.882   0.019  0.00  0.00    -0.450 NA
ATOM      5  C   LIG    1        1.171   3.184   0.017  0.00  0.00    +0.100 A 
ATOM      6  C   LIG    1        1.187   1.776   0.006  0.00  0.00    +0.090 A 
ATOM      7  C   LIG    1        0.018   1.084   0.005  0.00  0.00    -0.030 A 
ATOM      8  C   LIG    1       -1.213   1.748   0.008  0.00  0.00    +0.140 A 
ATOM      9  C   LIG    1       -1.265   3.125   0.024  0.00  0.00    +0.000 A 
ATOM     10  C   LIG    1       -0.075   3.860   0.025  0.00  0.00    -0.030 A 
ENDROOT
BRANCH   1  12
ATOM     11  N   LIG    1       -1.596   6.960  -0.904  0.00  0.00    -0.600 N 
ATOM     12  C   LIG    1       -1.356   6.034   0.045  0.00  0.00    +0.570 C 
ATOM     13  O   LIG    1       -2.184   5.819   0.908  0.00  0.00    -0.500 OA
BRANCH  11  15
ATOM     14  C   LIG    1       -1.122   6.310  -3.214  0.00  0.00    +0.020 C 
ATOM     15  C   LIG    1       -0.654   7.134  -2.013  0.00  0.00    +0.260 C 
ENDBRANCH  11  15
BRANCH  11  16
ATOM     16  C   LIG    1       -2.799   7.793  -0.828  0.00  0.00    +0.300 C 
BRANCH  16  17
ATOM     17  C   LIG    1       -2.490   9.062  -0.030  0.00  0.00    +0.130 C 
ATOM     18  C   LIG    1       -3.769   9.924   0.124  0.00  0.00    +0.010 C 
ATOM     19  C   LIG    1       -3.432  10.723   1.413  0.00  0.00    +0.010 C 
ATOM     20  C   LIG    1       -2.613   9.699   2.228  0.00  0.00    +0.190 C 
ATOM     21  O   LIG    1       -2.101   8.725   1.311  0.00  0.00    -0.370 OA
ENDBRANCH  16  17
ENDBRANCH  11  16
ENDBRANCH   1  12
BRANCH   3  22
ATOM     22  C   LIG    1        3.639   5.915   0.030  0.00  0.00    +0.020 C 
ATOM     23  C   LIG    1        3.632   7.399  -0.341  0.00  0.00    +0.040 C 
ATOM     24  C   LIG    1        4.198   6.368  -1.320  0.00  0.00    +0.040 C 
ENDBRANCH   3  22
BRANCH   8  25
ATOM     25  O   LIG    1       -2.366   1.030   0.000  0.00  0.00    -0.310 OA
ATOM     26  C   LIG    1       -2.244  -0.393  -0.011  0.00  0.00    +0.240 C 
ENDBRANCH   8  25
TORSDOF 6
