REMARK  Name = ZINCrD00000l0qcJ.0
REMARK                            x       y       z     vdW  Elec       q    Type
REMARK                         _______ _______ _______ _____ _____    ______ ____
ROOT
ATOM      1  C   LIG    1        3.246   2.306   3.149  0.00  0.00    +0.450 C 
ENDROOT
BRANCH   1   2
ATOM      2  N   LIG    1        2.504   2.281   1.886  0.00  0.00    -0.580 N 
ATOM      3  C   LIG    1        2.084   3.375   1.239  0.00  0.00    +0.700 C 
ATOM      4  N   LIG    1        1.426   3.078   0.101  0.00  0.00    -0.710 N 
ATOM      5  H   LIG    1        1.036   3.707  -0.525  0.00  0.00    +0.440 HD
ATOM      6  C   LIG    1        1.418   1.613  -0.003  0.00  0.00    +0.130 C 
ATOM      7  C   LIG    1        2.149   1.164  -1.263  0.00  0.00    +0.060 C 
ATOM      8  C   LIG    1        1.400   1.670  -2.498  0.00  0.00    +0.030 C 
ATOM      9  C   LIG    1       -0.026   1.116  -2.490  0.00  0.00    +0.010 C 
ATOM     10  C   LIG    1       -0.754   1.593  -1.232  0.00  0.00    +0.040 C 
ATOM     11  C   LIG    1       -0.013   1.086   0.008  0.00  0.00    +0.020 C 
ATOM     12  C   LIG    1       -0.728   1.579   1.267  0.00  0.00    +0.030 C 
ATOM     13  O   LIG    1        2.275   4.509   1.633  0.00  0.00    -0.530 OA
ATOM     14  C   LIG    1        2.160   1.153   1.231  0.00  0.00    +0.540 C 
ATOM     15  O   LIG    1        2.395   0.011   1.562  0.00  0.00    -0.460 OA
ENDBRANCH   1   2
BRANCH   1  19
ATOM     16  C   LIG    1        0.930   1.684   5.923  0.00  0.00    +0.060 A 
ATOM     17  N   LIG    1        0.981   2.989   5.809  0.00  0.00    -0.320 NA
ATOM     18  O   LIG    1        1.726   3.325   4.919  0.00  0.00    +0.120 OA
ATOM     19  C   LIG    1        2.276   2.270   4.302  0.00  0.00    -0.070 A 
ATOM     20  C   LIG    1        1.795   1.166   4.918  0.00  0.00    -0.010 A 
BRANCH  16  26
ATOM     21  C   LIG    1       -0.675   1.564   7.833  0.00  0.00    +0.150 A 
ATOM     22  C   LIG    1       -1.417   0.827   8.743  0.00  0.00    -0.080 A 
ATOM     23  C   LIG    1       -1.357  -0.553   8.728  0.00  0.00    +0.060 A 
ATOM     24  C   LIG    1       -0.558  -1.208   7.808  0.00  0.00    -0.030 A 
ATOM     25  C   LIG    1        0.181  -0.487   6.892  0.00  0.00    +0.070 A 
ATOM     26  C   LIG    1        0.133   0.904   6.901  0.00  0.00    -0.060 A 
BRANCH  21  28
ATOM     27  C   LIG    1       -1.579   3.524   8.826  0.00  0.00    +0.240 C 
ATOM     28  O   LIG    1       -0.732   2.920   7.846  0.00  0.00    -0.290 OA
ENDBRANCH  21  28
ENDBRANCH  16  26
ENDBRANCH   1  19
TORSDOF 4
