REMARK  Name = ZINCqH00000078f6.0
REMARK                            x       y       z     vdW  Elec       q    Type
REMARK                         _______ _______ _______ _____ _____    ______ ____
ROOT
ATOM      1  C   LIG    1        1.147   1.655   0.000  0.00  0.00    +0.520 C 
ATOM      2  N   LIG    1       -0.011   0.966   0.007  0.00  0.00    -0.720 N 
ATOM      3  H   LIG    1        0.002  -0.004   0.002  0.00  0.00    +0.410 HD
ATOM      4  O   LIG    1        1.130   2.868   0.007  0.00  0.00    -0.520 OA
ENDROOT
BRANCH   1   5
ATOM      5  C   LIG    1        2.462   0.920  -0.017  0.00  0.00    +0.120 C 
BRANCH   5   9
ATOM      6  C   LIG    1        5.673   3.742  -0.035  0.00  0.00    +0.100 A 
ATOM      7  C   LIG    1        5.139   3.289  -1.231  0.00  0.00    -0.040 A 
ATOM      8  C   LIG    1        4.104   2.372  -1.222  0.00  0.00    +0.060 A 
ATOM      9  C   LIG    1        3.594   1.915  -0.022  0.00  0.00    -0.080 A 
ATOM     10  C   LIG    1        4.124   2.364   1.174  0.00  0.00    +0.040 A 
ATOM     11  C   LIG    1        5.163   3.277   1.171  0.00  0.00    +0.070 A 
ATOM     12  F   LIG    1        5.680   3.716   2.339  0.00  0.00    -0.130 F 
BRANCH   6  14
ATOM     13  C   LIG    1        7.169   5.073  -1.317  0.00  0.00    +0.250 C 
ATOM     14  O   LIG    1        6.694   4.639  -0.041  0.00  0.00    -0.310 OA
ENDBRANCH   6  14
ENDBRANCH   5   9
ENDBRANCH   1   5
BRANCH   2  15
ATOM     15  C   LIG    1       -1.290   1.681   0.017  0.00  0.00    +0.330 C 
BRANCH  15  16
ATOM     16  C   LIG    1       -2.360   0.806  -0.583  0.00  0.00    +0.270 A 
ATOM     17  N   LIG    1       -2.780  -0.314  -0.071  0.00  0.00    -0.470 NA
ATOM     18  C   LIG    1       -3.746  -0.844  -0.864  0.00  0.00    +0.040 A 
ATOM     19  C   LIG    1       -4.523  -2.003  -0.794  0.00  0.00    +0.070 A 
ATOM     20  C   LIG    1       -5.439  -2.270  -1.772  0.00  0.00    +0.000 A 
ATOM     21  C   LIG    1       -5.608  -1.400  -2.839  0.00  0.00    +0.030 A 
ATOM     22  C   LIG    1       -4.853  -0.250  -2.930  0.00  0.00    +0.010 A 
ATOM     23  C   LIG    1       -3.918   0.038  -1.945  0.00  0.00    +0.050 A 
ATOM     24  N   LIG    1       -3.030   1.074  -1.736  0.00  0.00    -0.590 N 
ATOM     25  H   LIG    1       -2.906   1.849  -2.306  0.00  0.00    +0.420 HD
ENDBRANCH  15  16
BRANCH  15  26
ATOM     26  C   LIG    1       -1.667   2.032   1.458  0.00  0.00    -0.010 C 
ATOM     27  C   LIG    1       -3.002   2.779   1.468  0.00  0.00    +0.020 C 
ATOM     28  C   LIG    1       -0.580   2.921   2.067  0.00  0.00    +0.020 C 
ENDBRANCH  15  26
ENDBRANCH   2  15
TORSDOF 6
