REMARK  Name = ZINCvU0000000GGj.2
REMARK                            x       y       z     vdW  Elec       q    Type
REMARK                         _______ _______ _______ _____ _____    ______ ____
ROOT
ATOM      1  C   LIG    1       -0.578   7.893   0.612  0.00  0.00    +0.560 C 
ATOM      2  N   LIG    1       -0.432   7.603  -0.696  0.00  0.00    -0.720 N 
ATOM      3  H   LIG    1       -0.549   6.691  -1.006  0.00  0.00    +0.400 HD
ATOM      4  O   LIG    1       -0.503   9.046   0.991  0.00  0.00    -0.530 OA
ENDROOT
BRANCH   1   6
ATOM      5  C   LIG    1       -0.813   7.077   2.885  0.00  0.00    +0.170 C 
ATOM      6  C   LIG    1       -0.828   6.815   1.582  0.00  0.00    -0.190 C 
BRANCH   6   7
ATOM      7  C   LIG    1       -1.102   5.415   1.097  0.00  0.00    +0.220 C 
BRANCH   7   8
ATOM      8  N   LIG    1       -2.539   5.258   0.837  0.00  0.00    -0.500 NA
ATOM      9  C   LIG    1       -3.025   6.300  -0.093  0.00  0.00    +0.160 C 
ATOM     10  C   LIG    1       -4.134   5.605  -0.921  0.00  0.00    +0.030 C 
ATOM     11  C   LIG    1       -3.553   4.174  -1.089  0.00  0.00    +0.010 C 
ATOM     12  C   LIG    1       -2.829   3.936   0.253  0.00  0.00    +0.210 C 
BRANCH  12  13
ATOM     13  C   LIG    1       -1.544   3.187   0.016  0.00  0.00    -0.090 A 
ATOM     14  C   LIG    1       -0.972   3.175  -1.242  0.00  0.00    +0.030 A 
ATOM     15  C   LIG    1        0.208   2.488  -1.460  0.00  0.00    +0.020 A 
ATOM     16  C   LIG    1        0.817   1.812  -0.419  0.00  0.00    +0.020 A 
ATOM     17  C   LIG    1        0.246   1.823   0.840  0.00  0.00    +0.030 A 
ATOM     18  C   LIG    1       -0.938   2.505   1.057  0.00  0.00    -0.030 A 
ATOM     19 CL   LIG    1       -1.660   2.513   2.636  0.00  0.00    -0.050 Cl
ENDBRANCH  12  13
ENDBRANCH   7   8
ENDBRANCH   6   7
ENDBRANCH   1   6
BRANCH   2  20
ATOM     20  C   LIG    1       -0.096   8.664  -1.648  0.00  0.00    +0.340 C 
BRANCH  20  21
ATOM     21  C   LIG    1       -1.358   9.358  -2.092  0.00  0.00    -0.140 A 
ATOM     22  C   LIG    1       -1.381  10.735  -2.255  0.00  0.00    +0.070 A 
ATOM     23  C   LIG    1       -2.564  11.331  -2.665  0.00  0.00    -0.030 A 
ATOM     24  C   LIG    1       -3.672  10.539  -2.896  0.00  0.00    +0.260 A 
ATOM     25  N   LIG    1       -3.614   9.232  -2.731  0.00  0.00    -0.480 NA
ATOM     26  C   LIG    1       -2.505   8.631  -2.347  0.00  0.00    +0.260 A 
ENDBRANCH  20  21
BRANCH  20  27
ATOM     27  C   LIG    1        0.594   8.063  -2.846  0.00  0.00    -0.090 A 
ATOM     28  C   LIG    1        0.159   6.857  -3.362  0.00  0.00    +0.000 A 
ATOM     29  C   LIG    1        0.789   6.309  -4.464  0.00  0.00    +0.020 A 
ATOM     30  C   LIG    1        1.861   6.962  -5.042  0.00  0.00    +0.020 A 
ATOM     31  C   LIG    1        2.300   8.165  -4.523  0.00  0.00    +0.020 A 
ATOM     32  C   LIG    1        1.667   8.716  -3.425  0.00  0.00    +0.030 A 
ENDBRANCH  20  27
ENDBRANCH   2  20
TORSDOF 7
