REMARK  Name = ZINCrD0000075KyL.0
REMARK                            x       y       z     vdW  Elec       q    Type
REMARK                         _______ _______ _______ _____ _____    ______ ____
ROOT
ATOM      1  O   LIG    1        0.581  -0.636   1.423  0.00  0.00    -0.480 OA
ATOM      2  C   LIG    1       -0.265  -0.168   0.691  0.00  0.00    +0.530 C 
ATOM      3  N   LIG    1       -0.011   0.966   0.007  0.00  0.00    -0.670 N 
ATOM      4  H   LIG    1       -0.712   1.383  -0.517  0.00  0.00    +0.410 HD
ENDROOT
BRANCH   2   5
ATOM      5  C   LIG    1       -1.600  -0.852   0.546  0.00  0.00    +0.190 C 
ATOM      6  C   LIG    1       -1.758  -1.372  -0.892  0.00  0.00    +0.100 C 
ATOM      7  S   LIG    1       -3.458  -1.998  -1.052  0.00  0.00    -0.090 S 
ATOM      8  C   LIG    1       -3.655  -2.909   0.448  0.00  0.00    -0.160 A 
ATOM      9  C   LIG    1       -4.733  -3.776   0.571  0.00  0.00    +0.070 A 
ATOM     10  C   LIG    1       -4.928  -4.483   1.741  0.00  0.00    +0.000 A 
ATOM     11  C   LIG    1       -4.044  -4.327   2.792  0.00  0.00    +0.060 A 
ATOM     12  C   LIG    1       -2.966  -3.473   2.673  0.00  0.00    +0.010 A 
ATOM     13  C   LIG    1       -2.755  -2.757   1.497  0.00  0.00    +0.130 A 
ATOM     14  O   LIG    1       -1.671  -1.950   1.444  0.00  0.00    -0.290 OA
ENDBRANCH   2   5
BRANCH   3  15
ATOM     15  C   LIG    1        1.262   1.543   0.058  0.00  0.00    +0.160 A 
ATOM     16  C   LIG    1        1.404   2.923  -0.006  0.00  0.00    -0.010 A 
ATOM     17  C   LIG    1        2.662   3.490   0.048  0.00  0.00    +0.070 A 
ATOM     18  C   LIG    1        3.781   2.684   0.157  0.00  0.00    -0.130 A 
ATOM     19  C   LIG    1        3.644   1.310   0.216  0.00  0.00    +0.050 A 
ATOM     20  C   LIG    1        2.388   0.737   0.167  0.00  0.00    +0.020 A 
BRANCH  18  21
ATOM     21  C   LIG    1        5.153   3.306   0.210  0.00  0.00    +0.340 C 
BRANCH  21  22
ATOM     22  N   LIG    1        5.681   3.440  -1.150  0.00  0.00    -0.490 N 
ATOM     23  C   LIG    1        6.412   2.430  -1.688  0.00  0.00    +0.290 A 
ATOM     24  C   LIG    1        6.905   2.527  -2.945  0.00  0.00    -0.080 A 
ATOM     25  C   LIG    1        6.674   3.686  -3.700  0.00  0.00    +0.110 A 
ATOM     26  C   LIG    1        5.945   4.702  -3.155  0.00  0.00    -0.090 A 
ATOM     27  C   LIG    1        5.442   4.565  -1.850  0.00  0.00    +0.510 A 
ATOM     28  O   LIG    1        4.788   5.467  -1.350  0.00  0.00    -0.550 OA
ENDBRANCH  21  22
ENDBRANCH  18  21
ENDBRANCH   3  15
TORSDOF 4
