REMARK  Name = ZINCrD000000CNVD.0
REMARK                            x       y       z     vdW  Elec       q    Type
REMARK                         _______ _______ _______ _____ _____    ______ ____
ROOT
ATOM      1  N   LIG    1        7.660  -2.840  -1.343  0.00  0.00    -0.670 N 
ATOM      2  H   LIG    1        7.542  -3.556  -0.699  0.00  0.00    +0.410 HD
ATOM      3  C   LIG    1        6.712  -1.891  -1.477  0.00  0.00    +0.530 C 
ATOM      4  O   LIG    1        6.900  -0.944  -2.211  0.00  0.00    -0.510 OA
ENDROOT
BRANCH   1  11
ATOM      5  O   LIG    1       14.325  -3.338  -4.855  0.00  0.00    -0.530 OA
ATOM      6  C   LIG    1       13.326  -3.400  -4.170  0.00  0.00    +0.520 C 
ATOM      7  C   LIG    1       13.300  -4.315  -2.975  0.00  0.00    +0.080 C 
ATOM      8  C   LIG    1       12.478  -3.682  -1.852  0.00  0.00    +0.100 C 
ATOM      9  C   LIG    1       11.163  -3.194  -2.402  0.00  0.00    -0.100 A 
ATOM     10  C   LIG    1       10.026  -3.241  -1.623  0.00  0.00    +0.020 A 
ATOM     11  C   LIG    1        8.815  -2.792  -2.134  0.00  0.00    +0.120 A 
ATOM     12  C   LIG    1        8.748  -2.300  -3.431  0.00  0.00    +0.050 A 
ATOM     13  C   LIG    1        9.888  -2.247  -4.209  0.00  0.00    +0.000 A 
ATOM     14  C   LIG    1       11.098  -2.697  -3.698  0.00  0.00    +0.150 A 
ATOM     15  N   LIG    1       12.254  -2.651  -4.487  0.00  0.00    -0.660 N 
ATOM     16  H   LIG    1       12.283  -2.074  -5.266  0.00  0.00    +0.410 HD
ENDBRANCH   1  11
BRANCH   3  17
ATOM     17  C   LIG    1        5.418  -2.006  -0.714  0.00  0.00    +0.010 C 
ATOM     18  C   LIG    1        5.654  -1.839   0.805  0.00  0.00    +0.090 C 
ATOM     19  C   LIG    1        4.446  -1.067   1.288  0.00  0.00    +0.530 C 
ATOM     20  N   LIG    1        3.806  -0.512   0.245  0.00  0.00    -0.580 N 
ATOM     21  O   LIG    1        4.104  -0.965   2.447  0.00  0.00    -0.510 OA
ATOM     22  C   LIG    1        4.486  -0.813  -1.020  0.00  0.00    +0.310 C 
BRANCH  20  23
ATOM     23  C   LIG    1        2.642   0.259   0.351  0.00  0.00    +0.170 A 
ATOM     24  C   LIG    1        1.396  -0.349   0.281  0.00  0.00    +0.040 A 
ATOM     25  C   LIG    1        0.249   0.414   0.386  0.00  0.00    +0.040 A 
ATOM     26  C   LIG    1        0.341   1.782   0.561  0.00  0.00    +0.030 A 
ATOM     27  C   LIG    1        1.581   2.392   0.632  0.00  0.00    +0.050 A 
ATOM     28  C   LIG    1        2.732   1.634   0.528  0.00  0.00    -0.080 A 
ATOM     29 BR   LIG    1        4.426   2.468   0.624  0.00  0.00    -0.040 Br
ENDBRANCH  20  23
ENDBRANCH   3  17
TORSDOF 3
