REMARK  Name = ZINCrD00000F5LGX.0
REMARK                            x       y       z     vdW  Elec       q    Type
REMARK                         _______ _______ _______ _____ _____    ______ ____
ROOT
ATOM      1  N   LIG    1        1.103   3.756   1.294  0.00  0.00    -0.980 NA
ENDROOT
BRANCH   1   2
ATOM      2  S   LIG    1        2.568   4.111   1.978  0.00  0.00    +2.670 S 
ATOM      3  O   LIG    1        3.558   3.634   1.077  0.00  0.00    -0.950 OA
ATOM      4  O   LIG    1        2.489   3.697   3.335  0.00  0.00    -0.960 OA
BRANCH   2   6
ATOM      5  C   LIG    1        2.897   6.493   3.138  0.00  0.00    +0.200 C 
ATOM      6  C   LIG    1        2.722   5.866   2.002  0.00  0.00    -0.580 C 
ENDBRANCH   2   6
ENDBRANCH   1   2
BRANCH   1   7
ATOM      7  C   LIG    1       -0.101   3.702   2.127  0.00  0.00    +0.380 C 
BRANCH   7   8
ATOM      8  C   LIG    1       -0.788   5.043   2.104  0.00  0.00    -0.260 A 
ATOM      9  C   LIG    1       -0.659   6.020   3.032  0.00  0.00    +0.240 A 
ATOM     10  N   LIG    1       -1.434   7.056   2.648  0.00  0.00    -0.370 N 
ATOM     11  N   LIG    1       -2.060   6.705   1.446  0.00  0.00    -0.290 NA
ATOM     12  C   LIG    1       -1.593   8.324   3.364  0.00  0.00    +0.360 C 
ATOM     13  C   LIG    1       -1.667   5.500   1.117  0.00  0.00    +0.100 A 
BRANCH  13  14
ATOM     14  C   LIG    1       -2.093   4.736  -0.110  0.00  0.00    +0.070 C 
ATOM     15  C   LIG    1       -1.625   5.481  -1.362  0.00  0.00    +0.030 C 
ATOM     16  C   LIG    1       -3.618   4.612  -0.130  0.00  0.00    +0.040 C 
ENDBRANCH  13  14
ENDBRANCH   7   8
ENDBRANCH   1   7
BRANCH   1  17
ATOM     17  C   LIG    1        1.010   3.496  -0.145  0.00  0.00    +0.350 C 
BRANCH  17  18
ATOM     18  C   LIG    1        1.045   2.010  -0.390  0.00  0.00    -0.140 A 
ATOM     19  C   LIG    1        2.241   1.384  -0.689  0.00  0.00    +0.080 A 
ATOM     20  C   LIG    1        2.280   0.023  -0.911  0.00  0.00    -0.010 A 
ATOM     21  C   LIG    1        1.113  -0.733  -0.835  0.00  0.00    +0.110 A 
ATOM     22  O   LIG    1        0.928  -2.072  -0.998  0.00  0.00    -0.300 OA
ATOM     23  C   LIG    1       -0.461  -2.329  -1.263  0.00  0.00    +0.170 C 
ATOM     24  C   LIG    1       -1.169  -1.152  -0.550  0.00  0.00    +0.070 C 
ATOM     25  C   LIG    1       -0.891  -3.667  -0.657  0.00  0.00    +0.070 C 
ATOM     26  C   LIG    1       -0.084  -0.092  -0.541  0.00  0.00    -0.180 A 
ATOM     27  C   LIG    1       -0.120   1.266  -0.317  0.00  0.00    +0.070 A 
ENDBRANCH  17  18
ENDBRANCH   1  17
TORSDOF 7
