REMARK  Name = ZINCpe00000bmTr8.0
REMARK                            x       y       z     vdW  Elec       q    Type
REMARK                         _______ _______ _______ _____ _____    ______ ____
ROOT
ATOM      1  C   LIG    1       -2.152   0.216  -0.157  0.00  0.00    -0.110 A 
ATOM      2  C   LIG    1       -3.140   0.581  -1.054  0.00  0.00    +0.080 A 
ATOM      3  C   LIG    1       -4.430   0.100  -0.904  0.00  0.00    +0.040 A 
ATOM      4  C   LIG    1       -4.734  -0.735   0.146  0.00  0.00    -0.070 A 
ATOM      5  C   LIG    1       -6.004  -1.414   0.593  0.00  0.00    +0.320 C 
ATOM      6  N   LIG    1       -5.661  -2.176   1.799  0.00  0.00    -0.610 N 
ATOM      7  C   LIG    1       -4.356  -1.996   2.067  0.00  0.00    +0.570 C 
ATOM      8  O   LIG    1       -3.764  -2.496   3.003  0.00  0.00    -0.510 OA
ATOM      9  C   LIG    1       -3.745  -1.105   1.061  0.00  0.00    -0.160 A 
ATOM     10  C   LIG    1       -2.446  -0.621   0.900  0.00  0.00    +0.120 A 
ENDROOT
BRANCH   6  11
ATOM     11  C   LIG    1       -6.587  -2.997   2.582  0.00  0.00    +0.300 C 
ATOM     12  C   LIG    1       -7.444  -2.093   3.475  0.00  0.00    +0.070 C 
ATOM     13  C   LIG    1       -8.310  -1.201   2.579  0.00  0.00    +0.090 C 
ATOM     14  C   LIG    1       -9.116  -2.069   1.649  0.00  0.00    +0.520 C 
ATOM     15  N   LIG    1       -8.664  -3.267   1.247  0.00  0.00    -0.670 N 
ATOM     16  H   LIG    1       -9.210  -3.791   0.641  0.00  0.00    +0.420 HD
ATOM     17  O   LIG    1      -10.193  -1.678   1.255  0.00  0.00    -0.490 OA
ATOM     18  C   LIG    1       -7.487  -3.767   1.651  0.00  0.00    +0.520 C 
ATOM     19  O   LIG    1       -7.140  -4.861   1.259  0.00  0.00    -0.470 OA
ENDBRANCH   6  11
BRANCH   1  20
ATOM     20  C   LIG    1       -0.750   0.740  -0.332  0.00  0.00    +0.320 C 
BRANCH  20  22
ATOM     21  C   LIG    1        1.304   0.081  -1.466  0.00  0.00    +0.510 C 
ATOM     22  N   LIG    1        0.017  -0.187  -1.169  0.00  0.00    -0.730 N 
ATOM     23  H   LIG    1       -0.403  -0.991  -1.513  0.00  0.00    +0.400 HD
ATOM     24  O   LIG    1        1.829   1.086  -1.036  0.00  0.00    -0.540 OA
BRANCH  21  25
ATOM     25  C   LIG    1        2.091  -0.868  -2.332  0.00  0.00    +0.040 C 
BRANCH  25  27
ATOM     26  C   LIG    1        4.311  -1.298  -3.393  0.00  0.00    +0.010 C 
ATOM     27  C   LIG    1        3.513  -0.334  -2.514  0.00  0.00    +0.030 C 
ENDBRANCH  25  27
ENDBRANCH  21  25
ENDBRANCH  20  22
ENDBRANCH   1  20
TORSDOF 5
