REMARK  Name = ZINCue00000004Pn.0
REMARK                            x       y       z     vdW  Elec       q    Type
REMARK                         _______ _______ _______ _____ _____    ______ ____
ROOT
ATOM      1  O   LIG    1        5.073  -4.552  -1.063  0.00  0.00    -0.630 OA
ATOM      2  C   LIG    1        4.799  -3.767  -1.946  0.00  0.00    +0.540 C 
ATOM      3  N   LIG    1        4.377  -2.525  -1.636  0.00  0.00    -1.110 NA
ENDROOT
BRANCH   3   4
ATOM      4  S   LIG    1        4.234  -2.070  -0.051  0.00  0.00    +2.660 S 
ATOM      5  O   LIG    1        3.186  -2.857   0.500  0.00  0.00    -1.020 OA
ATOM      6  O   LIG    1        5.552  -2.049   0.481  0.00  0.00    -0.990 OA
BRANCH   4   7
ATOM      7  C   LIG    1        3.665  -0.403  -0.035  0.00  0.00    -0.560 A 
ATOM      8  C   LIG    1        4.435   0.709  -0.037  0.00  0.00    +0.200 A 
ATOM      9  N   LIG    1        3.638   1.780  -0.023  0.00  0.00    -0.500 NA
ATOM     10  C   LIG    1        2.373   1.381  -0.013  0.00  0.00    +0.260 A 
ATOM     11  C   LIG    1        1.155   2.090   0.002  0.00  0.00    +0.050 A 
ATOM     12  C   LIG    1       -0.017   1.400   0.010  0.00  0.00    +0.070 A 
ATOM     13  C   LIG    1        0.002  -0.004   0.002  0.00  0.00    +0.010 A 
ATOM     14  C   LIG    1        1.177  -0.669  -0.013  0.00  0.00    +0.270 A 
ATOM     15 CL   LIG    1        6.171   0.738  -0.053  0.00  0.00    +0.030 Cl
ATOM     16  N   LIG    1        2.360   0.011  -0.020  0.00  0.00    -0.310 N 
ENDBRANCH   4   7
ENDBRANCH   3   4
BRANCH   2  17
ATOM     17  C   LIG    1        4.929  -4.181  -3.389  0.00  0.00    +0.060 C 
BRANCH  17  18
ATOM     18  C   LIG    1        5.422  -5.627  -3.462  0.00  0.00    +0.330 C 
BRANCH  18  19
ATOM     19  N   LIG    1        5.549  -6.030  -4.865  0.00  0.00    -0.530 N 
ATOM     20  C   LIG    1        4.503  -6.595  -5.492  0.00  0.00    +0.700 A 
ATOM     21  N   LIG    1        4.547  -6.983  -6.777  0.00  0.00    -0.660 N 
ATOM     22  H   LIG    1        3.761  -7.382  -7.180  0.00  0.00    +0.430 HD
ATOM     23  C   LIG    1        5.668  -6.832  -7.516  0.00  0.00    +0.570 A 
ATOM     24  C   LIG    1        6.849  -6.223  -6.878  0.00  0.00    -0.210 A 
ATOM     25  C   LIG    1        8.041  -6.034  -7.573  0.00  0.00    +0.120 A 
ATOM     26  C   LIG    1        9.117  -5.458  -6.930  0.00  0.00    -0.030 A 
ATOM     27  C   LIG    1        9.018  -5.070  -5.603  0.00  0.00    +0.100 A 
ATOM     28  C   LIG    1        7.841  -5.253  -4.903  0.00  0.00    -0.010 A 
ATOM     29  O   LIG    1        5.702  -7.190  -8.677  0.00  0.00    -0.500 OA
ATOM     30  O   LIG    1        3.470  -6.758  -4.871  0.00  0.00    -0.530 OA
ATOM     31  C   LIG    1        6.749  -5.829  -5.532  0.00  0.00    +0.210 A 
ENDBRANCH  18  19
ENDBRANCH  17  18
ENDBRANCH   2  17
TORSDOF 5
