REMARK  Name = ZINCpe00000RcBDu.0
REMARK                            x       y       z     vdW  Elec       q    Type
REMARK                         _______ _______ _______ _____ _____    ______ ____
ROOT
ATOM      1  C   LIG    1       -0.753   1.752   1.072  0.00  0.00    +0.140 C 
ENDROOT
BRANCH   1  14
ATOM      2  C   LIG    1       -2.102   0.228  -1.009  0.00  0.00    +0.160 C 
ATOM      3  C   LIG    1       -2.403  -0.047   0.442  0.00  0.00    +0.260 A 
ATOM      4  N   LIG    1       -3.276  -0.976   0.765  0.00  0.00    -0.480 NA
ATOM      5  C   LIG    1       -3.558  -1.235   2.048  0.00  0.00    +0.360 A 
ATOM      6  C   LIG    1       -4.423  -2.148   2.647  0.00  0.00    -0.180 A 
ATOM      7  C   LIG    1       -4.320  -1.988   4.027  0.00  0.00    +0.550 A 
ATOM      8  N   LIG    1       -3.424  -1.013   4.276  0.00  0.00    -0.510 N 
ATOM      9  H   LIG    1       -3.159  -0.697   5.153  0.00  0.00    +0.430 HD
ATOM     10  O   LIG    1       -4.935  -2.623   4.868  0.00  0.00    -0.540 OA
ATOM     11  N   LIG    1       -2.940  -0.534   3.052  0.00  0.00    -0.300 N 
ATOM     12  C   LIG    1       -2.030   0.428   2.745  0.00  0.00    +0.220 A 
ATOM     13  C   LIG    1       -1.339   1.202   3.839  0.00  0.00    +0.150 C 
ATOM     14  C   LIG    1       -1.754   0.688   1.440  0.00  0.00    -0.200 A 
ENDBRANCH   1  14
BRANCH   1  15
ATOM     15  C   LIG    1        0.599   1.120   0.863  0.00  0.00    +0.510 C 
ATOM     16  N   LIG    1        1.654   1.885   0.518  0.00  0.00    -0.720 N 
ATOM     17  H   LIG    1        1.544   2.842   0.409  0.00  0.00    +0.400 HD
ATOM     18  O   LIG    1        0.736  -0.077   1.000  0.00  0.00    -0.520 OA
BRANCH  16  19
ATOM     19  C   LIG    1        2.967   1.269   0.309  0.00  0.00    +0.230 C 
ATOM     20  C   LIG    1        4.082   2.337   0.388  0.00  0.00    +0.030 C 
ATOM     21  C   LIG    1        4.757   2.307  -1.018  0.00  0.00    +0.030 C 
ATOM     22  C   LIG    1        4.623   0.783  -1.370  0.00  0.00    +0.030 C 
ATOM     23  C   LIG    1        3.691   2.919  -1.976  0.00  0.00    +0.120 C 
ATOM     24  C   LIG    1        3.141   4.225  -1.399  0.00  0.00    +0.010 C 
ATOM     25  C   LIG    1        2.576   1.850  -2.055  0.00  0.00    -0.010 C 
ATOM     26  C   LIG    1        3.074   0.693  -1.136  0.00  0.00    -0.010 C 
BRANCH  23  27
ATOM     27  O   LIG    1        4.255   3.145  -3.270  0.00  0.00    -0.560 OA
ATOM     28  H   LIG    1        3.636   3.526  -3.908  0.00  0.00    +0.380 HD
ENDBRANCH  23  27
ENDBRANCH  16  19
ENDBRANCH   1  15
TORSDOF 4
