REMARK  Name = ZINCb70000002ELF.0
REMARK                            x       y       z     vdW  Elec       q    Type
REMARK                         _______ _______ _______ _____ _____    ______ ____
ROOT
ATOM      1  C   LIG    1       -0.013   1.086   0.008  0.00  0.00    +0.240 C 
ENDROOT
BRANCH   1   2
ATOM      2  C   LIG    1       -0.729   1.579   1.267  0.00  0.00    +0.150 C 
ATOM      3  C   LIG    1       -2.168   1.056   1.275  0.00  0.00    +0.190 C 
ATOM      4  O   LIG    1       -2.863   1.612   2.395  0.00  0.00    -0.360 OA
ATOM      5  C   LIG    1       -2.883   3.043   2.404  0.00  0.00    +0.210 C 
ATOM      6  C   LIG    1       -1.444   3.566   2.396  0.00  0.00    +0.230 C 
ATOM      7  O   LIG    1       -0.749   3.010   1.276  0.00  0.00    -0.380 OA
ENDBRANCH   1   2
BRANCH   1   8
ATOM      8  N   LIG    1       -0.723   1.572  -1.182  0.00  0.00    -0.640 N 
ATOM      9  H   LIG    1       -0.251   1.247  -2.012  0.00  0.00    +0.440 HD
ATOM     10  H   LIG    1       -0.737   2.581  -1.177  0.00  0.00    +0.440 HD
ATOM     11  H   LIG    1       -1.670   1.223  -1.175  0.00  0.00    +0.430 HD
ENDBRANCH   1   8
BRANCH   1  12
ATOM     12  C   LIG    1        1.423   1.615  -0.003  0.00  0.00    -0.030 C 
ATOM     13  C   LIG    1        1.781   2.663  -1.059  0.00  0.00    +0.030 C 
ATOM     14  C   LIG    1        2.308   1.231  -1.190  0.00  0.00    +0.050 C 
ENDBRANCH   1  12
TORSDOF 3
