REMARK  Name = ZINCpe000000TBO9.0
REMARK                            x       y       z     vdW  Elec       q    Type
REMARK                         _______ _______ _______ _____ _____    ______ ____
ROOT
ATOM      1  C   LIG    1       -1.330   1.944   0.019  0.00  0.00    +0.370 C 
ENDROOT
BRANCH   1   2
ATOM      2  N   LIG    1       -2.430   0.977   0.019  0.00  0.00    -0.340 N 
ATOM      3  N   LIG    1       -3.060   0.443  -1.115  0.00  0.00    -0.230 NA
ATOM      4  C   LIG    1       -3.991  -0.388  -0.714  0.00  0.00    -0.010 A 
ATOM      5  C   LIG    1       -3.989  -0.401   0.679  0.00  0.00    -0.190 A 
ATOM      6  C   LIG    1       -4.880  -1.197   1.600  0.00  0.00    +0.110 C 
ATOM      7  C   LIG    1       -4.246  -1.206   2.997  0.00  0.00    +0.020 C 
ATOM      8  C   LIG    1       -3.884   0.225   3.404  0.00  0.00    +0.040 C 
ATOM      9  C   LIG    1       -2.704   0.716   2.555  0.00  0.00    +0.110 C 
ATOM     10  C   LIG    1       -3.019   0.449   1.104  0.00  0.00    +0.100 A 
BRANCH   4  11
ATOM     11  C   LIG    1       -4.909  -1.186  -1.604  0.00  0.00    +0.560 C 
ATOM     12  F   LIG    1       -5.260  -2.379  -0.963  0.00  0.00    -0.160 F 
ATOM     13  F   LIG    1       -4.256  -1.476  -2.806  0.00  0.00    -0.170 F 
ATOM     14  F   LIG    1       -6.064  -0.442  -1.869  0.00  0.00    -0.170 F 
ENDBRANCH   4  11
ENDBRANCH   1   2
BRANCH   1  17
ATOM     15  N   LIG    1        1.143   1.898   0.001  0.00  0.00    -0.720 N 
ATOM     16  H   LIG    1        1.130   2.868   0.007  0.00  0.00    +0.410 HD
ATOM     17  C   LIG    1       -0.014   1.209   0.009  0.00  0.00    +0.490 C 
ATOM     18  O   LIG    1        0.002  -0.004   0.002  0.00  0.00    -0.510 OA
BRANCH  15  19
ATOM     19  C   LIG    1        2.422   1.183  -0.015  0.00  0.00    +0.310 C 
BRANCH  19  20
ATOM     20  C   LIG    1        3.571   2.193  -0.020  0.00  0.00    -0.380 C 
BRANCH  20  21
ATOM     21  S   LIG    1        5.154   1.308  -0.040  0.00  0.00    +2.620 S 
ATOM     22  O   LIG    1        5.338   0.643  -1.282  0.00  0.00    -0.950 OA
ATOM     23  O   LIG    1        5.362   0.630   1.191  0.00  0.00    -0.940 OA
BRANCH  21  24
ATOM     24  N   LIG    1        6.298   2.505  -0.045  0.00  0.00    -1.120 NA
ATOM     25  H   LIG    1        6.882   2.615  -0.811  0.00  0.00    +0.420 HD
BRANCH  24  27
ATOM     26  C   LIG    1        7.758   4.149   1.027  0.00  0.00    +0.040 C 
ATOM     27  C   LIG    1        6.427   3.399   1.109  0.00  0.00    +0.250 C 
ENDBRANCH  24  27
ENDBRANCH  21  24
ENDBRANCH  20  21
ENDBRANCH  19  20
ENDBRANCH  15  19
ENDBRANCH   1  17
TORSDOF 8
