REMARK  Name = ZINCqH0000000sNB.0
REMARK                            x       y       z     vdW  Elec       q    Type
REMARK                         _______ _______ _______ _____ _____    ______ ____
ROOT
ATOM      1  C   LIG    1       -0.313   1.269   0.643  0.00  0.00    +0.510 C 
ATOM      2  N   LIG    1       -1.415   1.810   0.087  0.00  0.00    -0.680 N 
ATOM      3  H   LIG    1       -1.397   2.724  -0.237  0.00  0.00    +0.410 HD
ATOM      4  O   LIG    1       -0.364   0.163   1.137  0.00  0.00    -0.510 OA
ENDROOT
BRANCH   2   5
ATOM      5  C   LIG    1       -2.589   1.052  -0.023  0.00  0.00    +0.120 A 
ATOM      6  C   LIG    1       -2.514  -0.312  -0.271  0.00  0.00    +0.030 A 
ATOM      7  C   LIG    1       -3.670  -1.060  -0.374  0.00  0.00    -0.020 A 
ATOM      8  C   LIG    1       -4.908  -0.446  -0.239  0.00  0.00    +0.090 A 
ATOM      9  C   LIG    1       -4.984   0.920   0.004  0.00  0.00    -0.090 A 
ATOM     10  C   LIG    1       -6.327   1.586   0.149  0.00  0.00    +0.100 C 
ATOM     11  C   LIG    1       -3.828   1.666   0.112  0.00  0.00    +0.010 A 
BRANCH   8  12
ATOM     12  N   LIG    1       -6.080  -1.202  -0.349  0.00  0.00    -0.470 N 
ATOM     13  C   LIG    1       -7.018  -0.594  -1.327  0.00  0.00    +0.180 C 
ATOM     14  C   LIG    1       -7.950  -1.772  -1.704  0.00  0.00    +0.030 C 
ATOM     15  C   LIG    1       -6.987  -2.981  -1.731  0.00  0.00    +0.020 C 
ATOM     16  C   LIG    1       -5.789  -2.559  -0.860  0.00  0.00    +0.180 C 
ENDBRANCH   8  12
ENDBRANCH   2   5
BRANCH   1  17
ATOM     17  C   LIG    1        0.984   2.036   0.645  0.00  0.00    +0.120 C 
BRANCH  17  21
ATOM     18  C   LIG    1        4.018  -0.298   2.545  0.00  0.00    +0.150 A 
ATOM     19  C   LIG    1        3.813  -0.405   1.176  0.00  0.00    +0.010 A 
ATOM     20  C   LIG    1        2.832   0.350   0.565  0.00  0.00    +0.040 A 
ATOM     21  C   LIG    1        2.053   1.213   1.315  0.00  0.00    -0.090 A 
ATOM     22  C   LIG    1        2.258   1.326   2.678  0.00  0.00    +0.040 A 
ATOM     23  C   LIG    1        3.235   0.569   3.296  0.00  0.00    -0.010 A 
BRANCH  18  26
ATOM     24  C   LIG    1        7.178  -2.254   3.136  0.00  0.00    +0.110 C 
ATOM     25  C   LIG    1        6.161  -1.331   2.517  0.00  0.00    +0.510 C 
ATOM     26  N   LIG    1        5.012  -1.061   3.167  0.00  0.00    -0.680 N 
ATOM     27  H   LIG    1        4.873  -1.397   4.067  0.00  0.00    +0.410 HD
ATOM     28  O   LIG    1        6.376  -0.830   1.433  0.00  0.00    -0.530 OA
ENDBRANCH  18  26
ENDBRANCH  17  21
ENDBRANCH   1  17
TORSDOF 5
