REMARK  Name = ZINCpe000000UmPc.0
REMARK                            x       y       z     vdW  Elec       q    Type
REMARK                         _______ _______ _______ _____ _____    ______ ____
ROOT
ATOM      1  C   LIG    1        1.281  -0.719  -0.014  0.00  0.00    +0.380 C 
ENDROOT
BRANCH   1   5
ATOM      2  C   LIG    1        3.002  -3.065  -4.095  0.00  0.00    +0.360 C 
ATOM      3  N   LIG    1        2.116  -2.597  -3.026  0.00  0.00    -0.370 N 
ATOM      4  C   LIG    1        2.455  -1.759  -2.024  0.00  0.00    +0.260 A 
ATOM      5  C   LIG    1        1.360  -1.578  -1.250  0.00  0.00    -0.270 A 
ATOM      6  C   LIG    1        0.314  -2.324  -1.803  0.00  0.00    +0.250 A 
ATOM      7  N   LIG    1        0.766  -2.935  -2.868  0.00  0.00    -0.290 NA
ENDBRANCH   1   5
BRANCH   1   8
ATOM      8  N   LIG    1        0.002  -0.004   0.002  0.00  0.00    -0.570 N 
ATOM      9  C   LIG    1       -0.016   1.344   0.009  0.00  0.00    +0.660 C 
ATOM     10  O   LIG    1        1.028   1.965   0.003  0.00  0.00    -0.570 OA
ATOM     11  C   LIG    1       -1.256  -0.754   0.010  0.00  0.00    +0.300 C 
BRANCH   9  12
ATOM     12  O   LIG    1       -1.191   2.001   0.019  0.00  0.00    -0.350 OA
BRANCH  12  13
ATOM     13  C   LIG    1       -1.135   3.452   0.026  0.00  0.00    +0.140 C 
ATOM     14  C   LIG    1       -0.389   3.927   1.274  0.00  0.00    +0.040 C 
ATOM     15  C   LIG    1       -2.557   4.017   0.036  0.00  0.00    +0.080 C 
ATOM     16  C   LIG    1       -0.400   3.940  -1.224  0.00  0.00    +0.040 C 
ENDBRANCH  12  13
ENDBRANCH   9  12
ENDBRANCH   1   8
BRANCH   1  17
ATOM     17  C   LIG    1        1.384  -1.591   1.211  0.00  0.00    +0.510 C 
ATOM     18  N   LIG    1        2.482  -2.346   1.410  0.00  0.00    -0.520 N 
ATOM     19  H   LIG    1        3.206  -2.329   0.764  0.00  0.00    +0.430 HD
ATOM     20  O   LIG    1        0.479  -1.613   2.018  0.00  0.00    -0.520 OA
BRANCH  18  21
ATOM     21  N   LIG    1        2.578  -3.157   2.548  0.00  0.00    -0.520 N 
ATOM     22  H   LIG    1        1.854  -3.175   3.194  0.00  0.00    +0.430 HD
ATOM     23  C   LIG    1        3.676  -3.913   2.747  0.00  0.00    +0.550 C 
ATOM     24  O   LIG    1        4.582  -3.891   1.940  0.00  0.00    -0.540 OA
BRANCH  23  25
ATOM     25  C   LIG    1        3.780  -4.784   3.972  0.00  0.00    -0.060 C 
ATOM     26  C   LIG    1        4.812  -4.394   5.031  0.00  0.00    +0.060 C 
ATOM     27  C   LIG    1        5.053  -5.617   4.141  0.00  0.00    +0.080 C 
ENDBRANCH  23  25
ENDBRANCH  18  21
ENDBRANCH   1  17
TORSDOF 7
