REMARK  Name = ZINCpe00000Oa3YR.0
REMARK                            x       y       z     vdW  Elec       q    Type
REMARK                         _______ _______ _______ _____ _____    ______ ____
ROOT
ATOM      1  C   LIG    1        1.197  -1.240   0.050  0.00  0.00    +0.320 C 
ENDROOT
BRANCH   1   2
ATOM      2  C   LIG    1        1.548   0.249   0.087  0.00  0.00    +0.120 C 
ATOM      3  C   LIG    1        2.840   0.518  -0.714  0.00  0.00    +0.030 C 
ATOM      4  C   LIG    1        3.587   1.606   0.085  0.00  0.00    +0.180 C 
ATOM      5  C   LIG    1        2.683   1.903   1.301  0.00  0.00    +0.180 C 
ATOM      6  F   LIG    1        4.832   1.129   0.510  0.00  0.00    -0.200 F 
ATOM      7  N   LIG    1        1.869   0.671   1.475  0.00  0.00    -0.500 NA
BRANCH   7   8
ATOM      8  C   LIG    1        0.645   0.949   2.237  0.00  0.00    +0.310 C 
BRANCH   8   9
ATOM      9  C   LIG    1        0.993   1.153   3.689  0.00  0.00    -0.020 A 
ATOM     10  C   LIG    1        1.209   2.336   4.312  0.00  0.00    -0.060 A 
ATOM     11  C   LIG    1        1.493   1.972   5.649  0.00  0.00    +0.010 A 
ATOM     12  N   LIG    1        1.432   0.672   5.696  0.00  0.00    -0.360 NA
ATOM     13  C   LIG    1        1.811   2.902   6.790  0.00  0.00    +0.160 C 
ATOM     14  O   LIG    1        1.155   0.200   4.617  0.00  0.00    +0.110 OA
ENDBRANCH   8   9
ENDBRANCH   7   8
ENDBRANCH   1   2
BRANCH   1  16
ATOM     15  C   LIG    1       -0.223  -1.480  -1.916  0.00  0.00    +0.560 C 
ATOM     16  N   LIG    1        0.982  -1.657  -1.338  0.00  0.00    -0.600 N 
ATOM     17  C   LIG    1        2.077  -2.265  -2.098  0.00  0.00    +0.290 C 
ATOM     18  O   LIG    1       -1.154  -1.064  -1.260  0.00  0.00    -0.520 OA
BRANCH  15  19
ATOM     19  C   LIG    1       -0.412  -1.799  -3.377  0.00  0.00    -0.200 C 
ATOM     20  C   LIG    1       -1.658  -2.595  -3.770  0.00  0.00    +0.100 C 
ATOM     21  C   LIG    1       -0.281  -3.263  -3.802  0.00  0.00    +0.100 C 
BRANCH  19  25
ATOM     22  C   LIG    1       -0.029   1.496  -5.284  0.00  0.00    +0.290 C 
ATOM     23  N   LIG    1       -0.419   0.504  -4.279  0.00  0.00    -0.730 N 
ATOM     24  H   LIG    1       -1.034   0.749  -3.569  0.00  0.00    +0.410 HD
ATOM     25  C   LIG    1        0.076  -0.748  -4.340  0.00  0.00    +0.560 C 
ATOM     26  O   LIG    1        0.913  -1.029  -5.171  0.00  0.00    -0.520 OA
ENDBRANCH  19  25
ENDBRANCH  15  19
ENDBRANCH   1  16
TORSDOF 6
