REMARK  Name = ZINCue00000002I9.0
REMARK                            x       y       z     vdW  Elec       q    Type
REMARK                         _______ _______ _______ _____ _____    ______ ____
ROOT
ATOM      1  C   LIG    1       -6.477  -0.765  -0.768  0.00  0.00    -0.020 A 
ATOM      2  C   LIG    1       -5.455   0.176  -0.910  0.00  0.00    -0.030 A 
ATOM      3  C   LIG    1       -6.113   1.388  -1.196  0.00  0.00    +0.210 A 
ATOM      4  N   LIG    1       -7.398   1.151  -1.209  0.00  0.00    -0.260 NA
ATOM      5  N   LIG    1       -7.647  -0.084  -0.962  0.00  0.00    -0.380 N 
ATOM      6  H   LIG    1       -8.534  -0.476  -0.923  0.00  0.00    +0.440 HD
ENDROOT
BRANCH   2   7
ATOM      7  C   LIG    1       -3.995  -0.052  -0.791  0.00  0.00    +0.000 A 
ATOM      8  C   LIG    1       -3.028   0.897  -0.937  0.00  0.00    +0.220 A 
ATOM      9  N   LIG    1       -1.835   0.269  -0.753  0.00  0.00    -0.300 N 
ATOM     10  N   LIG    1       -2.128  -1.076  -0.485  0.00  0.00    -0.060 NA
ATOM     11  N   LIG    1       -3.406  -1.225  -0.516  0.00  0.00    -0.170 NA
BRANCH   9  12
ATOM     12  C   LIG    1       -0.561   0.854  -0.813  0.00  0.00    +0.110 A 
ATOM     13  C   LIG    1       -0.432   2.210  -1.086  0.00  0.00    -0.010 A 
ATOM     14  C   LIG    1        0.821   2.792  -1.151  0.00  0.00    +0.010 A 
ATOM     15  C   LIG    1        1.952   2.030  -0.942  0.00  0.00    +0.060 A 
ATOM     16  C   LIG    1        1.833   0.666  -0.662  0.00  0.00    -0.110 A 
ATOM     17  C   LIG    1        0.567   0.080  -0.596  0.00  0.00    +0.080 A 
BRANCH  16  18
ATOM     18  C   LIG    1        3.040  -0.152  -0.439  0.00  0.00    +0.520 C 
ATOM     19  O   LIG    1        4.147   0.363  -0.497  0.00  0.00    -0.680 OA
ATOM     20  O   LIG    1        2.933  -1.346  -0.195  0.00  0.00    -0.680 OA
ENDBRANCH  16  18
ENDBRANCH   9  12
ENDBRANCH   2   7
BRANCH   1  23
ATOM     21  N   LIG    1       -7.416  -2.978  -0.362  0.00  0.00    -0.730 N 
ATOM     22  H   LIG    1       -8.300  -2.599  -0.483  0.00  0.00    +0.390 HD
ATOM     23  C   LIG    1       -6.326  -2.193  -0.469  0.00  0.00    +0.570 C 
ATOM     24  O   LIG    1       -5.216  -2.669  -0.317  0.00  0.00    -0.460 OA
BRANCH  21  25
ATOM     25  C   LIG    1       -7.265  -4.405  -0.064  0.00  0.00    +0.280 C 
BRANCH  25  26
ATOM     26  C   LIG    1       -8.647  -5.036   0.121  0.00  0.00    +0.070 C 
ATOM     27  C   LIG    1       -9.356  -4.434   1.359  0.00  0.00    +0.050 C 
ATOM     28  C   LIG    1      -10.024  -5.683   1.989  0.00  0.00    +0.220 C 
ATOM     29  O   LIG    1       -9.054  -6.730   1.771  0.00  0.00    -0.370 OA
ATOM     30  C   LIG    1       -8.515  -6.535   0.453  0.00  0.00    +0.200 C 
BRANCH  26  32
ATOM     31  C   LIG    1       -8.855  -5.388  -2.241  0.00  0.00    +0.210 C 
ATOM     32  O   LIG    1       -9.441  -4.852  -1.053  0.00  0.00    -0.370 OA
ENDBRANCH  26  32
ENDBRANCH  25  26
ENDBRANCH  21  25
ENDBRANCH   1  23
TORSDOF 7
