REMARK  Name = ZINCue00000002I9.1
REMARK                            x       y       z     vdW  Elec       q    Type
REMARK                         _______ _______ _______ _____ _____    ______ ____
ROOT
ATOM      1  C   LIG    1        1.183   1.836  -0.557  0.00  0.00    +0.010 A 
ATOM      2  N   LIG    1        1.332   3.130  -0.760  0.00  0.00    -0.250 NA
ATOM      3  N   LIG    1        2.567   3.417  -0.958  0.00  0.00    -0.380 N 
ATOM      4  H   LIG    1        2.899   4.313  -1.126  0.00  0.00    +0.450 HD
ATOM      5  C   LIG    1        3.344   2.316  -0.909  0.00  0.00    +0.190 A 
ATOM      6  C   LIG    1        2.527   1.252  -0.654  0.00  0.00    -0.060 A 
ENDROOT
BRANCH   6   7
ATOM      7  C   LIG    1        2.910  -0.174  -0.509  0.00  0.00    +0.010 A 
ATOM      8  C   LIG    1        4.174  -0.670  -0.608  0.00  0.00    +0.210 A 
ATOM      9  N   LIG    1        4.083  -2.015  -0.410  0.00  0.00    -0.300 N 
ATOM     10  N   LIG    1        2.726  -2.294  -0.192  0.00  0.00    -0.060 NA
ATOM     11  N   LIG    1        2.071  -1.187  -0.252  0.00  0.00    -0.170 NA
BRANCH   9  12
ATOM     12  C   LIG    1        5.138  -2.939  -0.424  0.00  0.00    +0.110 A 
ATOM     13  C   LIG    1        6.448  -2.495  -0.552  0.00  0.00    -0.010 A 
ATOM     14  C   LIG    1        7.493  -3.401  -0.565  0.00  0.00    +0.010 A 
ATOM     15  C   LIG    1        7.242  -4.752  -0.450  0.00  0.00    +0.060 A 
ATOM     16  C   LIG    1        5.927  -5.209  -0.321  0.00  0.00    -0.110 A 
ATOM     17  C   LIG    1        4.874  -4.293  -0.303  0.00  0.00    +0.080 A 
BRANCH  16  18
ATOM     18  C   LIG    1        5.655  -6.654  -0.198  0.00  0.00    +0.520 C 
ATOM     19  O   LIG    1        4.504  -7.052  -0.084  0.00  0.00    -0.680 OA
ATOM     20  O   LIG    1        6.580  -7.454  -0.209  0.00  0.00    -0.680 OA
ENDBRANCH  16  18
ENDBRANCH   9  12
ENDBRANCH   6   7
BRANCH   1  23
ATOM     21  N   LIG    1       -1.241   1.798  -0.236  0.00  0.00    -0.720 N 
ATOM     22  H   LIG    1       -1.248   2.759  -0.368  0.00  0.00    +0.410 HD
ATOM     23  C   LIG    1       -0.078   1.119  -0.291  0.00  0.00    +0.590 C 
ATOM     24  O   LIG    1       -0.070  -0.086  -0.127  0.00  0.00    -0.470 OA
BRANCH  21  25
ATOM     25  C   LIG    1       -2.495   1.085   0.021  0.00  0.00    +0.270 C 
BRANCH  25  26
ATOM     26  C   LIG    1       -3.636   2.095   0.160  0.00  0.00    +0.070 C 
ATOM     27  C   LIG    1       -3.363   3.064   1.332  0.00  0.00    +0.030 C 
ATOM     28  C   LIG    1       -4.540   2.819   2.303  0.00  0.00    +0.210 C 
ATOM     29  O   LIG    1       -4.996   1.483   2.001  0.00  0.00    -0.360 OA
ATOM     30  C   LIG    1       -4.945   1.380   0.561  0.00  0.00    +0.200 C 
BRANCH  26  32
ATOM     31  C   LIG    1       -4.190   2.006  -2.171  0.00  0.00    +0.210 C 
ATOM     32  O   LIG    1       -3.812   2.820  -1.059  0.00  0.00    -0.370 OA
ENDBRANCH  26  32
ENDBRANCH  25  26
ENDBRANCH  21  25
ENDBRANCH   1  23
TORSDOF 7
