REMARK  Name = ZINCqH0000051jIw.0
REMARK                            x       y       z     vdW  Elec       q    Type
REMARK                         _______ _______ _______ _____ _____    ______ ____
ROOT
ATOM      1  O   LIG    1        1.725   5.622   3.634  0.00  0.00    -0.520 OA
ATOM      2  C   LIG    1        1.444   6.228   2.619  0.00  0.00    +0.600 C 
ATOM      3  N   LIG    1        1.262   5.558   1.463  0.00  0.00    -0.710 N 
ATOM      4  H   LIG    1        1.038   6.041   0.653  0.00  0.00    +0.410 HD
ENDROOT
BRANCH   2   5
ATOM      5  C   LIG    1        1.302   7.704   2.651  0.00  0.00    -0.020 A 
ATOM      6  N   LIG    1        1.004   8.487   1.643  0.00  0.00    -0.320 NA
ATOM      7  O   LIG    1        0.959   9.648   1.975  0.00  0.00    +0.140 OA
ATOM      8  C   LIG    1        1.227   9.802   3.284  0.00  0.00    +0.020 A 
ATOM      9  C   LIG    1        1.455   8.549   3.780  0.00  0.00    +0.030 A 
BRANCH   8  10
ATOM     10  C   LIG    1        1.262  11.074   4.037  0.00  0.00    -0.010 A 
ATOM     11  C   LIG    1        0.999  12.281   3.388  0.00  0.00    +0.050 A 
ATOM     12  C   LIG    1        1.033  13.464   4.096  0.00  0.00    +0.040 A 
ATOM     13  C   LIG    1        1.327  13.457   5.448  0.00  0.00    +0.050 A 
ATOM     14  C   LIG    1        1.589  12.263   6.099  0.00  0.00    -0.030 A 
ATOM     15 CL   LIG    1        1.956  12.264   7.796  0.00  0.00    -0.060 Cl
ATOM     16  C   LIG    1        1.553  11.072   5.402  0.00  0.00    +0.060 A 
ENDBRANCH   8  10
ENDBRANCH   2   5
BRANCH   3  17
ATOM     17  C   LIG    1        1.403   4.100   1.431  0.00  0.00    +0.260 C 
BRANCH  17  18
ATOM     18  C   LIG    1        1.147   3.594   0.010  0.00  0.00    +0.260 C 
BRANCH  18  19
ATOM     19  C   LIG    1        1.170   2.087   0.002  0.00  0.00    -0.100 A 
ATOM     20  C   LIG    1       -0.017   1.378   0.010  0.00  0.00    +0.070 A 
ATOM     21  C   LIG    1        0.002  -0.004   0.002  0.00  0.00    +0.030 A 
ATOM     22  C   LIG    1        1.210  -0.679  -0.013  0.00  0.00    +0.070 A 
ATOM     23  C   LIG    1        2.400   0.032  -0.021  0.00  0.00    +0.070 A 
ATOM     24  F   LIG    1        3.580  -0.626  -0.036  0.00  0.00    -0.120 F 
ATOM     25  F   LIG    1        1.229  -2.030  -0.021  0.00  0.00    -0.120 F 
ATOM     26  C   LIG    1        2.378   1.415  -0.013  0.00  0.00    +0.030 A 
ENDBRANCH  18  19
BRANCH  18  27
ATOM     27  O   LIG    1        2.163   4.091  -0.863  0.00  0.00    -0.550 OA
ATOM     28  H   LIG    1        3.058   3.818  -0.620  0.00  0.00    +0.380 HD
ENDBRANCH  18  27
ENDBRANCH  17  18
ENDBRANCH   3  17
TORSDOF 6
