REMARK  Name = ZINCqH0000004yc9.0
REMARK                            x       y       z     vdW  Elec       q    Type
REMARK                         _______ _______ _______ _____ _____    ______ ____
ROOT
ATOM      1  C   LIG    1       -0.057   2.697   8.295  0.00  0.00    +0.050 A 
ATOM      2  C   LIG    1        0.441   2.746   7.033  0.00  0.00    +0.040 A 
ATOM      3  C   LIG    1        1.607   3.525   7.061  0.00  0.00    +0.270 A 
ATOM      4  N   LIG    1        1.807   3.925   8.290  0.00  0.00    -0.260 NA
ATOM      5  N   LIG    1        0.778   3.417   9.093  0.00  0.00    -0.330 N 
ENDROOT
BRANCH   2   6
ATOM      6  N   LIG    1       -0.117   2.128   5.897  0.00  0.00    -0.650 N 
ATOM      7  H   LIG    1       -0.931   1.607   5.979  0.00  0.00    +0.400 HD
ATOM      8  C   LIG    1        0.480   2.262   4.696  0.00  0.00    +0.730 C 
ATOM      9  N   LIG    1       -0.054   1.671   3.609  0.00  0.00    -0.630 N 
ATOM     10  C   LIG    1       -1.282   0.853   3.590  0.00  0.00    +0.230 C 
ATOM     11  C   LIG    1       -1.136  -0.062   2.345  0.00  0.00    +0.050 C 
ATOM     12  C   LIG    1       -0.418   0.876   1.360  0.00  0.00    -0.110 C 
ATOM     13  C   LIG    1        0.375   0.090   0.312  0.00  0.00    +0.030 C 
ATOM     14  C   LIG    1       -0.240   0.548  -1.033  0.00  0.00    +0.190 C 
ATOM     15  O   LIG    1       -0.820   1.842  -0.754  0.00  0.00    -0.370 OA
ATOM     16  C   LIG    1       -1.416   1.725   0.560  0.00  0.00    +0.220 C 
ATOM     17  C   LIG    1        0.491   1.734   2.241  0.00  0.00    +0.300 C 
ATOM     18  O   LIG    1        1.500   2.916   4.593  0.00  0.00    -0.570 OA
ENDBRANCH   2   6
BRANCH   5  19
ATOM     19  C   LIG    1        0.630   3.619  10.472  0.00  0.00    +0.170 A 
ATOM     20  C   LIG    1        0.427   2.537  11.316  0.00  0.00    +0.030 A 
ATOM     21  C   LIG    1        0.282   2.739  12.675  0.00  0.00    +0.040 A 
ATOM     22  C   LIG    1        0.338   4.019  13.195  0.00  0.00    +0.040 A 
ATOM     23  C   LIG    1        0.540   5.101  12.358  0.00  0.00    +0.040 A 
ATOM     24  C   LIG    1        0.692   4.904  10.998  0.00  0.00    -0.030 A 
ATOM     25 CL   LIG    1        0.953   6.262   9.948  0.00  0.00    -0.040 Cl
ENDBRANCH   5  19
BRANCH   1  27
ATOM     26  C   LIG    1       -2.482   2.952   8.744  0.00  0.00    +0.040 C 
ATOM     27  C   LIG    1       -1.305   1.975   8.732  0.00  0.00    +0.100 C 
ENDBRANCH   1  27
TORSDOF 3
