REMARK  Name = ZINCrH000004jUUU.0
REMARK                            x       y       z     vdW  Elec       q    Type
REMARK                         _______ _______ _______ _____ _____    ______ ____
ROOT
ATOM      1  C   LIG    1       -2.186   0.239  -2.854  0.00  0.00    -0.060 A 
ATOM      2  C   LIG    1       -2.065   0.813  -1.625  0.00  0.00    +0.080 A 
ATOM      3  C   LIG    1       -1.228   2.012  -1.263  0.00  0.00    +0.150 C 
ATOM      4  C   LIG    1       -0.825   1.917   0.211  0.00  0.00    +0.020 C 
ATOM      5  C   LIG    1       -1.901   2.567   1.077  0.00  0.00    +0.010 C 
ATOM      6  C   LIG    1       -3.236   1.845   0.902  0.00  0.00    +0.020 C 
ATOM      7  C   LIG    1       -2.988   0.353   0.664  0.00  0.00    +0.300 C 
ATOM      8  N   LIG    1       -2.843   0.106  -0.773  0.00  0.00    -0.440 N 
ATOM      9  C   LIG    1       -3.449  -0.882  -1.496  0.00  0.00    +0.240 A 
ATOM     10  N   LIG    1       -3.045  -0.797  -2.741  0.00  0.00    -0.440 NA
ENDROOT
BRANCH   9  11
ATOM     11  C   LIG    1       -4.402  -1.881  -0.963  0.00  0.00    -0.010 A 
ATOM     12  C   LIG    1       -5.425  -2.374  -1.773  0.00  0.00    +0.050 A 
ATOM     13  C   LIG    1       -6.307  -3.309  -1.272  0.00  0.00    +0.010 A 
ATOM     14  C   LIG    1       -6.186  -3.749   0.035  0.00  0.00    +0.020 A 
ATOM     15  C   LIG    1       -5.177  -3.259   0.845  0.00  0.00    +0.010 A 
ATOM     16  C   LIG    1       -4.285  -2.328   0.353  0.00  0.00    +0.000 A 
ENDBRANCH   9  11
BRANCH   1  19
ATOM     17  C   LIG    1       -2.515  -1.220  -5.244  0.00  0.00    +0.290 C 
ATOM     18  N   LIG    1       -1.626  -0.056  -5.215  0.00  0.00    -0.600 N 
ATOM     19  C   LIG    1       -1.503   0.670  -4.087  0.00  0.00    +0.600 C 
ATOM     20  O   LIG    1       -0.828   1.682  -4.085  0.00  0.00    -0.540 OA
BRANCH  18  21
ATOM     21  C   LIG    1       -0.870   0.318  -6.413  0.00  0.00    +0.290 C 
BRANCH  21  22
ATOM     22  C   LIG    1        0.483  -0.395  -6.406  0.00  0.00    -0.060 C 
ATOM     23  C   LIG    1        1.222  -0.104  -7.716  0.00  0.00    +0.020 C 
ATOM     24  C   LIG    1        2.606  -0.758  -7.665  0.00  0.00    -0.010 C 
ATOM     25  C   LIG    1        3.364  -0.235  -6.441  0.00  0.00    +0.200 C 
ATOM     26  O   LIG    1        2.608  -0.511  -5.261  0.00  0.00    -0.380 OA
ATOM     27  C   LIG    1        1.323   0.113  -5.231  0.00  0.00    +0.220 C 
ENDBRANCH  21  22
ENDBRANCH  18  21
ENDBRANCH   1  19
TORSDOF 4
