REMARK  Name = ZINCkj0000058UQW.0
REMARK                            x       y       z     vdW  Elec       q    Type
REMARK                         _______ _______ _______ _____ _____    ______ ____
ROOT
ATOM      1  N   LIG    1       -3.075   3.732  -1.083  0.00  0.00    -0.500 N 
ATOM      2  H   LIG    1       -3.422   2.788  -1.002  0.00  0.00    +0.440 HD
ATOM      3  H   LIG    1       -2.568   3.830  -1.950  0.00  0.00    +0.430 HD
ENDROOT
BRANCH   1   4
ATOM      4  C   LIG    1       -2.180   4.023   0.044  0.00  0.00    +0.160 C 
ATOM      5  C   LIG    1       -2.949   3.874   1.359  0.00  0.00    +0.120 C 
BRANCH   4   6
ATOM      6  C   LIG    1       -1.021   3.059   0.028  0.00  0.00    -0.060 A 
ATOM      7  N   LIG    1       -1.131   1.774   0.017  0.00  0.00    -0.450 NA
ATOM      8  C   LIG    1       -0.013   1.076   0.008  0.00  0.00    +0.230 A 
ATOM      9  C   LIG    1        1.101   1.814   0.001  0.00  0.00    -0.040 A 
ATOM     10  S   LIG    1        0.628   3.511   0.015  0.00  0.00    +0.230 S 
ENDBRANCH   4   6
BRANCH   4  12
ATOM     11  C   LIG    1       -0.993   5.639  -1.446  0.00  0.00    +0.040 C 
ATOM     12  C   LIG    1       -1.654   5.455  -0.079  0.00  0.00    +0.080 C 
ENDBRANCH   4  12
ENDBRANCH   1   4
BRANCH   1  13
ATOM     13  C   LIG    1       -4.204   4.671  -1.067  0.00  0.00    +0.270 C 
BRANCH  13  14
ATOM     14  C   LIG    1       -5.137   4.368  -2.242  0.00  0.00    +0.020 C 
BRANCH  14  15
ATOM     15  C   LIG    1       -6.313   5.346  -2.225  0.00  0.00    +0.350 C 
BRANCH  15  16
ATOM     16  N   LIG    1       -7.206   5.056  -3.350  0.00  0.00    -0.580 N 
ATOM     17  C   LIG    1       -7.092   5.615  -4.571  0.00  0.00    +0.520 C 
ATOM     18  C   LIG    1       -8.215   5.022  -5.399  0.00  0.00    +0.320 C 
ATOM     19  N   LIG    1       -8.899   4.119  -4.458  0.00  0.00    -0.720 N 
ATOM     20  H   LIG    1       -9.676   3.568  -4.644  0.00  0.00    +0.450 HD
ATOM     21  O   LIG    1       -6.263   6.423  -4.932  0.00  0.00    -0.460 OA
ATOM     22  C   LIG    1       -8.238   4.207  -3.290  0.00  0.00    +0.700 C 
ATOM     23  O   LIG    1       -8.544   3.584  -2.292  0.00  0.00    -0.540 OA
ENDBRANCH  15  16
ENDBRANCH  14  15
ENDBRANCH  13  14
ENDBRANCH   1  13
TORSDOF 7
