REMARK  Name = ZINCrH000004nMKd.0
REMARK                            x       y       z     vdW  Elec       q    Type
REMARK                         _______ _______ _______ _____ _____    ______ ____
ROOT
ATOM      1  C   LIG    1       -1.157   3.574   2.633  0.00  0.00    +0.520 C 
ATOM      2  N   LIG    1       -1.128   2.926   3.815  0.00  0.00    -0.670 N 
ATOM      3  H   LIG    1       -0.753   2.034   3.870  0.00  0.00    +0.410 HD
ATOM      4  O   LIG    1       -1.762   4.620   2.529  0.00  0.00    -0.520 OA
ENDROOT
BRANCH   1   9
ATOM      5  N   LIG    1       -0.032   3.283  -0.949  0.00  0.00    -1.000 NA
ATOM      6  C   LIG    1       -0.447   1.917  -1.298  0.00  0.00    +0.280 C 
ATOM      7  C   LIG    1       -0.260   1.016  -0.074  0.00  0.00    +0.020 C 
ATOM      8  C   LIG    1       -1.011   1.616   1.117  0.00  0.00    +0.030 C 
ATOM      9  C   LIG    1       -0.438   2.997   1.440  0.00  0.00    -0.010 C 
ATOM     10  C   LIG    1       -0.627   3.921   0.233  0.00  0.00    +0.320 C 
BRANCH   5  12
ATOM     11  C   LIG    1        0.101   4.955  -3.121  0.00  0.00    -0.280 C 
ATOM     12  S   LIG    1        1.086   4.086  -1.869  0.00  0.00    +2.610 S 
ATOM     13  O   LIG    1        1.855   3.053  -2.468  0.00  0.00    -0.950 OA
ATOM     14  O   LIG    1        1.679   5.013  -0.970  0.00  0.00    -0.950 OA
ENDBRANCH   5  12
ENDBRANCH   1   9
BRANCH   2  15
ATOM     15  C   LIG    1       -1.641   3.543   4.963  0.00  0.00    +0.110 A 
ATOM     16  C   LIG    1       -1.107   3.243   6.210  0.00  0.00    +0.020 A 
ATOM     17  C   LIG    1       -1.608   3.855   7.341  0.00  0.00    -0.040 A 
ATOM     18  C   LIG    1       -2.653   4.762   7.234  0.00  0.00    +0.110 A 
ATOM     19  C   LIG    1       -3.191   5.059   5.990  0.00  0.00    +0.020 A 
ATOM     20  C   LIG    1       -2.686   4.451   4.857  0.00  0.00    +0.070 A 
BRANCH  18  21
ATOM     21  O   LIG    1       -3.151   5.360   8.349  0.00  0.00    -0.250 OA
BRANCH  21  22
ATOM     22  C   LIG    1       -2.505   5.153   9.527  0.00  0.00    +0.090 A 
ATOM     23  C   LIG    1       -2.934   4.155  10.389  0.00  0.00    +0.030 A 
ATOM     24  C   LIG    1       -2.272   3.943  11.583  0.00  0.00    +0.040 A 
ATOM     25  C   LIG    1       -1.188   4.731  11.924  0.00  0.00    +0.040 A 
ATOM     26  C   LIG    1       -0.761   5.731  11.069  0.00  0.00    +0.040 A 
ATOM     27  C   LIG    1       -1.416   5.944   9.871  0.00  0.00    -0.050 A 
ATOM     28 CL   LIG    1       -0.879   7.199   8.799  0.00  0.00    -0.050 Cl
ENDBRANCH  21  22
ENDBRANCH  18  21
ENDBRANCH   2  15
TORSDOF 5
