REMARK  Name = ZINCpe00000bcWG7.0
REMARK                            x       y       z     vdW  Elec       q    Type
REMARK                         _______ _______ _______ _____ _____    ______ ____
ROOT
ATOM      1  C   LIG    1       -0.070   5.631   0.058  0.00  0.00    +0.570 C 
ATOM      2  N   LIG    1       -1.237   6.296   0.167  0.00  0.00    -0.610 N 
ATOM      3  C   LIG    1       -2.521   5.577   0.165  0.00  0.00    +0.260 C 
ATOM      4  C   LIG    1       -3.341   6.045   1.373  0.00  0.00    +0.220 C 
ATOM      5  O   LIG    1       -3.417   7.473   1.366  0.00  0.00    -0.350 OA
ATOM      6  C   LIG    1       -2.154   8.126   1.486  0.00  0.00    +0.100 C 
ATOM      7  C   LIG    1       -2.347   9.641   1.552  0.00  0.00    +0.110 C 
ATOM      8  C   LIG    1       -2.523  10.142   2.993  0.00  0.00    -0.300 C 
ATOM      9  S   LIG    1       -2.352   8.654   4.049  0.00  0.00    +2.390 S 
ATOM     10  O   LIG    1       -3.634   8.091   4.292  0.00  0.00    -0.920 OA
ATOM     11  O   LIG    1       -1.481   8.937   5.135  0.00  0.00    -0.930 OA
ATOM     12  C   LIG    1       -1.462   7.652   2.789  0.00  0.00    -0.330 C 
ATOM     13  C   LIG    1       -1.265   7.761   0.299  0.00  0.00    +0.300 C 
ATOM     14  O   LIG    1        0.977   6.246   0.001  0.00  0.00    -0.530 OA
ENDROOT
BRANCH   1  18
ATOM     15  C   LIG    1       -0.048   1.386  -0.085  0.00  0.00    +0.170 A 
ATOM     16  C   LIG    1       -1.104   2.095  -0.651  0.00  0.00    -0.010 A 
ATOM     17  C   LIG    1       -1.117   3.470  -0.601  0.00  0.00    +0.060 A 
ATOM     18  C   LIG    1       -0.062   4.156   0.009  0.00  0.00    -0.150 A 
ATOM     19  C   LIG    1        0.999   3.442   0.571  0.00  0.00    +0.100 A 
ATOM     20  C   LIG    1        1.003   2.066   0.523  0.00  0.00    +0.020 A 
BRANCH  15  22
ATOM     21  C   LIG    1        1.123  -0.669  -0.285  0.00  0.00    +0.540 C 
ATOM     22  N   LIG    1       -0.041  -0.006  -0.133  0.00  0.00    -0.670 N 
ATOM     23  H   LIG    1       -0.873  -0.498  -0.056  0.00  0.00    +0.420 HD
ATOM     24  O   LIG    1        2.174  -0.058  -0.295  0.00  0.00    -0.520 OA
BRANCH  21  26
ATOM     25  C   LIG    1        2.270  -2.786  -0.589  0.00  0.00    +0.160 C 
ATOM     26  C   LIG    1        1.121  -2.132  -0.439  0.00  0.00    -0.090 C 
ENDBRANCH  21  26
ENDBRANCH  15  22
ENDBRANCH   1  18
TORSDOF 3
