REMARK  Name = ZINCrH000004sooB.0
REMARK                            x       y       z     vdW  Elec       q    Type
REMARK                         _______ _______ _______ _____ _____    ______ ____
ROOT
ATOM      1  C   LIG    1        4.816  -0.023  -0.349  0.00  0.00    +0.570 C 
ATOM      2  N   LIG    1        3.639  -0.604  -0.045  0.00  0.00    -0.540 N 
ATOM      3  C   LIG    1        3.554  -2.045   0.252  0.00  0.00    +0.260 C 
ATOM      4  C   LIG    1        2.302  -2.590  -0.450  0.00  0.00    +0.250 C 
ATOM      5  O   LIG    1        1.159  -1.873   0.021  0.00  0.00    -0.310 OA
ATOM      6  C   LIG    1        1.220  -0.515   0.026  0.00  0.00    +0.150 A 
ATOM      7  C   LIG    1        0.048   0.223   0.061  0.00  0.00    -0.070 A 
ATOM      8  C   LIG    1        0.101   1.610   0.074  0.00  0.00    +0.230 A 
ATOM      9  C   LIG    1        1.327   2.261   0.051  0.00  0.00    -0.080 A 
ATOM     10  C   LIG    1        2.498   1.528   0.014  0.00  0.00    +0.100 A 
ATOM     11  C   LIG    1        2.447   0.143  -0.000  0.00  0.00    +0.020 A 
ATOM     12  O   LIG    1        4.872   1.178  -0.530  0.00  0.00    -0.500 OA
ENDROOT
BRANCH   1  19
ATOM     13  C   LIG    1        6.400   0.089  -2.766  0.00  0.00    +0.140 C 
ATOM     14  C   LIG    1        6.814  -0.802  -1.623  0.00  0.00    +0.200 A 
ATOM     15  N   LIG    1        7.905  -1.528  -1.725  0.00  0.00    -0.470 NA
ATOM     16  C   LIG    1        8.302  -2.331  -0.741  0.00  0.00    +0.240 A 
ATOM     17  C   LIG    1        7.569  -2.427   0.446  0.00  0.00    -0.020 A 
ATOM     18  C   LIG    1        6.430  -1.682   0.593  0.00  0.00    +0.110 A 
ATOM     19  C   LIG    1        6.037  -0.844  -0.462  0.00  0.00    -0.190 A 
BRANCH  16  20
ATOM     20  C   LIG    1        9.530  -3.131  -0.904  0.00  0.00    -0.000 A 
ATOM     21  C   LIG    1       10.336  -3.142  -2.002  0.00  0.00    +0.020 A 
ATOM     22  C   LIG    1       11.385  -4.037  -1.724  0.00  0.00    -0.060 A 
ATOM     23  C   LIG    1       11.168  -4.531  -0.488  0.00  0.00    +0.200 A 
ATOM     24  O   LIG    1       10.047  -3.982   0.004  0.00  0.00    -0.170 OA
ENDBRANCH  16  20
ENDBRANCH   1  19
BRANCH   8  25
ATOM     25  N   LIG    1       -1.084   2.354   0.105  0.00  0.00    -0.640 N 
ATOM     26  C   LIG    1       -1.030   3.812   0.239  0.00  0.00    +0.280 C 
ATOM     27  C   LIG    1       -2.378   1.675   0.003  0.00  0.00    +0.280 C 
ENDBRANCH   8  25
TORSDOF 3
