REMARK  Name = ZINCrH000004nzyV.0
REMARK                            x       y       z     vdW  Elec       q    Type
REMARK                         _______ _______ _______ _____ _____    ______ ____
ROOT
ATOM      1  N   LIG    1       -0.020   1.094   2.454  0.00  0.00    -0.740 N 
ATOM      2  H   LIG    1        0.775   0.547   2.354  0.00  0.00    +0.400 HD
ATOM      3  C   LIG    1       -0.473   1.407   3.684  0.00  0.00    +0.700 C 
ATOM      4  N   LIG    1        0.178   0.960   4.776  0.00  0.00    -0.740 N 
ATOM      5  H   LIG    1        0.974   0.414   4.676  0.00  0.00    +0.400 HD
ATOM      6  O   LIG    1       -1.470   2.091   3.809  0.00  0.00    -0.580 OA
ENDROOT
BRANCH   1   7
ATOM      7  C   LIG    1       -0.729   1.579   1.267  0.00  0.00    +0.290 C 
BRANCH   7   8
ATOM      8  C   LIG    1       -0.013   1.086   0.008  0.00  0.00    +0.080 C 
BRANCH   8  14
ATOM      9  C   LIG    1       -0.474   2.852  -1.712  0.00  0.00    +0.130 A 
ATOM     10  C   LIG    1       -1.142   3.306  -2.840  0.00  0.00    -0.080 A 
ATOM     11  C   LIG    1       -2.081   2.501  -3.456  0.00  0.00    +0.050 A 
ATOM     12  C   LIG    1       -2.350   1.242  -2.953  0.00  0.00    -0.030 A 
ATOM     13  C   LIG    1       -1.681   0.784  -1.833  0.00  0.00    +0.060 A 
ATOM     14  C   LIG    1       -0.742   1.585  -1.213  0.00  0.00    -0.120 A 
BRANCH   9  16
ATOM     15  C   LIG    1        0.670   4.935  -1.669  0.00  0.00    +0.250 C 
ATOM     16  O   LIG    1        0.446   3.644  -1.100  0.00  0.00    -0.310 OA
ENDBRANCH   9  16
ENDBRANCH   8  14
ENDBRANCH   7   8
ENDBRANCH   1   7
BRANCH   4  17
ATOM     17  C   LIG    1       -0.314   1.300   6.113  0.00  0.00    +0.380 C 
BRANCH  17  18
ATOM     18  C   LIG    1        0.225   2.647   6.519  0.00  0.00    +0.120 A 
ATOM     19  C   LIG    1        0.969   3.385   5.619  0.00  0.00    -0.020 A 
ATOM     20  C   LIG    1        1.457   4.626   6.001  0.00  0.00    +0.060 A 
ATOM     21  C   LIG    1        1.185   5.074   7.284  0.00  0.00    -0.040 A 
ATOM     22  C   LIG    1        0.439   4.278   8.132  0.00  0.00    +0.260 A 
ATOM     23  N   LIG    1       -0.013   3.106   7.733  0.00  0.00    -0.470 NA
ENDBRANCH  17  18
BRANCH  17  24
ATOM     24  C   LIG    1        0.146   0.257   7.098  0.00  0.00    -0.080 A 
ATOM     25  C   LIG    1        1.421  -0.269   7.003  0.00  0.00    +0.010 A 
ATOM     26  C   LIG    1        1.845  -1.223   7.909  0.00  0.00    +0.000 A 
ATOM     27  C   LIG    1        0.990  -1.658   8.905  0.00  0.00    +0.000 A 
ATOM     28  C   LIG    1       -0.286  -1.136   8.997  0.00  0.00    +0.010 A 
ATOM     29  C   LIG    1       -0.709  -0.179   8.094  0.00  0.00    +0.040 A 
ENDBRANCH  17  24
ENDBRANCH   4  17
TORSDOF 7
