REMARK  Name = ZINCqH0000006O7w.0
REMARK                            x       y       z     vdW  Elec       q    Type
REMARK                         _______ _______ _______ _____ _____    ______ ____
ROOT
ATOM      1  N   LIG    1       -2.428   1.037   0.019  0.00  0.00    -0.660 N 
ATOM      2  H   LIG    1       -3.272   1.509   0.091  0.00  0.00    +0.420 HD
ATOM      3  C   LIG    1       -2.414  -0.306  -0.090  0.00  0.00    +0.520 C 
ATOM      4  O   LIG    1       -1.359  -0.903  -0.098  0.00  0.00    -0.500 OA
ENDROOT
BRANCH   1  12
ATOM      5  C   LIG    1       -1.154   3.014  -0.557  0.00  0.00    +0.110 A 
ATOM      6  C   LIG    1        0.041   3.714  -0.549  0.00  0.00    -0.040 A 
ATOM      7  C   LIG    1        1.163   3.161   0.043  0.00  0.00    -0.010 A 
ATOM      8  C   LIG    1        1.094   1.910   0.628  0.00  0.00    -0.090 A 
ATOM      9  C   LIG    1       -0.096   1.206   0.625  0.00  0.00    +0.090 A 
ATOM     10  C   LIG    1        2.319   1.312   1.271  0.00  0.00    +0.100 C 
ATOM     11 CL   LIG    1        2.660   4.040   0.051  0.00  0.00    -0.060 Cl
ATOM     12  C   LIG    1       -1.222   1.752   0.029  0.00  0.00    +0.120 A 
BRANCH   5  14
ATOM     13  C   LIG    1       -2.112   4.851  -1.724  0.00  0.00    +0.250 C 
ATOM     14  O   LIG    1       -2.257   3.556  -1.139  0.00  0.00    -0.310 OA
ENDBRANCH   5  14
ENDBRANCH   1  12
BRANCH   3  15
ATOM     15  C   LIG    1       -3.711  -1.066  -0.201  0.00  0.00    +0.020 C 
ATOM     16  C   LIG    1       -4.553  -0.917   1.087  0.00  0.00    +0.100 C 
ATOM     17  C   LIG    1       -4.167  -2.117   1.923  0.00  0.00    +0.520 C 
ATOM     18  N   LIG    1       -3.551  -3.035   1.158  0.00  0.00    -0.570 N 
ATOM     19  O   LIG    1       -4.382  -2.234   3.111  0.00  0.00    -0.510 OA
ATOM     20  C   LIG    1       -3.457  -2.590  -0.238  0.00  0.00    +0.310 C 
BRANCH  18  21
ATOM     21  C   LIG    1       -3.062  -4.259   1.632  0.00  0.00    +0.110 A 
ATOM     22  C   LIG    1       -3.879  -5.381   1.632  0.00  0.00    +0.060 A 
ATOM     23  C   LIG    1       -3.393  -6.587   2.100  0.00  0.00    +0.020 A 
ATOM     24  C   LIG    1       -2.096  -6.678   2.568  0.00  0.00    +0.060 A 
ATOM     25  C   LIG    1       -1.278  -5.563   2.570  0.00  0.00    -0.010 A 
ATOM     26  C   LIG    1       -1.755  -4.354   2.098  0.00  0.00    +0.110 A 
ATOM     27  F   LIG    1       -0.955  -3.265   2.095  0.00  0.00    -0.120 F 
ENDBRANCH  18  21
ENDBRANCH   3  15
TORSDOF 4
