REMARK  Name = ZINCrg00000SjSAH.0
REMARK                            x       y       z     vdW  Elec       q    Type
REMARK                         _______ _______ _______ _____ _____    ______ ____
ROOT
ATOM      1  C   LIG    1       -8.910   2.466   0.595  0.00  0.00    +0.560 C 
ATOM      2  N   LIG    1       -7.983   1.633   1.110  0.00  0.00    -0.680 N 
ATOM      3  H   LIG    1       -8.225   1.016   1.818  0.00  0.00    +0.420 HD
ATOM      4  C   LIG    1       -6.720   1.659   0.641  0.00  0.00    +0.490 C 
ATOM      5  O   LIG    1       -6.418   2.430  -0.244  0.00  0.00    -0.450 OA
ATOM      6  O   LIG    1       -8.607   3.239  -0.292  0.00  0.00    -0.460 OA
ENDROOT
BRANCH   1  10
ATOM      7  C   LIG    1      -12.890   2.385   2.073  0.00  0.00    +0.160 A 
ATOM      8  C   LIG    1      -12.545   3.271   1.059  0.00  0.00    -0.020 A 
ATOM      9  C   LIG    1      -11.256   3.300   0.576  0.00  0.00    +0.140 A 
ATOM     10  C   LIG    1      -10.293   2.438   1.109  0.00  0.00    -0.190 A 
ATOM     11  C   LIG    1      -10.645   1.545   2.126  0.00  0.00    +0.090 A 
ATOM     12  C   LIG    1      -11.935   1.526   2.606  0.00  0.00    -0.080 A 
BRANCH   7  14
ATOM     13  C   LIG    1      -14.448   1.425   3.589  0.00  0.00    +0.250 C 
ATOM     14  O   LIG    1      -14.162   2.359   2.546  0.00  0.00    -0.310 OA
ENDBRANCH   7  14
ENDBRANCH   1  10
BRANCH   4  15
ATOM     15  C   LIG    1       -5.684   0.729   1.216  0.00  0.00    +0.430 C 
BRANCH  15  16
ATOM     16  N   LIG    1       -4.402   0.950   0.543  0.00  0.00    -0.460 N 
ATOM     17  N   LIG    1       -3.947   0.295  -0.609  0.00  0.00    +0.040 NA
ATOM     18  N   LIG    1       -2.826   0.722  -0.906  0.00  0.00    +0.050 NA
ATOM     19  N   LIG    1       -2.440   1.696   0.022  0.00  0.00    -0.420 N 
ATOM     20  C   LIG    1       -3.439   1.817   0.923  0.00  0.00    +0.660 A 
ATOM     21  O   LIG    1       -3.468   2.564   1.885  0.00  0.00    -0.510 OA
BRANCH  19  22
ATOM     22  C   LIG    1       -1.234   2.411   0.021  0.00  0.00    +0.160 A 
ATOM     23  C   LIG    1       -1.248   3.799   0.034  0.00  0.00    +0.050 A 
ATOM     24  C   LIG    1       -0.058   4.501   0.027  0.00  0.00    +0.040 A 
ATOM     25  C   LIG    1        1.147   3.823   0.012  0.00  0.00    +0.050 A 
ATOM     26  C   LIG    1        1.165   2.440   0.004  0.00  0.00    +0.050 A 
ATOM     27  C   LIG    1       -0.021   1.732   0.012  0.00  0.00    -0.020 A 
ATOM     28 CL   LIG    1        0.002  -0.004   0.002  0.00  0.00    -0.050 Cl
ENDBRANCH  19  22
ENDBRANCH  15  16
ENDBRANCH   4  15
TORSDOF 5
