REMARK  Name = ZINCpk00000y6xbf.2
REMARK                            x       y       z     vdW  Elec       q    Type
REMARK                         _______ _______ _______ _____ _____    ______ ____
ROOT
ATOM      1  C   LIG    1        2.107   5.017  -2.298  0.00  0.00    +0.270 C 
ENDROOT
BRANCH   1   6
ATOM      2  C   LIG    1        3.220   3.150   2.284  0.00  0.00    +0.170 C 
ATOM      3  C   LIG    1        3.295   3.908   0.983  0.00  0.00    +0.220 A 
ATOM      4  N   LIG    1        4.273   4.688   0.611  0.00  0.00    -0.480 NA
ATOM      5  C   LIG    1        4.000   5.197  -0.599  0.00  0.00    +0.170 A 
ATOM      6  C   LIG    1        2.809   4.713  -1.000  0.00  0.00    -0.020 A 
ATOM      7  N   LIG    1        2.358   3.890  -0.001  0.00  0.00    -0.420 N 
BRANCH   7   8
ATOM      8  C   LIG    1        1.155   3.170   0.008  0.00  0.00    +0.120 A 
ATOM      9  C   LIG    1        1.175   1.782   0.000  0.00  0.00    +0.020 A 
ATOM     10  C   LIG    1       -0.013   1.076   0.008  0.00  0.00    +0.030 A 
ATOM     11  C   LIG    1       -1.220   1.750   0.017  0.00  0.00    +0.020 A 
ATOM     12  C   LIG    1       -1.242   3.133   0.030  0.00  0.00    +0.020 A 
ATOM     13  C   LIG    1       -0.059   3.844   0.022  0.00  0.00    +0.020 A 
ENDBRANCH   7   8
ENDBRANCH   1   6
BRANCH   1  14
ATOM     14  N   LIG    1        2.423   3.973  -3.282  0.00  0.00    -0.510 NA
ATOM     15  C   LIG    1        1.783   2.695  -2.921  0.00  0.00    +0.190 C 
ATOM     16  C   LIG    1        0.910   2.267  -4.120  0.00  0.00    -0.010 C 
ATOM     17  C   LIG    1        1.547   3.034  -5.308  0.00  0.00    +0.120 C 
ATOM     18  C   LIG    1        1.967   4.363  -4.633  0.00  0.00    +0.220 C 
BRANCH  17  19
ATOM     19  O   LIG    1        2.685   2.335  -5.817  0.00  0.00    -0.530 OA
ATOM     20  H   LIG    1        2.483   1.454  -6.163  0.00  0.00    +0.390 HD
ENDBRANCH  17  19
BRANCH  17  21
ATOM     21  C   LIG    1        0.519   3.282  -6.414  0.00  0.00    +0.320 C 
BRANCH  21  22
ATOM     22  N   LIG    1       -0.053   2.003  -6.844  0.00  0.00    -0.290 N 
ATOM     23  C   LIG    1       -1.370   1.694  -6.870  0.00  0.00    +0.140 A 
ATOM     24  C   LIG    1       -1.450   0.424  -7.332  0.00  0.00    +0.140 A 
ATOM     25  N   LIG    1       -0.194   0.021  -7.555  0.00  0.00    -0.260 NA
ATOM     26  N   LIG    1        0.610   0.981  -7.256  0.00  0.00    -0.090 NA
ENDBRANCH  21  22
ENDBRANCH  17  21
ENDBRANCH   1  14
TORSDOF 6
