REMARK  Name = ZINCvU0000000Izs.0
REMARK                            x       y       z     vdW  Elec       q    Type
REMARK                         _______ _______ _______ _____ _____    ______ ____
ROOT
ATOM      1  C   LIG    1       -4.898   0.812   0.845  0.00  0.00    -0.100 A 
ATOM      2  C   LIG    1       -6.181   1.210   0.589  0.00  0.00    +0.130 A 
ATOM      3  N   LIG    1       -6.868   0.137   0.196  0.00  0.00    -0.480 NA
ATOM      4  C   LIG    1       -6.085  -0.911   0.192  0.00  0.00    +0.250 A 
ATOM      5  N   LIG    1       -4.852  -0.543   0.582  0.00  0.00    -0.440 N 
ENDROOT
BRANCH   1   8
ATOM      6  N   LIG    1       -2.617   1.098   1.658  0.00  0.00    -0.680 N 
ATOM      7  H   LIG    1       -2.480   0.145   1.542  0.00  0.00    +0.400 HD
ATOM      8  C   LIG    1       -3.790   1.659   1.302  0.00  0.00    +0.590 C 
ATOM      9  O   LIG    1       -3.930   2.866   1.360  0.00  0.00    -0.490 OA
BRANCH   6  13
ATOM     10  C   LIG    1        0.423   3.460   3.260  0.00  0.00    +0.120 A 
ATOM     11  C   LIG    1       -0.905   3.790   3.489  0.00  0.00    +0.010 A 
ATOM     12  C   LIG    1       -1.912   3.010   2.955  0.00  0.00    +0.070 A 
ATOM     13  C   LIG    1       -1.596   1.892   2.195  0.00  0.00    +0.110 A 
ATOM     14  C   LIG    1       -0.266   1.566   1.962  0.00  0.00    +0.020 A 
ATOM     15  C   LIG    1        0.740   2.346   2.495  0.00  0.00    -0.060 A 
BRANCH  10  17
ATOM     16  C   LIG    1        2.759   3.830   3.509  0.00  0.00    +0.250 C 
ATOM     17  O   LIG    1        1.414   4.228   3.785  0.00  0.00    -0.320 OA
ENDBRANCH  10  17
ENDBRANCH   6  13
ENDBRANCH   1   8
BRANCH   2  18
ATOM     18  C   LIG    1       -6.721   2.610   0.725  0.00  0.00    +0.020 C 
ATOM     19  C   LIG    1       -6.505   3.102   2.158  0.00  0.00    +0.050 C 
ATOM     20  C   LIG    1       -8.217   2.613   0.405  0.00  0.00    +0.040 C 
ATOM     21  C   LIG    1       -5.989   3.536  -0.248  0.00  0.00    +0.030 C 
ENDBRANCH   2  18
BRANCH   4  22
ATOM     22  C   LIG    1       -6.498  -2.308  -0.194  0.00  0.00    +0.140 C 
BRANCH  22  23
ATOM     23  C   LIG    1       -6.169  -2.548  -1.669  0.00  0.00    +0.020 C 
BRANCH  23  24
ATOM     24  C   LIG    1       -6.588  -3.967  -2.061  0.00  0.00    -0.020 C 
ATOM     25  C   LIG    1       -5.743  -4.981  -1.287  0.00  0.00    +0.010 C 
ATOM     26  C   LIG    1       -6.374  -4.165  -3.562  0.00  0.00    +0.020 C 
ENDBRANCH  23  24
ENDBRANCH  22  23
ENDBRANCH   4  22
BRANCH   5  27
ATOM     27  C   LIG    1       -3.681  -1.415   0.707  0.00  0.00    +0.310 C 
BRANCH  27  28
ATOM     28  C   LIG    1       -3.515  -1.839   2.167  0.00  0.00    -0.050 C 
ATOM     29  C   LIG    1       -2.251  -2.714   2.348  0.00  0.00    +0.030 C 
ATOM     30  C   LIG    1       -2.695  -3.823   3.322  0.00  0.00    +0.210 C 
ATOM     31  O   LIG    1       -4.060  -3.552   3.684  0.00  0.00    -0.370 OA
ATOM     32  C   LIG    1       -4.646  -2.809   2.594  0.00  0.00    +0.220 C 
ENDBRANCH  27  28
ENDBRANCH   5  27
TORSDOF 9
