REMARK  Name = ZINCrH000004rsiH.0
REMARK                            x       y       z     vdW  Elec       q    Type
REMARK                         _______ _______ _______ _____ _____    ______ ____
ROOT
ATOM      1  C   LIG    1        1.030   3.107  -0.257  0.00  0.00    +0.510 C 
ATOM      2  N   LIG    1        1.157   1.829   0.152  0.00  0.00    -0.670 N 
ATOM      3  H   LIG    1        0.424   1.394   0.616  0.00  0.00    +0.420 HD
ATOM      4  O   LIG    1        1.975   3.679  -0.759  0.00  0.00    -0.480 OA
ENDROOT
BRANCH   2   5
ATOM      5  C   LIG    1        2.344   1.130  -0.093  0.00  0.00    +0.150 A 
ATOM      6  C   LIG    1        2.304  -0.230  -0.374  0.00  0.00    +0.020 A 
ATOM      7  C   LIG    1        3.474  -0.923  -0.622  0.00  0.00    +0.040 A 
ATOM      8  C   LIG    1        4.690  -0.271  -0.581  0.00  0.00    +0.030 A 
ATOM      9  C   LIG    1        4.740   1.093  -0.295  0.00  0.00    -0.020 A 
ATOM     10  C   LIG    1        3.561   1.794  -0.050  0.00  0.00    +0.090 A 
BRANCH   9  11
ATOM     11  C   LIG    1        6.043   1.795  -0.251  0.00  0.00    +0.290 A 
ATOM     12  N   LIG    1        6.235   3.095  -0.331  0.00  0.00    -0.310 NA
ATOM     13  N   LIG    1        7.487   3.370  -0.260  0.00  0.00    -0.040 NA
ATOM     14  N   LIG    1        8.178   2.289  -0.132  0.00  0.00    -0.080 NA
ATOM     15  N   LIG    1        7.264   1.221  -0.115  0.00  0.00    -0.350 N 
BRANCH  15  16
ATOM     16  C   LIG    1        7.566  -0.206   0.018  0.00  0.00    +0.210 C 
ATOM     17  C   LIG    1        9.032  -0.605   0.199  0.00  0.00    +0.090 C 
ATOM     18  C   LIG    1        8.324  -0.878  -1.129  0.00  0.00    +0.060 C 
ENDBRANCH  15  16
ENDBRANCH   9  11
ENDBRANCH   2   5
BRANCH   1  19
ATOM     19  C   LIG    1       -0.282   3.828  -0.084  0.00  0.00    +0.240 C 
BRANCH  19  20
ATOM     20  O   LIG    1       -0.163   5.161  -0.584  0.00  0.00    -0.280 OA
BRANCH  20  25
ATOM     21  C   LIG    1       -4.733   8.437  -0.245  0.00  0.00    +0.100 C 
ATOM     22  C   LIG    1       -3.510   7.561  -0.336  0.00  0.00    -0.120 A 
ATOM     23  C   LIG    1       -3.557   6.260   0.130  0.00  0.00    +0.070 A 
ATOM     24  C   LIG    1       -2.439   5.452   0.042  0.00  0.00    -0.060 A 
ATOM     25  C   LIG    1       -1.266   5.952  -0.502  0.00  0.00    +0.150 A 
ATOM     26  C   LIG    1       -1.221   7.258  -0.970  0.00  0.00    -0.120 A 
ATOM     27 BR   LIG    1        0.375   7.941  -1.721  0.00  0.00    -0.030 Br
ATOM     28  C   LIG    1       -2.344   8.059  -0.885  0.00  0.00    +0.090 A 
ENDBRANCH  20  25
ENDBRANCH  19  20
ENDBRANCH   1  19
TORSDOF 6
