REMARK  Name = ZINCpk00000KfKyQ.0
REMARK                            x       y       z     vdW  Elec       q    Type
REMARK                         _______ _______ _______ _____ _____    ______ ____
ROOT
ATOM      1  C   LIG    1        2.156   0.354   9.228  0.00  0.00    -0.380 A 
ATOM      2  C   LIG    1        2.192   0.085   7.855  0.00  0.00    +0.490 A 
ATOM      3  N   LIG    1        1.142   0.364   7.106  0.00  0.00    -0.570 NA
ATOM      4  C   LIG    1        0.037   0.893   7.620  0.00  0.00    +0.560 A 
ATOM      5  N   LIG    1       -1.138   1.259   7.036  0.00  0.00    -0.460 N 
ATOM      6  C   LIG    1       -1.962   1.770   8.017  0.00  0.00    +0.240 A 
ATOM      7  C   LIG    1       -1.308   1.726   9.175  0.00  0.00    +0.200 A 
ATOM      8  N   LIG    1       -0.057   1.184   8.943  0.00  0.00    -0.460 N 
ATOM      9  C   LIG    1        0.977   0.925   9.772  0.00  0.00    +0.550 A 
ATOM     10  O   LIG    1        0.900   1.178  10.961  0.00  0.00    -0.490 OA
ENDROOT
BRANCH   1  11
ATOM     11  C   LIG    1        3.309   0.053  10.083  0.00  0.00    +0.540 C 
ATOM     12  O   LIG    1        4.312  -0.437   9.601  0.00  0.00    -0.530 OA
BRANCH  11  14
ATOM     13  C   LIG    1        4.434  -0.005  12.189  0.00  0.00    +0.260 C 
ATOM     14  O   LIG    1        3.256   0.319  11.404  0.00  0.00    -0.340 OA
ENDBRANCH  11  14
ENDBRANCH   1  11
BRANCH   5  15
ATOM     15  C   LIG    1       -1.471   1.128   5.615  0.00  0.00    +0.340 C 
BRANCH  15  16
ATOM     16  C   LIG    1       -1.060   2.402   4.875  0.00  0.00    +0.070 C 
BRANCH  16  17
ATOM     17  C   LIG    1       -1.403   2.266   3.413  0.00  0.00    -0.120 A 
ATOM     18  C   LIG    1       -2.640   2.674   2.950  0.00  0.00    +0.050 A 
ATOM     19  C   LIG    1       -2.960   2.548   1.614  0.00  0.00    -0.010 A 
ATOM     20  C   LIG    1       -2.038   2.010   0.720  0.00  0.00    +0.110 A 
ATOM     21  O   LIG    1       -2.147   1.791  -0.620  0.00  0.00    -0.300 OA
ATOM     22  C   LIG    1       -0.834   1.634  -1.183  0.00  0.00    +0.240 C 
ATOM     23  C   LIG    1       -0.013   1.086   0.008  0.00  0.00    +0.070 C 
ATOM     24  C   LIG    1       -0.795   1.611   1.196  0.00  0.00    -0.170 A 
ATOM     25  C   LIG    1       -0.480   1.733   2.530  0.00  0.00    +0.070 A 
ENDBRANCH  16  17
ENDBRANCH  15  16
ENDBRANCH   5  15
TORSDOF 5
