REMARK  Name = ZINCpk00000xIlqn.0
REMARK                            x       y       z     vdW  Elec       q    Type
REMARK                         _______ _______ _______ _____ _____    ______ ____
ROOT
ATOM      1  O   LIG    1        6.189  -7.269   2.053  0.00  0.00    -0.590 OA
ATOM      2  C   LIG    1        5.782  -6.602   2.984  0.00  0.00    +0.720 C 
ATOM      3  N   LIG    1        6.031  -6.990   4.251  0.00  0.00    -0.640 N 
ATOM      4  C   LIG    1        6.780  -8.194   4.648  0.00  0.00    +0.270 C 
ATOM      5  C   LIG    1        6.858  -8.181   6.204  0.00  0.00    +0.020 C 
ATOM      6  C   LIG    1        8.108  -7.361   6.538  0.00  0.00    +0.070 C 
ATOM      7  C   LIG    1        7.996  -6.637   7.837  0.00  0.00    -0.050 C 
ATOM      8  C   LIG    1        6.886  -6.403   8.455  0.00  0.00    -0.050 C 
ATOM      9  C   LIG    1        5.554  -6.872   7.961  0.00  0.00    +0.080 C 
ATOM     10  C   LIG    1        5.589  -7.372   6.547  0.00  0.00    -0.010 C 
ATOM     11  C   LIG    1        5.602  -6.273   5.473  0.00  0.00    +0.250 C 
ATOM     12  N   LIG    1        5.081  -5.474   2.750  0.00  0.00    -0.740 N 
ATOM     13  H   LIG    1        4.756  -4.942   3.493  0.00  0.00    +0.400 HD
ENDROOT
BRANCH  12  14
ATOM     14  C   LIG    1        4.811  -5.053   1.373  0.00  0.00    +0.280 C 
BRANCH  14  15
ATOM     15  C   LIG    1        4.005  -3.752   1.388  0.00  0.00    +0.010 C 
BRANCH  15  16
ATOM     16  C   LIG    1        3.722  -3.312  -0.050  0.00  0.00    +0.370 C 
BRANCH  16  17
ATOM     17  N   LIG    1        2.950  -2.066  -0.036  0.00  0.00    -0.430 N 
ATOM     18  N   LIG    1        1.553  -1.958  -0.023  0.00  0.00    -0.290 NA
ATOM     19  C   LIG    1        1.248  -0.682  -0.013  0.00  0.00    +0.300 A 
ATOM     20  C   LIG    1        0.002  -0.004   0.002  0.00  0.00    +0.040 A 
ATOM     21  C   LIG    1       -0.016   1.351   0.009  0.00  0.00    +0.110 A 
ATOM     22  C   LIG    1        1.197   2.070   0.002  0.00  0.00    -0.020 A 
ATOM     23  C   LIG    1        2.375   1.423  -0.013  0.00  0.00    +0.300 A 
ATOM     24  N   LIG    1        2.421   0.049  -0.021  0.00  0.00    -0.480 N 
ATOM     25  C   LIG    1        3.456  -0.816  -0.035  0.00  0.00    +0.640 A 
ATOM     26  O   LIG    1        4.638  -0.520  -0.044  0.00  0.00    -0.540 OA
ENDBRANCH  16  17
ENDBRANCH  15  16
ENDBRANCH  14  15
ENDBRANCH  12  14
TORSDOF 4
