REMARK  Name = ZINCrH00000No4QO.0
REMARK                            x       y       z     vdW  Elec       q    Type
REMARK                         _______ _______ _______ _____ _____    ______ ____
ROOT
ATOM      1  C   LIG    1       -2.748  -3.380  -2.151  0.00  0.00    +0.440 C 
ATOM      2  O   LIG    1       -1.893  -3.538  -2.990  0.00  0.00    -0.490 OA
ENDROOT
BRANCH   1   3
ATOM      3  C   LIG    1       -4.018  -4.188  -2.208  0.00  0.00    +0.170 C 
ATOM      4  C   LIG    1       -5.100  -3.388  -2.937  0.00  0.00    +0.100 C 
BRANCH   3   5
ATOM      5  O   LIG    1       -4.456  -4.481  -0.880  0.00  0.00    -0.520 OA
ATOM      6  H   LIG    1       -3.819  -4.988  -0.358  0.00  0.00    +0.390 HD
ENDBRANCH   3   5
BRANCH   3   7
ATOM      7  C   LIG    1       -3.758  -5.495  -2.959  0.00  0.00    +0.080 C 
BRANCH   7   8
ATOM      8  S   LIG    1       -5.317  -6.401  -3.157  0.00  0.00    -0.050 S 
BRANCH   8   9
ATOM      9  C   LIG    1       -4.826  -7.851  -4.028  0.00  0.00    -0.070 A 
ATOM     10  C   LIG    1       -3.494  -8.034  -4.380  0.00  0.00    -0.020 A 
ATOM     11  C   LIG    1       -3.111  -9.175  -5.059  0.00  0.00    +0.070 A 
ATOM     12  C   LIG    1       -4.051 -10.129  -5.398  0.00  0.00    -0.020 A 
ATOM     13  C   LIG    1       -5.381  -9.949  -5.053  0.00  0.00    +0.120 A 
ATOM     14  F   LIG    1       -6.298 -10.884  -5.386  0.00  0.00    -0.130 F 
ATOM     15  C   LIG    1       -5.770  -8.812  -4.369  0.00  0.00    +0.000 A 
ENDBRANCH   8   9
ENDBRANCH   7   8
ENDBRANCH   3   7
ENDBRANCH   1   3
BRANCH   1  16
ATOM     16  O   LIG    1       -2.566  -2.484  -1.169  0.00  0.00    -0.340 OA
BRANCH  16  17
ATOM     17  C   LIG    1       -1.319  -1.741  -1.176  0.00  0.00    +0.230 C 
BRANCH  17  18
ATOM     18  C   LIG    1       -1.293  -0.775   0.010  0.00  0.00    +0.080 C 
BRANCH  18  20
ATOM     19  C   LIG    1       -0.016   1.321   0.009  0.00  0.00    +0.020 C 
ATOM     20  C   LIG    1        0.002  -0.004   0.002  0.00  0.00    -0.020 C 
BRANCH  19  25
ATOM     21  C   LIG    1        2.469   4.139   0.001  0.00  0.00    +0.080 A 
ATOM     22  C   LIG    1        3.642   3.397  -0.014  0.00  0.00    +0.180 A 
ATOM     23  N   LIG    1        3.611   2.079  -0.021  0.00  0.00    -0.450 NA
ATOM     24  C   LIG    1        2.478   1.408  -0.014  0.00  0.00    +0.230 A 
ATOM     25  C   LIG    1        1.254   2.078   0.001  0.00  0.00    -0.070 A 
ATOM     26  C   LIG    1        1.248   3.476   0.003  0.00  0.00    +0.050 A 
BRANCH  21  28
ATOM     27  C   LIG    1        3.808   6.103   0.000  0.00  0.00    +0.250 C 
ATOM     28  O   LIG    1        2.514   5.497   0.008  0.00  0.00    -0.310 OA
ENDBRANCH  21  28
ENDBRANCH  19  25
ENDBRANCH  18  20
ENDBRANCH  17  18
ENDBRANCH  16  17
ENDBRANCH   1  16
TORSDOF 11
