REMARK  Name = ZINCtV00000L6k6x.0
REMARK                            x       y       z     vdW  Elec       q    Type
REMARK                         _______ _______ _______ _____ _____    ______ ____
ROOT
ATOM      1  C   LIG    1        2.340   5.788   0.424  0.00  0.00    +0.080 C 
ENDROOT
BRANCH   1   4
ATOM      2  C   LIG    1        4.798   7.981  -1.427  0.00  0.00    +0.160 A 
ATOM      3  C   LIG    1        3.695   7.192  -1.142  0.00  0.00    -0.080 A 
ATOM      4  C   LIG    1        3.541   6.646   0.119  0.00  0.00    -0.020 A 
ATOM      5  C   LIG    1        4.483   6.888   1.101  0.00  0.00    -0.070 A 
ATOM      6  C   LIG    1        5.592   7.671   0.822  0.00  0.00    +0.150 A 
ATOM      7  C   LIG    1        5.751   8.223  -0.444  0.00  0.00    +0.030 A 
BRANCH   2   9
ATOM      8  C   LIG    1        3.932   8.228  -3.628  0.00  0.00    +0.250 C 
ATOM      9  O   LIG    1        4.949   8.519  -2.667  0.00  0.00    -0.300 OA
ENDBRANCH   2   9
BRANCH   6  10
ATOM     10  O   LIG    1        6.521   7.905   1.788  0.00  0.00    -0.300 OA
ATOM     11  C   LIG    1        6.294   7.306   3.065  0.00  0.00    +0.240 C 
ENDBRANCH   6  10
BRANCH   7  12
ATOM     12  O   LIG    1        6.835   8.998  -0.720  0.00  0.00    -0.310 OA
ATOM     13  C   LIG    1        6.708  10.401  -0.481  0.00  0.00    +0.210 C 
ENDBRANCH   7  12
ENDBRANCH   1   4
BRANCH   1  14
ATOM     14  S   LIG    1        2.888   4.201   1.109  0.00  0.00    -0.070 S 
BRANCH  14  15
ATOM     15  C   LIG    1        3.667   3.424  -0.267  0.00  0.00    -0.080 A 
ATOM     16  C   LIG    1        4.337   2.218  -0.099  0.00  0.00    +0.050 A 
ATOM     17  C   LIG    1        4.945   1.611  -1.179  0.00  0.00    +0.050 A 
ATOM     18  C   LIG    1        4.894   2.205  -2.428  0.00  0.00    -0.040 A 
ATOM     19  C   LIG    1        4.222   3.403  -2.600  0.00  0.00    +0.050 A 
ATOM     20 CL   LIG    1        5.667   1.443  -3.783  0.00  0.00    -0.070 Cl
ATOM     21  C   LIG    1        3.612   4.015  -1.524  0.00  0.00    +0.010 A 
ENDBRANCH  14  15
ENDBRANCH   1  14
BRANCH   1  22
ATOM     22  C   LIG    1        1.450   6.503   1.443  0.00  0.00    +0.090 C 
BRANCH  22  23
ATOM     23  C   LIG    1        0.182   5.712   1.645  0.00  0.00    +0.430 C 
ATOM     24  O   LIG    1       -0.037   4.732   0.963  0.00  0.00    -0.420 OA
BRANCH  23  25
ATOM     25  C   LIG    1       -0.751   6.112   2.628  0.00  0.00    -0.120 A 
ATOM     26  C   LIG    1       -1.948   5.487   2.915  0.00  0.00    +0.060 A 
ATOM     27  C   LIG    1       -2.540   6.219   3.953  0.00  0.00    -0.070 A 
ATOM     28  C   LIG    1       -1.706   7.243   4.248  0.00  0.00    +0.220 A 
ATOM     29  O   LIG    1       -0.633   7.176   3.452  0.00  0.00    -0.150 OA
ENDBRANCH  23  25
ENDBRANCH  22  23
ENDBRANCH   1  22
TORSDOF 9
