REMARK  Name = ZINCtV00000tRRsz.0
REMARK                            x       y       z     vdW  Elec       q    Type
REMARK                         _______ _______ _______ _____ _____    ______ ____
ROOT
ATOM      1  C   LIG    1        2.798   4.631   0.519  0.00  0.00    +0.150 C 
ATOM      2  O   LIG    1        1.991   4.681  -0.670  0.00  0.00    -0.260 OA
ATOM      3  C   LIG    1        2.602   4.241  -1.805  0.00  0.00    +0.100 A 
ATOM      4  C   LIG    1        2.456   4.934  -2.995  0.00  0.00    +0.000 A 
ATOM      5  C   LIG    1        3.087   4.479  -4.138  0.00  0.00    +0.030 A 
ATOM      6  C   LIG    1        3.862   3.334  -4.093  0.00  0.00    +0.000 A 
ATOM      7  C   LIG    1        4.008   2.639  -2.906  0.00  0.00    +0.040 A 
ATOM      8  C   LIG    1        3.379   3.090  -1.764  0.00  0.00    -0.110 A 
ATOM      9  C   LIG    1        3.527   2.339  -0.462  0.00  0.00    +0.130 C 
ATOM     10  C   LIG    1        4.314   4.712   0.323  0.00  0.00    -0.010 C 
ATOM     11 CL   LIG    1        5.277   5.529   1.609  0.00  0.00    -0.070 Cl
ATOM     12 CL   LIG    1        4.924   4.929  -1.360  0.00  0.00    -0.050 Cl
ATOM     13  C   LIG    1        3.668   3.370   0.671  0.00  0.00    +0.020 C 
ENDROOT
BRANCH   9  14
ATOM     14  C   LIG    1        2.308   1.486  -0.224  0.00  0.00    -0.080 A 
ATOM     15  C   LIG    1        1.050   2.057  -0.247  0.00  0.00    +0.030 A 
ATOM     16  C   LIG    1       -0.069   1.274  -0.030  0.00  0.00    +0.000 A 
ATOM     17  C   LIG    1        0.071  -0.079   0.212  0.00  0.00    +0.010 A 
ATOM     18  C   LIG    1        1.330  -0.650   0.236  0.00  0.00    +0.000 A 
ATOM     19  C   LIG    1        2.448   0.132   0.018  0.00  0.00    -0.070 A 
ATOM     20  C   LIG    1        3.821  -0.490   0.044  0.00  0.00    +0.090 C 
ENDBRANCH   9  14
BRANCH   1  24
ATOM     21  C   LIG    1        1.065   6.332   4.036  0.00  0.00    +0.150 A 
ATOM     22  C   LIG    1        0.399   6.417   2.822  0.00  0.00    -0.010 A 
ATOM     23  C   LIG    1        0.961   5.867   1.687  0.00  0.00    +0.100 A 
ATOM     24  C   LIG    1        2.187   5.231   1.760  0.00  0.00    -0.100 A 
ATOM     25  C   LIG    1        2.850   5.139   2.969  0.00  0.00    +0.070 A 
ATOM     26  C   LIG    1        2.295   5.693   4.106  0.00  0.00    -0.080 A 
BRANCH  21  27
ATOM     27  O   LIG    1        0.515   6.873   5.154  0.00  0.00    -0.310 OA
BRANCH  27  29
ATOM     28  C   LIG    1        0.484   7.412   7.510  0.00  0.00    +0.070 C 
ATOM     29  C   LIG    1        1.257   6.748   6.369  0.00  0.00    +0.170 C 
ENDBRANCH  27  29
ENDBRANCH  21  27
ENDBRANCH   1  24
TORSDOF 4
