REMARK  Name = ZINCpk00000xIgjB.0
REMARK                            x       y       z     vdW  Elec       q    Type
REMARK                         _______ _______ _______ _____ _____    ______ ____
ROOT
ATOM      1  N   LIG    1        0.840  -0.610   0.849  0.00  0.00    -0.590 N 
ATOM      2  C   LIG    1        1.758   0.330   1.146  0.00  0.00    +0.570 C 
ATOM      3  C   LIG    1        1.732   1.625   0.437  0.00  0.00    +0.080 C 
ATOM      4  C   LIG    1        0.651   1.968  -0.267  0.00  0.00    +0.040 C 
ATOM      5  C   LIG    1       -0.543   1.051  -0.314  0.00  0.00    +0.120 C 
ATOM      6  O   LIG    1        2.602   0.114   1.994  0.00  0.00    -0.490 OA
ATOM      7  C   LIG    1       -0.091  -0.407  -0.262  0.00  0.00    +0.340 C 
ENDROOT
BRANCH   3   8
ATOM      8  N   LIG    1        2.833   2.487   0.503  0.00  0.00    -0.670 N 
ATOM      9  H   LIG    1        2.723   3.389   0.842  0.00  0.00    +0.410 HD
ATOM     10  C   LIG    1        4.046   2.063   0.097  0.00  0.00    +0.560 C 
ATOM     11  O   LIG    1        4.204   0.906  -0.241  0.00  0.00    -0.500 OA
BRANCH  10  12
ATOM     12  C   LIG    1        5.185   3.006   0.062  0.00  0.00    -0.130 A 
ATOM     13  C   LIG    1        5.005   4.336   0.444  0.00  0.00    +0.040 A 
ATOM     14  C   LIG    1        6.074   5.209   0.415  0.00  0.00    +0.000 A 
ATOM     15  C   LIG    1        7.317   4.771  -0.003  0.00  0.00    +0.040 A 
ATOM     16  C   LIG    1        7.501   3.454  -0.389  0.00  0.00    +0.000 A 
ATOM     17  C   LIG    1        6.442   2.570  -0.358  0.00  0.00    +0.080 A 
ENDBRANCH  10  12
ENDBRANCH   3   8
BRANCH   7  18
ATOM     18  C   LIG    1        0.606  -0.769  -1.575  0.00  0.00    +0.410 C 
ATOM     19  F   LIG    1       -0.310  -0.681  -2.629  0.00  0.00    -0.180 F 
ATOM     20  F   LIG    1        1.102  -2.075  -1.496  0.00  0.00    -0.170 F 
ATOM     21  F   LIG    1        1.663   0.119  -1.802  0.00  0.00    -0.160 F 
ENDBRANCH   7  18
BRANCH   7  22
ATOM     22  O   LIG    1       -1.231  -1.250  -0.084  0.00  0.00    -0.500 OA
ATOM     23  H   LIG    1       -1.887  -1.179  -0.790  0.00  0.00    +0.400 HD
ENDBRANCH   7  22
BRANCH   1  24
ATOM     24  C   LIG    1        0.773  -1.840   1.641  0.00  0.00    +0.320 C 
BRANCH  24  25
ATOM     25  C   LIG    1       -0.061  -1.592   2.899  0.00  0.00    +0.160 C 
BRANCH  25  27
ATOM     26  C   LIG    1       -2.263  -0.994   3.633  0.00  0.00    +0.200 C 
ATOM     27  O   LIG    1       -1.396  -1.248   2.525  0.00  0.00    -0.370 OA
ENDBRANCH  25  27
ENDBRANCH  24  25
ENDBRANCH   1  24
TORSDOF 7
