REMARK  Name = ZINCnE00000qGLQq.0
REMARK                            x       y       z     vdW  Elec       q    Type
REMARK                         _______ _______ _______ _____ _____    ______ ____
ROOT
ATOM      1  C   LIG    1       -0.017   1.365   0.009  0.00  0.00    +0.070 A 
ATOM      2  C   LIG    1        0.002  -0.004   0.002  0.00  0.00    +0.160 A 
ATOM      3  N   LIG    1        1.305  -0.359  -0.012  0.00  0.00    -0.280 N 
ATOM      4  N   LIG    1        2.021   0.709  -0.013  0.00  0.00    -0.080 NA
ATOM      5  N   LIG    1        1.273   1.756  -0.001  0.00  0.00    -0.250 NA
ENDROOT
BRANCH   1   9
ATOM      6  C   LIG    1       -3.306   2.892   0.035  0.00  0.00    -0.020 A 
ATOM      7  C   LIG    1       -2.528   4.033   0.037  0.00  0.00    -0.040 A 
ATOM      8  C   LIG    1       -1.197   3.614   0.033  0.00  0.00    -0.020 A 
ATOM      9  C   LIG    1       -1.208   2.237   0.020  0.00  0.00    +0.020 A 
ATOM     10  O   LIG    1       -2.484   1.820   0.025  0.00  0.00    -0.140 OA
BRANCH   6  12
ATOM     11  O   LIG    1       -5.362   3.897   0.052  0.00  0.00    -0.660 OA
ATOM     12  C   LIG    1       -4.720   2.853   0.042  0.00  0.00    +0.550 C 
ATOM     13  O   LIG    1       -5.303   1.775   0.039  0.00  0.00    -0.670 OA
ENDBRANCH   6  12
ENDBRANCH   1   9
BRANCH   3  14
ATOM     14  C   LIG    1        1.817  -1.731  -0.024  0.00  0.00    +0.330 C 
BRANCH  14  15
ATOM     15  C   LIG    1        2.759  -1.914  -1.216  0.00  0.00    +0.010 C 
BRANCH  15  16
ATOM     16  C   LIG    1        1.969  -1.766  -2.518  0.00  0.00    -0.020 C 
ATOM     17  C   LIG    1        2.845  -1.425  -3.735  0.00  0.00    +0.020 C 
ATOM     18  C   LIG    1        1.723  -0.467  -4.174  0.00  0.00    +0.010 C 
ATOM     19  C   LIG    1        1.322  -0.381  -2.692  0.00  0.00    +0.010 C 
ENDBRANCH  15  16
BRANCH  15  20
ATOM     20  C   LIG    1        3.390  -3.307  -1.158  0.00  0.00    -0.010 C 
ATOM     21  C   LIG    1        4.583  -3.403  -0.193  0.00  0.00    +0.010 C 
ATOM     22  C   LIG    1        5.266  -4.287  -1.253  0.00  0.00    +0.010 C 
ATOM     23  C   LIG    1        4.387  -3.579  -2.297  0.00  0.00    +0.020 C 
ENDBRANCH  15  20
ENDBRANCH  14  15
ENDBRANCH   3  14
TORSDOF 6
