REMARK  Name = ZINCrH000004tyiJ.0
REMARK                            x       y       z     vdW  Elec       q    Type
REMARK                         _______ _______ _______ _____ _____    ______ ____
ROOT
ATOM      1  C   LIG    1        1.799  -1.801  -0.063  0.00  0.00    +0.630 C 
ATOM      2  N   LIG    1        3.027  -2.318  -0.264  0.00  0.00    -0.610 N 
ATOM      3  C   LIG    1        4.269  -1.541  -0.437  0.00  0.00    +0.250 C 
ATOM      4  C   LIG    1        5.403  -2.510  -0.011  0.00  0.00    +0.040 C 
ATOM      5  C   LIG    1        4.876  -3.862  -0.561  0.00  0.00    +0.040 C 
ATOM      6  C   LIG    1        3.351  -3.749  -0.353  0.00  0.00    +0.240 C 
ATOM      7  O   LIG    1        0.858  -2.539   0.164  0.00  0.00    -0.550 OA
ENDROOT
BRANCH   1   9
ATOM      8  C   LIG    1        0.446   0.228   0.213  0.00  0.00    +0.310 A 
ATOM      9  C   LIG    1        1.603  -0.398  -0.117  0.00  0.00    -0.380 A 
ATOM     10  S   LIG    1        2.823   0.755  -0.618  0.00  0.00    +0.190 S 
ATOM     11  C   LIG    1        1.741   2.122  -0.375  0.00  0.00    +0.080 A 
ATOM     12  N   LIG    1        1.957   3.428  -0.555  0.00  0.00    -0.460 NA
ATOM     13  C   LIG    1        1.031   4.329  -0.324  0.00  0.00    +0.320 A 
ATOM     14  C   LIG    1       -0.229   3.962   0.124  0.00  0.00    -0.030 A 
ATOM     15  C   LIG    1       -0.512   2.631   0.334  0.00  0.00    +0.120 A 
ATOM     16  C   LIG    1        0.495   1.674   0.075  0.00  0.00    -0.170 A 
BRANCH   8  17
ATOM     17  N   LIG    1       -0.685  -0.452   0.643  0.00  0.00    -0.820 N 
ATOM     18  H   LIG    1       -0.669  -1.419   0.720  0.00  0.00    +0.420 HD
ATOM     19  H   LIG    1       -1.490   0.039   0.868  0.00  0.00    +0.400 HD
ENDBRANCH   8  17
ENDBRANCH   1   9
BRANCH   6  20
ATOM     20  C   LIG    1        2.613  -4.376  -1.538  0.00  0.00    +0.000 C 
BRANCH  20  21
ATOM     21  C   LIG    1        2.840  -5.889  -1.537  0.00  0.00    +0.260 C 
BRANCH  21  22
ATOM     22  C   LIG    1        2.254  -6.486  -2.791  0.00  0.00    -0.130 A 
ATOM     23  C   LIG    1        0.895  -6.729  -2.870  0.00  0.00    +0.050 A 
ATOM     24  C   LIG    1        0.356  -7.272  -4.021  0.00  0.00    -0.010 A 
ATOM     25  C   LIG    1        1.178  -7.582  -5.091  0.00  0.00    +0.100 A 
ATOM     26  C   LIG    1        2.539  -7.342  -5.008  0.00  0.00    -0.010 A 
ATOM     27  F   LIG    1        0.653  -8.117  -6.215  0.00  0.00    -0.140 F 
ATOM     28  C   LIG    1        3.076  -6.795  -3.859  0.00  0.00    +0.050 A 
ENDBRANCH  21  22
BRANCH  21  29
ATOM     29  O   LIG    1        2.205  -6.465  -0.394  0.00  0.00    -0.550 OA
ATOM     30  H   LIG    1        1.250  -6.320  -0.359  0.00  0.00    +0.380 HD
ENDBRANCH  21  29
ENDBRANCH  20  21
ENDBRANCH   6  20
TORSDOF 6
