REMARK  Name = ZINCqH0000051Lja.0
REMARK                            x       y       z     vdW  Elec       q    Type
REMARK                         _______ _______ _______ _____ _____    ______ ____
ROOT
ATOM      1  C   LIG    1       -4.722  -0.113   2.850  0.00  0.00    +0.200 C 
ATOM      2  C   LIG    1       -3.722  -1.005   3.591  0.00  0.00    +0.020 C 
ATOM      3  C   LIG    1       -2.332  -0.368   3.517  0.00  0.00    +0.060 C 
ATOM      4  C   LIG    1       -1.948  -0.161   2.050  0.00  0.00    +0.230 C 
ATOM      5  N   LIG    1       -2.928   0.721   1.405  0.00  0.00    -0.370 N 
ATOM      6  H   LIG    1       -2.976   1.594   1.909  0.00  0.00    +0.430 HD
ATOM      7  C   LIG    1       -4.250   0.085   1.408  0.00  0.00    +0.230 C 
ENDROOT
BRANCH   1  12
ATOM      8  C   LIG    1       -7.479   2.824   4.989  0.00  0.00    +0.110 A 
ATOM      9  N   LIG    1       -8.083   1.752   4.601  0.00  0.00    -0.280 NA
ATOM     10  N   LIG    1       -7.145   0.932   3.956  0.00  0.00    -0.530 NA
ATOM     11  C   LIG    1       -5.949   1.599   4.005  0.00  0.00    +0.450 A 
ATOM     12  N   LIG    1       -4.807   1.187   3.521  0.00  0.00    -0.720 NA
ATOM     13  O   LIG    1       -6.178   2.765   4.643  0.00  0.00    -0.290 OA
BRANCH   8  14
ATOM     14  C   LIG    1       -8.131   3.970   5.720  0.00  0.00    +0.210 C 
BRANCH  14  18
ATOM     15  C   LIG    1      -12.275   3.115   6.303  0.00  0.00    +0.000 A 
ATOM     16  C   LIG    1      -11.350   2.731   7.255  0.00  0.00    +0.000 A 
ATOM     17  C   LIG    1      -10.008   3.008   7.066  0.00  0.00    +0.020 A 
ATOM     18  C   LIG    1       -9.593   3.668   5.925  0.00  0.00    -0.060 A 
ATOM     19  C   LIG    1      -10.519   4.057   4.976  0.00  0.00    +0.020 A 
ATOM     20  C   LIG    1      -11.860   3.776   5.162  0.00  0.00    +0.000 A 
ENDBRANCH  14  18
ENDBRANCH   8  14
ENDBRANCH   1  12
BRANCH   5  21
ATOM     21  C   LIG    1       -2.514   0.980   0.019  0.00  0.00    +0.300 C 
BRANCH  21  22
ATOM     22  C   LIG    1       -1.219   1.751   0.017  0.00  0.00    -0.150 A 
ATOM     23  C   LIG    1       -0.013   1.076   0.008  0.00  0.00    +0.030 A 
ATOM     24  C   LIG    1        1.175   1.783   0.000  0.00  0.00    +0.010 A 
ATOM     25  C   LIG    1        1.156   3.165   0.008  0.00  0.00    +0.040 A 
ATOM     26  C   LIG    1       -0.050   3.840   0.023  0.00  0.00    +0.020 A 
ATOM     27  C   LIG    1       -1.238   3.133   0.030  0.00  0.00    +0.040 A 
ENDBRANCH  21  22
ENDBRANCH   5  21
TORSDOF 5
