REMARK  Name = ZINCqH0000051Lja.1
REMARK                            x       y       z     vdW  Elec       q    Type
REMARK                         _______ _______ _______ _____ _____    ______ ____
ROOT
ATOM      1  C   LIG    1        0.810  -0.500   1.205  0.00  0.00    +0.180 C 
ATOM      2  C   LIG    1        0.002  -0.004   0.002  0.00  0.00    +0.040 C 
ATOM      3  C   LIG    1       -0.019   1.527   0.010  0.00  0.00    +0.040 C 
ATOM      4  C   LIG    1        1.419   2.051  -0.001  0.00  0.00    +0.230 C 
ATOM      5  N   LIG    1        2.130   1.564   1.187  0.00  0.00    -0.380 N 
ATOM      6  H   LIG    1        1.631   1.849   2.016  0.00  0.00    +0.420 HD
ATOM      7  C   LIG    1        2.217   0.099   1.149  0.00  0.00    +0.240 C 
ENDROOT
BRANCH   1  12
ATOM      8  C   LIG    1       -0.158  -4.373   3.411  0.00  0.00    +0.110 A 
ATOM      9  N   LIG    1       -0.539  -3.317   4.048  0.00  0.00    -0.280 NA
ATOM     10  N   LIG    1       -0.191  -2.196   3.280  0.00  0.00    -0.540 NA
ATOM     11  C   LIG    1        0.419  -2.673   2.150  0.00  0.00    +0.440 A 
ATOM     12  N   LIG    1        0.899  -1.962   1.164  0.00  0.00    -0.690 NA
ATOM     13  O   LIG    1        0.425  -4.018   2.248  0.00  0.00    -0.290 OA
BRANCH   8  14
ATOM     14  C   LIG    1       -0.342  -5.789   3.892  0.00  0.00    +0.210 C 
BRANCH  14  18
ATOM     15  C   LIG    1       -2.316  -5.762   7.680  0.00  0.00    +0.000 A 
ATOM     16  C   LIG    1       -3.057  -5.816   6.515  0.00  0.00    +0.000 A 
ATOM     17  C   LIG    1       -2.418  -5.825   5.289  0.00  0.00    +0.020 A 
ATOM     18  C   LIG    1       -1.038  -5.779   5.229  0.00  0.00    -0.060 A 
ATOM     19  C   LIG    1       -0.297  -5.731   6.394  0.00  0.00    +0.020 A 
ATOM     20  C   LIG    1       -0.936  -5.716   7.620  0.00  0.00    +0.000 A 
ENDBRANCH  14  18
ENDBRANCH   8  14
ENDBRANCH   1  12
BRANCH   5  21
ATOM     21  C   LIG    1        3.485   2.132   1.213  0.00  0.00    +0.300 C 
BRANCH  21  22
ATOM     22  C   LIG    1        3.399   3.628   1.375  0.00  0.00    -0.150 A 
ATOM     23  C   LIG    1        3.334   4.442   0.259  0.00  0.00    +0.030 A 
ATOM     24  C   LIG    1        3.250   5.813   0.408  0.00  0.00    +0.010 A 
ATOM     25  C   LIG    1        3.241   6.372   1.673  0.00  0.00    +0.040 A 
ATOM     26  C   LIG    1        3.312   5.559   2.788  0.00  0.00    +0.020 A 
ATOM     27  C   LIG    1        3.390   4.186   2.639  0.00  0.00    +0.040 A 
ENDBRANCH  21  22
ENDBRANCH   5  21
TORSDOF 5
