REMARK  Name = ZINCpe000000Tjel.0
REMARK                            x       y       z     vdW  Elec       q    Type
REMARK                         _______ _______ _______ _____ _____    ______ ____
ROOT
ATOM      1  C   LIG    1        3.864   3.580   0.369  0.00  0.00    +0.010 C 
ATOM      2  C   LIG    1        3.796   3.095  -1.080  0.00  0.00    +0.090 C 
ENDROOT
BRANCH   1   3
ATOM      3  C   LIG    1        4.676   4.848   0.437  0.00  0.00    +0.540 C 
ATOM      4  N   LIG    1        6.011   4.785   0.610  0.00  0.00    -0.600 N 
ATOM      5  O   LIG    1        4.127   5.925   0.336  0.00  0.00    -0.510 OA
BRANCH   4   6
ATOM      6  C   LIG    1        6.788   6.017   0.768  0.00  0.00    +0.280 C 
ATOM      7  C   LIG    1        6.296   6.783   2.009  0.00  0.00    +0.070 C 
ATOM      8  C   LIG    1        6.914   8.203   1.927  0.00  0.00    -0.310 C 
ATOM      9  S   LIG    1        6.707   8.627   0.156  0.00  0.00    +2.400 S 
ATOM     10  O   LIG    1        7.898   9.233  -0.326  0.00  0.00    -0.940 OA
ATOM     11  O   LIG    1        5.457   9.276  -0.030  0.00  0.00    -0.920 OA
ATOM     12  C   LIG    1        6.596   6.914  -0.472  0.00  0.00    -0.320 C 
ENDBRANCH   4   6
BRANCH   4  13
ATOM     13  C   LIG    1        6.685   3.485   0.639  0.00  0.00    +0.270 C 
ATOM     14  C   LIG    1        7.246   3.170  -0.749  0.00  0.00    +0.020 C 
ENDBRANCH   4  13
ENDBRANCH   1   3
BRANCH   1  15
ATOM     15  S   LIG    1        2.190   3.902   0.978  0.00  0.00    +0.100 S 
BRANCH  15  22
ATOM     16  N   LIG    1        0.252   1.910   1.299  0.00  0.00    -0.530 N 
ATOM     17  C   LIG    1        0.119   0.580   1.127  0.00  0.00    +0.650 A 
ATOM     18  N   LIG    1        1.295   0.111   0.660  0.00  0.00    -0.540 N 
ATOM     19  H   LIG    1        1.499  -0.812   0.442  0.00  0.00    +0.460 HD
ATOM     20  N   LIG    1        2.167   1.202   0.548  0.00  0.00    -0.280 NA
ATOM     21  O   LIG    1       -0.880  -0.079   1.352  0.00  0.00    -0.550 OA
ATOM     22  C   LIG    1        1.529   2.269   0.933  0.00  0.00    +0.240 A 
BRANCH  16  23
ATOM     23  C   LIG    1       -0.788   2.819   1.787  0.00  0.00    +0.320 C 
BRANCH  23  24
ATOM     24  C   LIG    1       -0.707   2.917   3.312  0.00  0.00    +0.000 C 
BRANCH  24  26
ATOM     25  C   LIG    1       -1.711   3.964   5.346  0.00  0.00    +0.020 C 
ATOM     26  C   LIG    1       -1.793   3.867   3.821  0.00  0.00    +0.020 C 
ENDBRANCH  24  26
ENDBRANCH  23  24
ENDBRANCH  16  23
ENDBRANCH  15  22
ENDBRANCH   1  15
TORSDOF 8
