REMARK  Name = ZINCtV00000tRTpV.0
REMARK                            x       y       z     vdW  Elec       q    Type
REMARK                         _______ _______ _______ _____ _____    ______ ____
ROOT
ATOM      1  C   LIG    1       -5.634   3.704   0.139  0.00  0.00    +0.350 A 
ATOM      2  N   LIG    1       -6.947   3.619   0.017  0.00  0.00    -0.520 NA
ATOM      3  C   LIG    1       -7.578   2.463   0.090  0.00  0.00    +0.330 A 
ATOM      4  C   LIG    1       -6.887   1.284   0.294  0.00  0.00    -0.060 A 
ATOM      5  C   LIG    1       -5.508   1.317   0.423  0.00  0.00    +0.160 A 
ATOM      6  C   LIG    1       -4.864   2.552   0.342  0.00  0.00    -0.090 A 
ENDROOT
BRANCH   6   7
ATOM      7  C   LIG    1       -3.389   2.644   0.474  0.00  0.00    +0.220 A 
ATOM      8  N   LIG    1       -2.672   3.738   0.416  0.00  0.00    -0.340 NA
ATOM      9  O   LIG    1       -1.496   3.479   0.559  0.00  0.00    +0.090 OA
ATOM     10  C   LIG    1       -1.336   2.157   0.729  0.00  0.00    +0.230 A 
ATOM     11  N   LIG    1       -2.539   1.615   0.671  0.00  0.00    -0.460 NA
BRANCH  10  12
ATOM     12  C   LIG    1       -0.059   1.445   0.935  0.00  0.00    -0.010 A 
ATOM     13  C   LIG    1       -0.049   0.053   1.098  0.00  0.00    +0.090 A 
ATOM     14  C   LIG    1        1.121  -0.613   1.283  0.00  0.00    +0.090 A 
ATOM     15  C   LIG    1        2.348   0.084   1.314  0.00  0.00    +0.110 A 
ATOM     16  N   LIG    1        3.596  -0.388   1.483  0.00  0.00    -0.470 NA
ATOM     17  C   LIG    1        4.561   0.452   1.473  0.00  0.00    +0.290 A 
ATOM     18  S   LIG    1        4.001   2.047   1.236  0.00  0.00    +0.130 S 
ATOM     19  C   LIG    1        2.337   1.476   1.150  0.00  0.00    -0.200 A 
ATOM     20  C   LIG    1        1.139   2.153   0.962  0.00  0.00    +0.130 A 
ENDBRANCH  10  12
ENDBRANCH   6   7
BRANCH   1  21
ATOM     21  O   LIG    1       -5.027   4.914   0.062  0.00  0.00    -0.220 OA
BRANCH  21  26
ATOM     22  C   LIG    1       -8.291   9.490  -0.310  0.00  0.00    +0.100 C 
ATOM     23  C   LIG    1       -7.418   8.266  -0.210  0.00  0.00    -0.070 A 
ATOM     24  C   LIG    1       -6.935   7.667  -1.359  0.00  0.00    +0.050 A 
ATOM     25  C   LIG    1       -6.130   6.548  -1.270  0.00  0.00    +0.040 A 
ATOM     26  C   LIG    1       -5.815   6.018  -0.028  0.00  0.00    +0.110 A 
ATOM     27  C   LIG    1       -6.301   6.621   1.125  0.00  0.00    -0.090 A 
ATOM     28 BR   LIG    1       -5.869   5.907   2.822  0.00  0.00    -0.040 Br
ATOM     29  C   LIG    1       -7.102   7.744   1.030  0.00  0.00    +0.060 A 
ENDBRANCH  21  26
ENDBRANCH   1  21
TORSDOF 4
