REMARK  Name = ZINCpk00000eb5l5.0
REMARK                            x       y       z     vdW  Elec       q    Type
REMARK                         _______ _______ _______ _____ _____    ______ ____
ROOT
ATOM      1  C   LIG    1        2.306  -6.626  -1.072  0.00  0.00    +0.180 C 
ATOM      2  C   LIG    1        1.487  -6.079   0.100  0.00  0.00    +0.050 C 
ATOM      3  C   LIG    1        1.362  -4.560  -0.037  0.00  0.00    +0.230 C 
ATOM      4  N   LIG    1        2.700  -3.956  -0.046  0.00  0.00    -0.470 N 
ATOM      5  C   LIG    1        3.489  -4.431  -1.190  0.00  0.00    +0.200 C 
ATOM      6  C   LIG    1        3.678  -5.946  -1.088  0.00  0.00    +0.040 C 
ENDROOT
BRANCH   4   7
ATOM      7  C   LIG    1        2.621  -2.569  -0.038  0.00  0.00    +0.310 A 
ATOM      8  C   LIG    1        3.799  -1.814  -0.045  0.00  0.00    +0.010 A 
ATOM      9  C   LIG    1        3.732  -0.448  -0.037  0.00  0.00    +0.120 A 
ATOM     10  C   LIG    1        2.465   0.154  -0.021  0.00  0.00    +0.080 A 
ATOM     11  N   LIG    1        2.317   1.501  -0.012  0.00  0.00    -0.510 NA
ATOM     12  C   LIG    1        1.143   2.057   0.002  0.00  0.00    +0.580 A 
ATOM     13  N   LIG    1       -0.016   1.349   0.009  0.00  0.00    -0.650 N 
ATOM     14  H   LIG    1       -0.865   1.817   0.016  0.00  0.00    +0.430 HD
ATOM     15  C   LIG    1        0.002  -0.004   0.002  0.00  0.00    +0.550 A 
ATOM     16  O   LIG    1       -1.030  -0.650   0.008  0.00  0.00    -0.480 OA
ATOM     17  C   LIG    1        1.319  -0.666  -0.014  0.00  0.00    +0.050 A 
ATOM     18  N   LIG    1        1.435  -1.988  -0.023  0.00  0.00    -0.460 NA
ENDBRANCH   4   7
BRANCH   1  19
ATOM     19  O   LIG    1        2.474  -8.037  -0.920  0.00  0.00    -0.280 OA
BRANCH  19  24
ATOM     20  C   LIG    1        2.937 -11.028  -5.558  0.00  0.00    +0.110 C 
ATOM     21  C   LIG    1        2.811 -10.214  -4.296  0.00  0.00    -0.230 A 
ATOM     22  C   LIG    1        2.857 -10.824  -3.052  0.00  0.00    +0.370 A 
ATOM     23  N   LIG    1        2.744 -10.080  -1.964  0.00  0.00    -0.520 NA
ATOM     24  C   LIG    1        2.587  -8.769  -2.055  0.00  0.00    +0.500 A 
ATOM     25  N   LIG    1        2.533  -8.156  -3.226  0.00  0.00    -0.570 NA
ATOM     26  C   LIG    1        2.646  -8.839  -4.353  0.00  0.00    +0.360 A 
ENDBRANCH  19  24
ENDBRANCH   1  19
TORSDOF 3
