REMARK  Name = ZINCpe000000Yx6b.0
REMARK                            x       y       z     vdW  Elec       q    Type
REMARK                         _______ _______ _______ _____ _____    ______ ____
ROOT
ATOM      1  C   LIG    1       -1.400   6.287   0.049  0.00  0.00    +0.520 C 
ATOM      2  N   LIG    1       -1.465   7.633   0.057  0.00  0.00    -0.620 N 
ATOM      3  C   LIG    1       -0.240   8.447   0.056  0.00  0.00    +0.300 C 
ATOM      4  C   LIG    1       -0.349   9.481  -1.076  0.00  0.00    +0.210 C 
ATOM      5  N   LIG    1       -1.598  10.239  -0.920  0.00  0.00    -0.460 N 
ATOM      6  C   LIG    1       -2.772   9.366  -1.053  0.00  0.00    +0.220 C 
ATOM      7  C   LIG    1       -2.761   8.327   0.073  0.00  0.00    +0.300 C 
ATOM      8  O   LIG    1       -2.421   5.631   0.055  0.00  0.00    -0.530 OA
ENDROOT
BRANCH   5   9
ATOM      9  C   LIG    1       -1.657  11.289  -1.821  0.00  0.00    +0.490 A 
ATOM     10  N   LIG    1       -2.690  11.377  -2.646  0.00  0.00    -0.550 NA
ATOM     11  C   LIG    1       -2.779  12.370  -3.514  0.00  0.00    +0.340 A 
ATOM     12  C   LIG    1       -1.770  13.319  -3.562  0.00  0.00    -0.110 A 
ATOM     13  C   LIG    1       -0.701  13.194  -2.688  0.00  0.00    +0.350 A 
ATOM     14  N   LIG    1       -0.676  12.179  -1.841  0.00  0.00    -0.530 NA
ENDBRANCH   5   9
BRANCH   1  15
ATOM     15  C   LIG    1       -0.061   5.597   0.033  0.00  0.00    +0.040 C 
BRANCH  15  16
ATOM     16  C   LIG    1       -0.268   4.081   0.026  0.00  0.00    +0.310 C 
BRANCH  16  17
ATOM     17  N   LIG    1        1.034   3.410   0.011  0.00  0.00    -0.720 N 
ATOM     18  H   LIG    1        1.850   3.934   0.005  0.00  0.00    +0.410 HD
BRANCH  17  24
ATOM     19  C   LIG    1        2.351   1.387  -0.013  0.00  0.00    -0.160 A 
ATOM     20  C   LIG    1        2.392  -0.012  -0.020  0.00  0.00    +0.160 A 
ATOM     21  C   LIG    1        1.194  -0.705  -0.013  0.00  0.00    -0.100 A 
ATOM     22  C   LIG    1        0.002  -0.004   0.002  0.00  0.00    +0.360 A 
ATOM     23  N   LIG    1       -0.016   1.315   0.009  0.00  0.00    -0.530 NA
ATOM     24  C   LIG    1        1.100   2.027   0.002  0.00  0.00    +0.450 A 
BRANCH  19  26
ATOM     25  N   LIG    1        4.522   2.759  -0.026  0.00  0.00    -0.420 NA
ATOM     26  C   LIG    1        3.562   2.152  -0.020  0.00  0.00    +0.260 C 
ENDBRANCH  19  26
ENDBRANCH  17  24
ENDBRANCH  16  17
ENDBRANCH  15  16
ENDBRANCH   1  15
TORSDOF 6
