REMARK  Name = ZINCvU0000000GzH.0
REMARK                            x       y       z     vdW  Elec       q    Type
REMARK                         _______ _______ _______ _____ _____    ______ ____
ROOT
ATOM      1  N   LIG    1        5.843   6.872  -0.558  0.00  0.00    -0.620 N 
ATOM      2  H   LIG    1        6.330   6.235  -0.012  0.00  0.00    +0.430 HD
ATOM      3  C   LIG    1        4.552   6.645  -0.870  0.00  0.00    +0.580 C 
ATOM      4  O   LIG    1        3.942   7.444  -1.555  0.00  0.00    -0.470 OA
ENDROOT
BRANCH   1   7
ATOM      5  C   LIG    1        8.818   7.653   0.011  0.00  0.00    +0.150 C 
ATOM      6  C   LIG    1        7.770   8.387  -0.786  0.00  0.00    -0.230 A 
ATOM      7  C   LIG    1        6.476   8.018  -1.016  0.00  0.00    +0.210 A 
ATOM      8  O   LIG    1        5.940   8.983  -1.780  0.00  0.00    +0.120 OA
ATOM      9  N   LIG    1        6.741   9.858  -2.014  0.00  0.00    -0.360 NA
ATOM     10  C   LIG    1        7.899   9.614  -1.467  0.00  0.00    +0.050 A 
BRANCH  10  11
ATOM     11  C   LIG    1        9.133  10.474  -1.549  0.00  0.00    +0.080 C 
ATOM     12  C   LIG    1        8.836  11.851  -0.952  0.00  0.00    +0.020 C 
ATOM     13  C   LIG    1       10.089  12.725  -1.035  0.00  0.00    +0.010 C 
ATOM     14  C   LIG    1       10.505  12.883  -2.498  0.00  0.00    +0.000 C 
ATOM     15  C   LIG    1       10.803  11.506  -3.095  0.00  0.00    +0.010 C 
ATOM     16  C   LIG    1        9.550  10.632  -3.013  0.00  0.00    +0.020 C 
ENDBRANCH  10  11
ENDBRANCH   1   7
BRANCH   3  17
ATOM     17  C   LIG    1        3.880   5.427  -0.383  0.00  0.00    -0.220 A 
ATOM     18  C   LIG    1        2.569   5.063  -0.622  0.00  0.00    +0.060 A 
ATOM     19  N   LIG    1        2.359   3.889   0.000  0.00  0.00    -0.270 N 
ATOM     20  N   LIG    1        3.542   3.509   0.642  0.00  0.00    -0.240 NA
ATOM     21  C   LIG    1        4.455   4.414   0.416  0.00  0.00    +0.300 A 
BRANCH  19  22
ATOM     22  C   LIG    1        1.155   3.170   0.008  0.00  0.00    +0.100 A 
ATOM     23  C   LIG    1        1.174   1.782   0.000  0.00  0.00    +0.090 A 
ATOM     24  C   LIG    1       -0.013   1.076   0.008  0.00  0.00    +0.010 A 
ATOM     25  C   LIG    1       -1.221   1.751   0.017  0.00  0.00    +0.120 A 
ATOM     26  C   LIG    1       -1.243   3.136   0.031  0.00  0.00    +0.020 A 
ATOM     27  F   LIG    1       -2.381   1.059   0.019  0.00  0.00    -0.130 F 
ATOM     28  C   LIG    1       -0.058   3.846   0.023  0.00  0.00    +0.060 A 
ENDBRANCH  19  22
BRANCH  18  29
ATOM     29  C   LIG    1        1.561   5.839  -1.430  0.00  0.00    +0.530 C 
ATOM     30  F   LIG    1        0.653   4.951  -2.019  0.00  0.00    -0.170 F 
ATOM     31  F   LIG    1        2.220   6.562  -2.429  0.00  0.00    -0.120 F 
ATOM     32  F   LIG    1        0.872   6.722  -0.592  0.00  0.00    -0.160 F 
ENDBRANCH  18  29
ENDBRANCH   3  17
TORSDOF 5
