REMARK  Name = ZINCvU0000000JQX.0
REMARK                            x       y       z     vdW  Elec       q    Type
REMARK                         _______ _______ _______ _____ _____    ______ ____
ROOT
ATOM      1  C   LIG    1       -1.152   2.390  -0.158  0.00  0.00    +0.160 A 
ATOM      2  N   LIG    1       -0.713   3.526   0.336  0.00  0.00    -0.280 NA
ATOM      3  N   LIG    1        0.571   3.519   0.385  0.00  0.00    -0.260 NA
ATOM      4  C   LIG    1        1.030   2.376  -0.068  0.00  0.00    +0.230 A 
ATOM      5  N   LIG    1       -0.059   1.616  -0.426  0.00  0.00    -0.450 N 
ENDROOT
BRANCH   4   6
ATOM      6  C   LIG    1        2.451   1.979  -0.172  0.00  0.00    -0.070 A 
ATOM      7  C   LIG    1        3.435   2.929  -0.470  0.00  0.00    +0.120 A 
ATOM      8  C   LIG    1        4.750   2.506  -0.556  0.00  0.00    -0.010 A 
ATOM      9  C   LIG    1        5.047   1.171  -0.349  0.00  0.00    +0.270 A 
ATOM     10  N   LIG    1        4.098   0.297  -0.070  0.00  0.00    -0.470 NA
ATOM     11  C   LIG    1        2.834   0.652   0.029  0.00  0.00    +0.270 A 
ENDBRANCH   4   6
BRANCH   1  12
ATOM     12  S   LIG    1       -2.837   1.946  -0.419  0.00  0.00    +0.070 S 
BRANCH  12  14
ATOM     13  C   LIG    1       -3.396   3.623   1.663  0.00  0.00    +0.110 C 
ATOM     14  C   LIG    1       -3.654   3.452   0.165  0.00  0.00    +0.150 C 
BRANCH  14  15
ATOM     15  C   LIG    1       -5.136   3.347  -0.082  0.00  0.00    +0.170 A 
ATOM     16  N   LIG    1       -5.886   2.310   0.166  0.00  0.00    -0.250 NA
ATOM     17  N   LIG    1       -7.102   2.567  -0.166  0.00  0.00    -0.260 NA
ATOM     18  C   LIG    1       -7.171   3.791  -0.643  0.00  0.00    +0.250 A 
ATOM     19  O   LIG    1       -5.926   4.309  -0.592  0.00  0.00    -0.210 OA
BRANCH  18  20
ATOM     20  C   LIG    1       -8.380   4.470  -1.133  0.00  0.00    -0.160 A 
ATOM     21  C   LIG    1       -9.628   3.927  -1.169  0.00  0.00    +0.110 A 
ATOM     22  C   LIG    1      -10.599   4.764  -1.673  0.00  0.00    +0.020 A 
ATOM     23  C   LIG    1      -10.170   5.973  -2.048  0.00  0.00    -0.010 A 
ATOM     24  S   LIG    1       -8.441   6.112  -1.760  0.00  0.00    +0.180 S 
ENDBRANCH  18  20
ENDBRANCH  14  15
ENDBRANCH  12  14
ENDBRANCH   1  12
BRANCH   5  25
ATOM     25  C   LIG    1       -0.049   0.262  -0.985  0.00  0.00    +0.360 C 
BRANCH  25  26
ATOM     26  C   LIG    1        0.138   0.337  -2.479  0.00  0.00    -0.130 A 
ATOM     27  C   LIG    1       -0.954   0.533  -3.303  0.00  0.00    +0.040 A 
ATOM     28  C   LIG    1       -0.781   0.606  -4.673  0.00  0.00    +0.010 A 
ATOM     29  C   LIG    1        0.482   0.472  -5.218  0.00  0.00    +0.030 A 
ATOM     30  C   LIG    1        1.573   0.271  -4.394  0.00  0.00    +0.010 A 
ATOM     31  C   LIG    1        1.401   0.203  -3.024  0.00  0.00    +0.030 A 
ENDBRANCH  25  26
ENDBRANCH   5  25
TORSDOF 7
