REMARK  Name = ZINCqH00000500rA.0
REMARK                            x       y       z     vdW  Elec       q    Type
REMARK                         _______ _______ _______ _____ _____    ______ ____
ROOT
ATOM      1  C   LIG    1       -3.533   3.977  -0.620  0.00  0.00    +0.500 C 
ATOM      2  N   LIG    1       -2.474   4.476   0.047  0.00  0.00    -0.660 N 
ATOM      3  H   LIG    1       -2.555   5.313   0.530  0.00  0.00    +0.420 HD
ATOM      4  O   LIG    1       -3.455   2.891  -1.156  0.00  0.00    -0.490 OA
ENDROOT
BRANCH   1  13
ATOM      5  C   LIG    1       -6.634   2.071  -0.334  0.00  0.00    +0.090 C 
ATOM      6  C   LIG    1       -6.904   3.483  -0.859  0.00  0.00    +0.170 C 
ATOM      7  C   LIG    1       -8.075   3.531  -1.855  0.00  0.00    +0.090 C 
ATOM      8  C   LIG    1       -7.322   3.311  -3.191  0.00  0.00    +0.090 C 
ATOM      9  C   LIG    1       -5.920   3.804  -2.918  0.00  0.00    +0.550 C 
ATOM     10  O   LIG    1       -5.061   3.944  -3.762  0.00  0.00    -0.500 OA
ATOM     11  S   LIG    1       -7.164   4.703   0.487  0.00  0.00    -0.240 S 
ATOM     12  C   LIG    1       -5.356   4.973   0.732  0.00  0.00    +0.160 C 
ATOM     13  C   LIG    1       -4.814   4.766  -0.699  0.00  0.00    +0.270 C 
ATOM     14  N   LIG    1       -5.746   4.061  -1.586  0.00  0.00    -0.610 N 
ENDBRANCH   1  13
BRANCH   2  15
ATOM     15  C   LIG    1       -1.254   3.786   0.043  0.00  0.00    +0.180 A 
ATOM     16  C   LIG    1       -1.240   2.399   0.033  0.00  0.00    +0.040 A 
ATOM     17  C   LIG    1       -0.035   1.720   0.033  0.00  0.00    -0.020 A 
ATOM     18  C   LIG    1        1.159   2.420   0.032  0.00  0.00    +0.030 A 
ATOM     19  C   LIG    1        1.153   3.803   0.037  0.00  0.00    +0.010 A 
ATOM     20 CL   LIG    1       -0.019  -0.016   0.028  0.00  0.00    -0.060 Cl
ATOM     21  C   LIG    1       -0.051   4.492   0.042  0.00  0.00    +0.070 A 
BRANCH  21  22
ATOM     22  N   LIG    1       -0.059   5.891   0.045  0.00  0.00    -0.500 N 
ATOM     23  C   LIG    1        0.532   6.424  -1.190  0.00  0.00    +0.180 C 
ATOM     24  C   LIG    1        0.375   7.946  -1.217  0.00  0.00    +0.020 C 
ATOM     25  C   LIG    1        1.074   8.547   0.006  0.00  0.00    +0.010 C 
ATOM     26  C   LIG    1        0.473   7.940   1.277  0.00  0.00    +0.020 C 
ATOM     27  C   LIG    1        0.627   6.418   1.232  0.00  0.00    +0.180 C 
ENDBRANCH  21  22
ENDBRANCH   2  15
TORSDOF 3
