REMARK  Name = ZINCqH0000007c9N.0
REMARK                            x       y       z     vdW  Elec       q    Type
REMARK                         _______ _______ _______ _____ _____    ______ ____
ROOT
ATOM      1  S   LIG    1       -0.452  -2.071   1.722  0.00  0.00    +2.690 S 
ATOM      2  O   LIG    1       -1.593  -2.227   0.890  0.00  0.00    -0.960 OA
ATOM      3  O   LIG    1       -0.473  -2.306   3.123  0.00  0.00    -0.950 OA
ENDROOT
BRANCH   1   4
ATOM      4  C   LIG    1        0.794  -3.128   1.060  0.00  0.00    -0.680 A 
ATOM      5  C   LIG    1        0.520  -3.912  -0.044  0.00  0.00    +0.130 A 
ATOM      6  C   LIG    1        1.497  -4.741  -0.563  0.00  0.00    -0.090 A 
ATOM      7  C   LIG    1        2.749  -4.785   0.022  0.00  0.00    +0.080 A 
ATOM      8  C   LIG    1        3.023  -3.998   1.126  0.00  0.00    -0.010 A 
ATOM      9  C   LIG    1        2.048  -3.167   1.643  0.00  0.00    +0.010 A 
ATOM     10  C   LIG    1        2.349  -2.307   2.843  0.00  0.00    +0.100 C 
BRANCH   6  11
ATOM     11  C   LIG    1        1.198  -5.598  -1.766  0.00  0.00    -0.030 C 
ATOM     12  C   LIG    1        0.043  -6.546  -1.442  0.00  0.00    +0.040 C 
ATOM     13  C   LIG    1        2.440  -6.412  -2.134  0.00  0.00    +0.030 C 
ATOM     14  C   LIG    1        0.808  -4.703  -2.945  0.00  0.00    +0.040 C 
ENDBRANCH   6  11
ENDBRANCH   1   4
BRANCH   1  15
ATOM     15  N   LIG    1        0.068  -0.512   1.516  0.00  0.00    -1.110 NA
ATOM     16  H   LIG    1        0.251   0.044   2.290  0.00  0.00    +0.420 HD
BRANCH  15  17
ATOM     17  C   LIG    1        0.251   0.027   0.167  0.00  0.00    +0.320 C 
BRANCH  17  21
ATOM     18  C   LIG    1        0.521   4.290   0.359  0.00  0.00    +0.110 A 
ATOM     19  C   LIG    1       -0.712   3.678   0.199  0.00  0.00    -0.030 A 
ATOM     20  C   LIG    1       -0.795   2.299   0.133  0.00  0.00    +0.040 A 
ATOM     21  C   LIG    1        0.348   1.529   0.235  0.00  0.00    -0.100 A 
ATOM     22  C   LIG    1        1.581   2.134   0.394  0.00  0.00    -0.020 A 
ATOM     23  C   LIG    1        1.672   3.515   0.457  0.00  0.00    +0.100 A 
BRANCH  18  25
ATOM     24  C   LIG    1       -0.618   6.378   0.312  0.00  0.00    +0.240 C 
ATOM     25  O   LIG    1        0.605   5.646   0.419  0.00  0.00    -0.310 OA
ENDBRANCH  18  25
BRANCH  23  26
ATOM     26  O   LIG    1        2.884   4.112   0.614  0.00  0.00    -0.310 OA
ATOM     27  C   LIG    1        4.023   3.253   0.708  0.00  0.00    +0.250 C 
ENDBRANCH  23  26
ENDBRANCH  17  21
ENDBRANCH  15  17
ENDBRANCH   1  15
TORSDOF 7
