REMARK  Name = ZINCrg000000tgO7.0
REMARK                            x       y       z     vdW  Elec       q    Type
REMARK                         _______ _______ _______ _____ _____    ______ ____
ROOT
ATOM      1  O   LIG    1        3.338   0.923  -2.368  0.00  0.00    -0.520 OA
ATOM      2  C   LIG    1        4.134   0.967  -1.454  0.00  0.00    +0.520 C 
ATOM      3  N   LIG    1        5.454   1.051  -1.712  0.00  0.00    -0.600 N 
ATOM      4  C   LIG    1        6.429   1.112  -0.616  0.00  0.00    +0.270 C 
ATOM      5  C   LIG    1        7.325   2.333  -0.813  0.00  0.00    +0.030 C 
ATOM      6  C   LIG    1        7.951   2.284  -2.209  0.00  0.00    +0.060 C 
ATOM      7  C   LIG    1        6.845   2.318  -3.267  0.00  0.00    -0.480 C 
ATOM      8  C   LIG    1        5.944   1.091  -3.097  0.00  0.00    +0.330 C 
ENDROOT
BRANCH   7   9
ATOM      9  S   LIG    1        7.588   2.300  -4.921  0.00  0.00    +2.610 S 
ATOM     10  O   LIG    1        8.207   1.046  -5.176  0.00  0.00    -0.940 OA
ATOM     11  O   LIG    1        8.272   3.519  -5.174  0.00  0.00    -0.940 OA
BRANCH   9  12
ATOM     12  N   LIG    1        6.295   2.334  -5.955  0.00  0.00    -1.000 NA
ATOM     13  C   LIG    1        5.675   1.089  -6.434  0.00  0.00    +0.270 C 
ATOM     14  C   LIG    1        4.158   1.190  -6.204  0.00  0.00    +0.210 C 
ATOM     15  O   LIG    1        3.675   2.404  -6.784  0.00  0.00    -0.370 OA
ATOM     16  C   LIG    1        4.221   3.590  -6.201  0.00  0.00    +0.220 C 
ATOM     17  C   LIG    1        5.737   3.612  -6.427  0.00  0.00    +0.280 C 
ENDBRANCH   9  12
ENDBRANCH   7   9
BRANCH   2  18
ATOM     18  C   LIG    1        3.647   0.928  -0.028  0.00  0.00    +0.190 C 
BRANCH  18  19
ATOM     19  C   LIG    1        2.143   0.834  -0.014  0.00  0.00    +0.150 A 
ATOM     20  N   LIG    1        1.311   1.830  -0.001  0.00  0.00    -0.270 NA
ATOM     21  O   LIG    1       -0.016   1.344   0.009  0.00  0.00    -0.090 OA
ATOM     22  C   LIG    1        0.002  -0.004   0.002  0.00  0.00    +0.090 A 
ATOM     23  C   LIG    1       -0.993  -0.973   0.007  0.00  0.00    +0.020 A 
ATOM     24  C   LIG    1       -0.649  -2.308  -0.004  0.00  0.00    +0.080 A 
ATOM     25  C   LIG    1        0.683  -2.694  -0.019  0.00  0.00    -0.010 A 
ATOM     26  C   LIG    1        1.677  -1.756  -0.023  0.00  0.00    +0.090 A 
ATOM     27  C   LIG    1        1.350  -0.399  -0.013  0.00  0.00    -0.190 A 
ENDBRANCH  18  19
ENDBRANCH   2  18
TORSDOF 4
