REMARK  Name = ZINCpe000027pGWm.1
REMARK                            x       y       z     vdW  Elec       q    Type
REMARK                         _______ _______ _______ _____ _____    ______ ____
ROOT
ATOM      1  C   LIG    1        0.852   5.973   2.917  0.00  0.00    +0.290 C 
ATOM      2  C   LIG    1        0.897   5.524   1.454  0.00  0.00    +0.170 C 
ATOM      3  N   LIG    1        1.151   4.077   1.398  0.00  0.00    -0.530 NA
ATOM      4  C   LIG    1        2.417   3.744   2.067  0.00  0.00    +0.160 C 
ATOM      5  C   LIG    1        2.357   4.210   3.524  0.00  0.00    +0.230 C 
ATOM      6  O   LIG    1        2.079   5.613   3.559  0.00  0.00    -0.370 OA
ENDROOT
BRANCH   1   9
ATOM      7  C   LIG    1       -0.270   9.392   3.261  0.00  0.00    +0.290 A 
ATOM      8  N   LIG    1       -0.457   8.098   3.303  0.00  0.00    -0.530 NA
ATOM      9  C   LIG    1        0.671   7.468   2.980  0.00  0.00    +0.230 A 
ATOM     10  N   LIG    1        1.598   8.356   2.732  0.00  0.00    -0.280 NA
ATOM     11  N   LIG    1        1.006   9.618   2.902  0.00  0.00    -0.480 N 
ATOM     12  H   LIG    1        1.434  10.481   2.789  0.00  0.00    +0.440 HD
BRANCH   7  14
ATOM     13  C   LIG    1       -1.960  10.904   2.257  0.00  0.00    +0.050 C 
ATOM     14  C   LIG    1       -1.305  10.446   3.561  0.00  0.00    +0.150 C 
ENDBRANCH   7  14
ENDBRANCH   1   9
BRANCH   3  15
ATOM     15  C   LIG    1        1.145   3.595   0.011  0.00  0.00    +0.230 C 
BRANCH  15  16
ATOM     16  C   LIG    1        1.170   2.088   0.002  0.00  0.00    -0.040 A 
ATOM     17  C   LIG    1       -0.017   1.379   0.010  0.00  0.00    +0.000 A 
ATOM     18  C   LIG    1        0.002  -0.004   0.002  0.00  0.00    +0.050 A 
ATOM     19  C   LIG    1        1.207  -0.679  -0.014  0.00  0.00    -0.080 A 
ATOM     20  C   LIG    1        2.399   0.031  -0.021  0.00  0.00    +0.130 A 
ATOM     21  C   LIG    1        2.377   1.417  -0.013  0.00  0.00    -0.010 A 
BRANCH  20  22
ATOM     22  O   LIG    1        3.586  -0.632  -0.036  0.00  0.00    -0.290 OA
BRANCH  22  23
ATOM     23  C   LIG    1        3.531  -2.060  -0.043  0.00  0.00    +0.240 C 
BRANCH  23  24
ATOM     24  C   LIG    1        4.932  -2.615  -0.060  0.00  0.00    +0.520 C 
ATOM     25  O   LIG    1        5.883  -1.863  -0.065  0.00  0.00    -0.520 OA
ATOM     26  N   LIG    1        5.128  -3.949  -0.069  0.00  0.00    -0.850 N 
ATOM     27  H   LIG    1        6.030  -4.306  -0.079  0.00  0.00    +0.410 HD
ATOM     28  H   LIG    1        4.368  -4.551  -0.065  0.00  0.00    +0.400 HD
ENDBRANCH  23  24
ENDBRANCH  22  23
ENDBRANCH  20  22
ENDBRANCH  15  16
ENDBRANCH   3  15
TORSDOF 7
