REMARK  Name = ZINCpe000027pGWm.0
REMARK                            x       y       z     vdW  Elec       q    Type
REMARK                         _______ _______ _______ _____ _____    ______ ____
ROOT
ATOM      1  C   LIG    1       -0.807   2.985  -1.216  0.00  0.00    +0.270 C 
ATOM      2  C   LIG    1       -1.534   3.499   0.029  0.00  0.00    +0.180 C 
ATOM      3  N   LIG    1       -0.817   3.048   1.230  0.00  0.00    -0.530 NA
ATOM      4  C   LIG    1       -0.731   1.580   1.266  0.00  0.00    +0.160 C 
ATOM      5  C   LIG    1       -0.013   1.086   0.008  0.00  0.00    +0.240 C 
ATOM      6  O   LIG    1       -0.706   1.560  -1.149  0.00  0.00    -0.370 OA
ENDROOT
BRANCH   1  10
ATOM      7  C   LIG    1       -2.135   4.193  -4.376  0.00  0.00    +0.190 A 
ATOM      8  N   LIG    1       -3.165   3.601  -3.836  0.00  0.00    -0.290 NA
ATOM      9  N   LIG    1       -2.835   3.117  -2.691  0.00  0.00    -0.260 NA
ATOM     10  C   LIG    1       -1.579   3.378  -2.449  0.00  0.00    +0.180 A 
ATOM     11  N   LIG    1       -1.100   4.072  -3.510  0.00  0.00    -0.570 N 
ATOM     12  H   LIG    1       -0.199   4.412  -3.626  0.00  0.00    +0.430 HD
BRANCH   7  14
ATOM     13  C   LIG    1       -2.579   3.919  -6.801  0.00  0.00    +0.050 C 
ATOM     14  C   LIG    1       -2.103   4.886  -5.714  0.00  0.00    +0.140 C 
ENDBRANCH   7  14
ENDBRANCH   1  10
BRANCH   3  15
ATOM     15  C   LIG    1       -1.451   3.568   2.449  0.00  0.00    +0.230 C 
BRANCH  15  16
ATOM     16  C   LIG    1       -0.561   3.295   3.634  0.00  0.00    -0.040 A 
ATOM     17  C   LIG    1        0.391   4.224   4.011  0.00  0.00    +0.000 A 
ATOM     18  C   LIG    1        1.209   3.977   5.098  0.00  0.00    +0.050 A 
ATOM     19  C   LIG    1        1.077   2.801   5.811  0.00  0.00    -0.080 A 
ATOM     20  C   LIG    1        0.121   1.867   5.435  0.00  0.00    +0.130 A 
ATOM     21  C   LIG    1       -0.702   2.120   4.347  0.00  0.00    -0.010 A 
BRANCH  20  22
ATOM     22  O   LIG    1       -0.011   0.710   6.134  0.00  0.00    -0.290 OA
BRANCH  22  23
ATOM     23  C   LIG    1        0.867   0.519   7.245  0.00  0.00    +0.240 C 
BRANCH  23  24
ATOM     24  C   LIG    1        0.576  -0.810   7.893  0.00  0.00    +0.520 C 
ATOM     25  O   LIG    1       -0.297  -1.524   7.447  0.00  0.00    -0.520 OA
ATOM     26  N   LIG    1        1.286  -1.206   8.968  0.00  0.00    -0.850 N 
ATOM     27  H   LIG    1        1.099  -2.061   9.385  0.00  0.00    +0.410 HD
ATOM     28  H   LIG    1        1.984  -0.635   9.325  0.00  0.00    +0.400 HD
ENDBRANCH  23  24
ENDBRANCH  22  23
ENDBRANCH  20  22
ENDBRANCH  15  16
ENDBRANCH   3  15
TORSDOF 7
