REMARK  Name = ZINCrg000010ctLc.0
REMARK                            x       y       z     vdW  Elec       q    Type
REMARK                         _______ _______ _______ _____ _____    ______ ____
ROOT
ATOM      1  C   LIG    1        3.063   5.353  -0.357  0.00  0.00    +0.560 C 
ATOM      2  N   LIG    1        2.808   4.045  -0.152  0.00  0.00    -0.700 N 
ATOM      3  H   LIG    1        3.532   3.438   0.064  0.00  0.00    +0.410 HD
ATOM      4  O   LIG    1        2.172   6.097  -0.719  0.00  0.00    -0.530 OA
ENDROOT
BRANCH   1   8
ATOM      5  C   LIG    1        4.611   9.407  -0.474  0.00  0.00    +0.060 A 
ATOM      6  C   LIG    1        3.842   8.293  -0.510  0.00  0.00    +0.130 A 
ATOM      7  N   LIG    1        4.654   7.234  -0.237  0.00  0.00    -0.340 N 
ATOM      8  C   LIG    1        4.419   5.879  -0.142  0.00  0.00    +0.030 A 
ATOM      9  C   LIG    1        5.450   5.019   0.159  0.00  0.00    +0.070 A 
ATOM     10  C   LIG    1        6.742   5.518   0.359  0.00  0.00    +0.030 A 
ATOM     11  C   LIG    1        6.976   6.856   0.265  0.00  0.00    +0.120 A 
ATOM     12  C   LIG    1        5.915   7.733  -0.038  0.00  0.00    +0.200 A 
ATOM     13  N   LIG    1        5.862   9.049  -0.186  0.00  0.00    -0.470 NA
BRANCH   5  15
ATOM     14  C   LIG    1        4.509  11.695   0.477  0.00  0.00    +0.030 C 
ATOM     15  C   LIG    1        4.133  10.815  -0.717  0.00  0.00    +0.120 C 
ENDBRANCH   5  15
ENDBRANCH   1   8
BRANCH   2  16
ATOM     16  C   LIG    1        1.436   3.542  -0.257  0.00  0.00    +0.310 C 
BRANCH  16  17
ATOM     17  C   LIG    1        1.422   2.037   0.018  0.00  0.00    +0.010 C 
ATOM     18  C   LIG    1       -0.024   1.536   0.032  0.00  0.00    +0.050 C 
ATOM     19  C   LIG    1       -0.005   0.002   0.032  0.00  0.00    +0.040 C 
ATOM     20  C   LIG    1        0.542  -0.481  -1.311  0.00  0.00    +0.260 C 
ATOM     21  N   LIG    1        1.799   0.189  -1.621  0.00  0.00    -0.590 N 
ATOM     22  C   LIG    1        2.199   1.327  -1.053  0.00  0.00    +0.530 C 
ATOM     23  O   LIG    1        3.247   1.814  -1.420  0.00  0.00    -0.540 OA
BRANCH  21  24
ATOM     24  C   LIG    1        2.677  -0.426  -2.619  0.00  0.00    +0.370 C 
BRANCH  24  25
ATOM     25  C   LIG    1        2.331   0.103  -3.987  0.00  0.00    +0.440 C 
ATOM     26  O   LIG    1        1.442   0.911  -4.115  0.00  0.00    -0.500 OA
BRANCH  25  27
ATOM     27  O   LIG    1        3.010  -0.323  -5.064  0.00  0.00    -0.360 OA
ATOM     28  C   LIG    1        2.622   0.230  -6.349  0.00  0.00    +0.260 C 
ENDBRANCH  25  27
ENDBRANCH  24  25
ENDBRANCH  21  24
ENDBRANCH  16  17
ENDBRANCH   2  16
TORSDOF 7
