REMARK  Name = ZINCqH0000007iy9.0
REMARK                            x       y       z     vdW  Elec       q    Type
REMARK                         _______ _______ _______ _____ _____    ______ ____
ROOT
ATOM      1  N   LIG    1       -0.579  -5.387  -0.020  0.00  0.00    -0.650 N 
ATOM      2  H   LIG    1       -1.489  -5.064   0.067  0.00  0.00    +0.420 HD
ATOM      3  C   LIG    1        0.448  -4.514  -0.029  0.00  0.00    +0.540 C 
ATOM      4  O   LIG    1        1.591  -4.921  -0.037  0.00  0.00    -0.510 OA
ENDROOT
BRANCH   1   8
ATOM      5  C   LIG    1        0.161  -9.482  -0.364  0.00  0.00    +0.160 A 
ATOM      6  C   LIG    1        1.074  -8.565  -0.863  0.00  0.00    -0.080 A 
ATOM      7  C   LIG    1        0.827  -7.210  -0.755  0.00  0.00    +0.110 A 
ATOM      8  C   LIG    1       -0.330  -6.763  -0.136  0.00  0.00    +0.080 A 
ATOM      9  C   LIG    1       -1.249  -7.682   0.366  0.00  0.00    +0.140 A 
ATOM     10  C   LIG    1       -1.002  -9.040   0.251  0.00  0.00    -0.080 A 
BRANCH   5  12
ATOM     11  C   LIG    1        1.620 -11.199  -1.123  0.00  0.00    +0.250 C 
ATOM     12  O   LIG    1        0.404 -10.814  -0.478  0.00  0.00    -0.320 OA
ENDBRANCH   5  12
BRANCH   9  13
ATOM     13  O   LIG    1       -2.388  -7.247   0.969  0.00  0.00    -0.320 OA
ATOM     14  C   LIG    1       -3.285  -8.245   1.460  0.00  0.00    +0.250 C 
ENDBRANCH   9  13
ENDBRANCH   1   8
BRANCH   3  15
ATOM     15  C   LIG    1        0.177  -3.032  -0.031  0.00  0.00    +0.110 C 
BRANCH  15  16
ATOM     16  S   LIG    1        1.750  -2.129  -0.045  0.00  0.00    +0.100 S 
BRANCH  16  17
ATOM     17  C   LIG    1        1.239  -0.442  -0.045  0.00  0.00    +0.130 A 
ATOM     18  N   LIG    1        0.000  -0.004  -0.038  0.00  0.00    -0.250 NA
ATOM     19  N   LIG    1       -0.018   1.283  -0.040  0.00  0.00    -0.240 NA
ATOM     20  C   LIG    1        1.219   1.744  -0.050  0.00  0.00    +0.200 A 
ATOM     21  C   LIG    1        1.771   3.043  -0.057  0.00  0.00    +0.010 A 
ATOM     22  C   LIG    1        3.123   3.190  -0.067  0.00  0.00    +0.100 A 
ATOM     23  C   LIG    1        3.952   2.052  -0.070  0.00  0.00    -0.050 A 
ATOM     24  C   LIG    1        3.414   0.815  -0.063  0.00  0.00    +0.280 A 
ATOM     25 CL   LIG    1        5.678   2.242  -0.083  0.00  0.00    -0.010 Cl
ATOM     26 CL   LIG    1        0.736   4.436  -0.052  0.00  0.00    +0.000 Cl
ATOM     27  N   LIG    1        2.056   0.649  -0.053  0.00  0.00    -0.370 N 
ENDBRANCH  16  17
ENDBRANCH  15  16
ENDBRANCH   3  15
TORSDOF 6
