REMARK  Name = ZINCrH00000tj0CL.1
REMARK                            x       y       z     vdW  Elec       q    Type
REMARK                         _______ _______ _______ _____ _____    ______ ____
ROOT
ATOM      1  C   LIG    1       -1.077   1.684  -5.836  0.00  0.00    -0.660 A 
ATOM      2  C   LIG    1       -2.102   2.582  -5.603  0.00  0.00    +0.110 A 
ATOM      3  C   LIG    1       -2.369   3.013  -4.316  0.00  0.00    +0.020 A 
ATOM      4  C   LIG    1       -1.611   2.547  -3.260  0.00  0.00    +0.090 A 
ATOM      5  C   LIG    1       -0.581   1.645  -3.490  0.00  0.00    +0.130 A 
ATOM      6  C   LIG    1       -0.312   1.219  -4.784  0.00  0.00    +0.100 A 
ENDROOT
BRANCH   5   7
ATOM      7  N   LIG    1        0.189   1.172  -2.422  0.00  0.00    -0.670 N 
ATOM      8  H   LIG    1        1.135   0.996  -2.546  0.00  0.00    +0.410 HD
ATOM      9  C   LIG    1       -0.384   0.960  -1.221  0.00  0.00    +0.520 C 
ATOM     10  O   LIG    1       -1.546   1.259  -1.042  0.00  0.00    -0.520 OA
BRANCH   9  11
ATOM     11  C   LIG    1        0.419   0.351  -0.100  0.00  0.00    +0.000 C 
ATOM     12  C   LIG    1        1.613   1.252   0.226  0.00  0.00    +0.080 C 
ATOM     13  C   LIG    1        2.268   0.801   1.498  0.00  0.00    -0.050 C 
ATOM     14  C   LIG    1        1.709   0.019   2.365  0.00  0.00    -0.040 C 
ATOM     15  C   LIG    1        0.330  -0.554   2.213  0.00  0.00    +0.060 C 
ATOM     16  C   LIG    1       -0.453   0.228   1.156  0.00  0.00    +0.050 C 
ENDBRANCH   9  11
ENDBRANCH   5   7
BRANCH   1  17
ATOM     17  S   LIG    1       -0.742   1.138  -7.478  0.00  0.00    +2.690 S 
ATOM     18  O   LIG    1       -1.945   1.313  -8.212  0.00  0.00    -0.950 OA
ATOM     19  O   LIG    1       -0.080  -0.113  -7.356  0.00  0.00    -0.950 OA
BRANCH  17  20
ATOM     20  N   LIG    1        0.361   2.189  -8.128  0.00  0.00    -1.040 N 
ATOM     21  H   LIG    1        0.137   2.693  -8.926  0.00  0.00    +0.430 HD
BRANCH  20  27
ATOM     22  C   LIG    1        2.227   3.601  -7.512  0.00  0.00    +0.110 A 
ATOM     23  C   LIG    1        3.467   3.754  -6.915  0.00  0.00    -0.060 A 
ATOM     24  C   LIG    1        4.095   2.666  -6.336  0.00  0.00    +0.040 A 
ATOM     25  C   LIG    1        3.489   1.425  -6.351  0.00  0.00    +0.000 A 
ATOM     26  C   LIG    1        2.248   1.265  -6.939  0.00  0.00    +0.030 A 
ATOM     27  C   LIG    1        1.614   2.350  -7.527  0.00  0.00    +0.130 A 
BRANCH  22  29
ATOM     28  C   LIG    1        2.295   5.922  -8.028  0.00  0.00    +0.250 C 
ATOM     29  O   LIG    1        1.608   4.670  -8.081  0.00  0.00    -0.310 OA
ENDBRANCH  22  29
ENDBRANCH  20  27
ENDBRANCH  17  20
ENDBRANCH   1  17
TORSDOF 6
