REMARK  Name = ZINCvU0000000FTE.0
REMARK                            x       y       z     vdW  Elec       q    Type
REMARK                         _______ _______ _______ _____ _____    ______ ____
ROOT
ATOM      1  C   LIG    1       -2.408   2.820  -3.038  0.00  0.00    +0.500 A 
ATOM      2  N   LIG    1       -2.539   3.146  -1.767  0.00  0.00    -0.560 NA
ATOM      3  C   LIG    1       -3.557   3.903  -1.345  0.00  0.00    +0.540 A 
ATOM      4  C   LIG    1       -4.554   4.382  -2.324  0.00  0.00    -0.220 A 
ATOM      5  C   LIG    1       -4.379   4.017  -3.646  0.00  0.00    +0.060 A 
ATOM      6  S   LIG    1       -5.668   4.690  -4.632  0.00  0.00    +0.190 S 
ATOM      7  C   LIG    1       -6.425   5.454  -3.247  0.00  0.00    -0.040 A 
ATOM      8  C   LIG    1       -5.739   5.207  -2.131  0.00  0.00    +0.010 A 
ATOM      9  O   LIG    1       -3.662   4.195  -0.163  0.00  0.00    -0.470 OA
ATOM     10  N   LIG    1       -3.292   3.237  -3.985  0.00  0.00    -0.600 N 
ATOM     11  H   LIG    1       -3.158   2.979  -4.911  0.00  0.00    +0.420 HD
ENDROOT
BRANCH   8  12
ATOM     12  C   LIG    1       -6.148   5.727  -0.805  0.00  0.00    -0.040 A 
ATOM     13  C   LIG    1       -6.240   4.865   0.287  0.00  0.00    +0.060 A 
ATOM     14  C   LIG    1       -6.615   5.356   1.521  0.00  0.00    +0.000 A 
ATOM     15  C   LIG    1       -6.912   6.699   1.672  0.00  0.00    +0.010 A 
ATOM     16  C   LIG    1       -6.828   7.558   0.591  0.00  0.00    -0.010 A 
ATOM     17  C   LIG    1       -6.448   7.079  -0.646  0.00  0.00    +0.020 A 
ENDBRANCH   8  12
BRANCH   1  19
ATOM     18  C   LIG    1       -1.052   1.720  -4.788  0.00  0.00    +0.210 C 
ATOM     19  C   LIG    1       -1.270   1.986  -3.445  0.00  0.00    -0.170 C 
BRANCH  19  20
ATOM     20  C   LIG    1       -0.364   1.436  -2.430  0.00  0.00    +0.590 C 
ATOM     21  N   LIG    1        0.765   2.096  -2.105  0.00  0.00    -0.600 N 
ATOM     22  C   LIG    1        1.706   1.713  -1.042  0.00  0.00    +0.260 C 
ATOM     23  C   LIG    1        2.830   2.769  -1.019  0.00  0.00    +0.040 C 
ATOM     24  C   LIG    1        2.160   4.000  -1.693  0.00  0.00    +0.040 C 
ATOM     25  C   LIG    1        1.261   3.321  -2.756  0.00  0.00    +0.240 C 
ATOM     26  O   LIG    1       -0.633   0.383  -1.882  0.00  0.00    -0.500 OA
ENDBRANCH  19  20
BRANCH  18  31
ATOM     27  C   LIG    1        3.375  -1.238  -5.267  0.00  0.00    +0.140 C 
ATOM     28  C   LIG    1        2.132  -0.397  -5.406  0.00  0.00    -0.200 A 
ATOM     29  C   LIG    1        1.610  -0.003  -6.577  0.00  0.00    -0.030 A 
ATOM     30  C   LIG    1        0.470   0.753  -6.482  0.00  0.00    +0.090 A 
ATOM     31  C   LIG    1        0.075   0.977  -5.183  0.00  0.00    -0.260 A 
ATOM     32  S   LIG    1        1.204   0.179  -4.096  0.00  0.00    +0.270 S 
ENDBRANCH  18  31
ENDBRANCH   1  19
TORSDOF 4
