REMARK  Name = ZINCrH000004nbTU.0
REMARK                            x       y       z     vdW  Elec       q    Type
REMARK                         _______ _______ _______ _____ _____    ______ ____
ROOT
ATOM      1  C   LIG    1        2.625   3.663   2.974  0.00  0.00    +0.150 A 
ATOM      2  C   LIG    1        2.957   2.565   3.754  0.00  0.00    -0.090 A 
ATOM      3  C   LIG    1        2.782   1.286   3.254  0.00  0.00    +0.080 A 
ATOM      4  C   LIG    1        2.275   1.113   1.987  0.00  0.00    -0.190 A 
ATOM      5  C   LIG    1        2.111  -0.276   1.397  0.00  0.00    +0.340 C 
ATOM      6  N   LIG    1        0.683  -0.533   1.184  0.00  0.00    -0.620 N 
ATOM      7  C   LIG    1        0.000  -0.002   0.004  0.00  0.00    +0.300 C 
ATOM      8  C   LIG    1       -0.011   1.520   0.013  0.00  0.00    +0.100 C 
ATOM      9  O   LIG    1        1.331   2.022  -0.003  0.00  0.00    -0.320 OA
ATOM     10  C   LIG    1       -0.723   2.015   1.273  0.00  0.00    +0.030 C 
ATOM     11  C   LIG    1       -0.758   2.029  -1.222  0.00  0.00    +0.080 C 
ATOM     12  C   LIG    1       -0.006  -1.263   2.083  0.00  0.00    +0.700 C 
ATOM     13  N   LIG    1        0.636  -1.836   3.120  0.00  0.00    -0.670 N 
ATOM     14  H   LIG    1        1.580  -1.662   3.263  0.00  0.00    +0.410 HD
ATOM     15  O   LIG    1       -1.207  -1.405   1.959  0.00  0.00    -0.520 OA
ATOM     16  C   LIG    1        1.906   2.202   1.209  0.00  0.00    +0.170 A 
ATOM     17  C   LIG    1        2.101   3.485   1.703  0.00  0.00    -0.030 A 
ENDROOT
BRANCH  13  18
ATOM     18  C   LIG    1       -0.055  -2.680   3.987  0.00  0.00    +0.380 A 
ATOM     19  C   LIG    1        0.584  -3.184   5.115  0.00  0.00    -0.070 A 
ATOM     20  C   LIG    1       -0.116  -4.020   5.967  0.00  0.00    -0.030 A 
ATOM     21  C   LIG    1       -1.434  -4.327   5.664  0.00  0.00    -0.180 A 
ATOM     22  C   LIG    1       -1.997  -5.248   6.722  0.00  0.00    +0.090 C 
ATOM     23  C   LIG    1       -1.035  -5.123   7.923  0.00  0.00    +0.030 C 
ATOM     24  C   LIG    1       -2.006  -3.791   4.525  0.00  0.00    +0.310 A 
ATOM     25  C   LIG    1        0.291  -4.713   7.246  0.00  0.00    +0.090 C 
ATOM     26  N   LIG    1       -1.317  -2.992   3.734  0.00  0.00    -0.470 NA
ENDBRANCH  13  18
BRANCH   1  28
ATOM     27  C   LIG    1        3.357   5.032   4.775  0.00  0.00    +0.250 C 
ATOM     28  O   LIG    1        2.814   4.919   3.458  0.00  0.00    -0.310 OA
ENDBRANCH   1  28
TORSDOF 2
