REMARK  Name = ZINCpe00000zsuwL.0
REMARK                            x       y       z     vdW  Elec       q    Type
REMARK                         _______ _______ _______ _____ _____    ______ ____
ROOT
ATOM      1  C   LIG    1        0.216   1.244  -4.966  0.00  0.00    +0.200 C 
ATOM      2  C   LIG    1       -0.734   1.709  -6.090  0.00  0.00    +0.060 C 
ATOM      3  C   LIG    1       -2.113   1.764  -5.382  0.00  0.00    +0.050 C 
ATOM      4  C   LIG    1       -1.715   2.239  -3.962  0.00  0.00    +0.250 C 
ATOM      5  N   LIG    1       -0.432   1.567  -3.686  0.00  0.00    -0.600 N 
ATOM      6  C   LIG    1        0.068   1.300  -2.463  0.00  0.00    +0.550 C 
ATOM      7  O   LIG    1        1.175   0.818  -2.353  0.00  0.00    -0.520 OA
ENDROOT
BRANCH   6   8
ATOM      8  C   LIG    1       -0.750   1.600  -1.233  0.00  0.00    +0.000 C 
ATOM      9  C   LIG    1        0.184   1.833  -0.042  0.00  0.00    +0.090 C 
ATOM     10  C   LIG    1       -0.624   2.358   1.149  0.00  0.00    +0.340 C 
ATOM     11  N   LIG    1       -1.778   1.481   1.361  0.00  0.00    -0.300 N 
ATOM     12  N   LIG    1       -2.519   1.379   2.404  0.00  0.00    -0.090 NA
ATOM     13  N   LIG    1       -3.425   0.488   2.181  0.00  0.00    -0.080 NA
ATOM     14  N   LIG    1       -3.275   0.010   0.991  0.00  0.00    -0.290 NA
ATOM     15  C   LIG    1       -2.253   0.610   0.448  0.00  0.00    +0.180 A 
ATOM     16  C   LIG    1       -1.670   0.410  -0.927  0.00  0.00    +0.190 C 
ENDBRANCH   6   8
BRANCH   1  18
ATOM     17  O   LIG    1        1.784   2.884  -4.317  0.00  0.00    -0.430 OA
ATOM     18  C   LIG    1        1.533   1.968  -5.071  0.00  0.00    +0.400 C 
BRANCH  18  19
ATOM     19  C   LIG    1        2.514   1.564  -6.087  0.00  0.00    -0.180 A 
ATOM     20  C   LIG    1        2.229   0.502  -6.955  0.00  0.00    +0.080 A 
ATOM     21  C   LIG    1        3.146   0.133  -7.906  0.00  0.00    -0.020 A 
ATOM     22  C   LIG    1        4.361   0.803  -8.001  0.00  0.00    +0.140 A 
ATOM     23  C   LIG    1        4.651   1.854  -7.138  0.00  0.00    -0.020 A 
ATOM     24  C   LIG    1        3.739   2.235  -6.187  0.00  0.00    +0.100 A 
BRANCH  22  25
ATOM     25  O   LIG    1        5.267   0.429  -8.939  0.00  0.00    -0.500 OA
ATOM     26  H   LIG    1        5.888  -0.248  -8.638  0.00  0.00    +0.400 HD
ENDBRANCH  22  25
ENDBRANCH  18  19
ENDBRANCH   1  18
TORSDOF 4
