REMARK  Name = ZINCvU0000000Bti.0
REMARK                            x       y       z     vdW  Elec       q    Type
REMARK                         _______ _______ _______ _____ _____    ______ ____
ROOT
ATOM      1  N   LIG    1       -4.731   3.423  -3.041  0.00  0.00    -0.510 N 
ATOM      2  C   LIG    1       -4.172   2.988  -1.894  0.00  0.00    +0.560 A 
ATOM      3  C   LIG    1       -2.830   2.505  -1.926  0.00  0.00    -0.220 A 
ATOM      4  C   LIG    1       -2.160   2.505  -3.140  0.00  0.00    +0.090 A 
ATOM      5  S   LIG    1       -0.539   1.868  -2.917  0.00  0.00    +0.240 S 
ATOM      6  C   LIG    1       -0.794   1.613  -1.192  0.00  0.00    -0.230 A 
ATOM      7  C   LIG    1       -0.013   1.086   0.008  0.00  0.00    +0.120 C 
ATOM      8  C   LIG    1       -0.779   1.605   1.241  0.00  0.00    +0.050 C 
ATOM      9  C   LIG    1       -2.207   1.754   0.672  0.00  0.00    +0.100 C 
ATOM     10  N   LIG    1       -2.784   2.957  -4.247  0.00  0.00    -0.480 NA
ATOM     11  C   LIG    1       -2.013   1.984  -0.826  0.00  0.00    -0.050 A 
ATOM     12  O   LIG    1       -4.801   3.008  -0.850  0.00  0.00    -0.510 OA
ATOM     13  C   LIG    1       -4.018   3.399  -4.205  0.00  0.00    +0.340 A 
ENDROOT
BRANCH   1  14
ATOM     14  C   LIG    1       -6.107   3.925  -3.038  0.00  0.00    +0.300 C 
BRANCH  14  15
ATOM     15  C   LIG    1       -7.072   2.768  -3.306  0.00  0.00    +0.000 C 
BRANCH  15  16
ATOM     16  C   LIG    1       -8.509   3.292  -3.303  0.00  0.00    +0.030 C 
BRANCH  16  18
ATOM     17  C   LIG    1      -10.912   2.659  -3.568  0.00  0.00    +0.000 C 
ATOM     18  C   LIG    1       -9.474   2.135  -3.571  0.00  0.00    +0.000 C 
ENDBRANCH  16  18
ENDBRANCH  15  16
ENDBRANCH  14  15
ENDBRANCH   1  14
BRANCH  13  19
ATOM     19  S   LIG    1       -4.776   3.974  -5.688  0.00  0.00    +0.080 S 
BRANCH  19  20
ATOM     20  C   LIG    1       -3.418   3.715  -6.856  0.00  0.00    +0.090 C 
BRANCH  20  21
ATOM     21  C   LIG    1       -3.805   4.262  -8.206  0.00  0.00    -0.100 A 
ATOM     22  C   LIG    1       -2.849   4.848  -9.013  0.00  0.00    +0.090 A 
ATOM     23  C   LIG    1       -3.203   5.351 -10.252  0.00  0.00    +0.060 A 
ATOM     24  C   LIG    1       -4.514   5.267 -10.684  0.00  0.00    -0.060 A 
ATOM     25  C   LIG    1       -5.473   4.681  -9.877  0.00  0.00    +0.050 A 
ATOM     26 BR   LIG    1       -4.997   5.954 -12.378  0.00  0.00    -0.020 Br
ATOM     27  C   LIG    1       -5.117   4.173  -8.639  0.00  0.00    +0.100 A 
ATOM     28  F   LIG    1       -6.051   3.596  -7.852  0.00  0.00    -0.110 F 
ENDBRANCH  20  21
BRANCH  20  29
ATOM     29  C   LIG    1       -3.133   2.240  -6.975  0.00  0.00    +0.540 C 
ATOM     30  O   LIG    1       -2.107   1.781  -6.519  0.00  0.00    -0.490 OA
ATOM     31  N   LIG    1       -4.019   1.430  -7.589  0.00  0.00    -0.850 N 
ATOM     32  H   LIG    1       -3.836   0.480  -7.666  0.00  0.00    +0.410 HD
ATOM     33  H   LIG    1       -4.839   1.796  -7.954  0.00  0.00    +0.400 HD
ENDBRANCH  20  29
ENDBRANCH  19  20
ENDBRANCH  13  19
TORSDOF 8
