REMARK  Name = ZINCpe00000S3xDg.0
REMARK                            x       y       z     vdW  Elec       q    Type
REMARK                         _______ _______ _______ _____ _____    ______ ____
ROOT
ATOM      1  C   LIG    1       -0.013   1.086   0.008  0.00  0.00    +0.330 C 
ENDROOT
BRANCH   1   2
ATOM      2  C   LIG    1       -0.742   1.585  -1.213  0.00  0.00    -0.090 A 
ATOM      3  C   LIG    1       -1.750   0.825  -1.775  0.00  0.00    +0.040 A 
ATOM      4  C   LIG    1       -2.422   1.285  -2.892  0.00  0.00    +0.070 A 
ATOM      5  C   LIG    1       -2.078   2.501  -3.453  0.00  0.00    -0.090 A 
ATOM      6  C   LIG    1       -1.066   3.259  -2.894  0.00  0.00    +0.070 A 
ATOM      7  C   LIG    1       -0.398   2.801  -1.774  0.00  0.00    +0.040 A 
BRANCH   5   8
ATOM      8  C   LIG    1       -2.807   2.999  -4.674  0.00  0.00    +0.000 C 
ATOM      9  N   LIG    1       -3.546   4.261  -4.583  0.00  0.00    -0.060 NA
ATOM     10  N   LIG    1       -4.249   3.237  -4.582  0.00  0.00    -0.060 NA
BRANCH   8  11
ATOM     11  C   LIG    1       -2.217   2.593  -6.026  0.00  0.00    +0.500 C 
ATOM     12  F   LIG    1       -0.910   3.081  -6.131  0.00  0.00    -0.150 F 
ATOM     13  F   LIG    1       -2.998   3.129  -7.056  0.00  0.00    -0.170 F 
ATOM     14  F   LIG    1       -2.203   1.198  -6.129  0.00  0.00    -0.150 F 
ENDBRANCH   8  11
ENDBRANCH   5   8
ENDBRANCH   1   2
BRANCH   1  17
ATOM     15  O   LIG    1        0.774   0.548   2.529  0.00  0.00    -0.510 OA
ATOM     16  C   LIG    1       -0.222   1.232   2.431  0.00  0.00    +0.550 C 
ATOM     17  N   LIG    1       -0.698   1.558   1.213  0.00  0.00    -0.710 N 
ATOM     18  H   LIG    1       -1.495   2.106   1.135  0.00  0.00    +0.410 HD
BRANCH  16  19
ATOM     19  C   LIG    1       -0.927   1.718   3.671  0.00  0.00    -0.490 C 
ATOM     20  C   LIG    1       -0.518   3.166   3.962  0.00  0.00    +0.290 C 
ATOM     21  N   LIG    1       -1.243   3.663   5.133  0.00  0.00    -0.680 NA
ATOM     22  H   LIG    1       -2.237   3.534   5.024  0.00  0.00    +0.350 HD
ATOM     23  C   LIG    1       -0.768   3.063   6.382  0.00  0.00    +0.270 C 
ATOM     24  C   LIG    1       -1.216   1.600   6.460  0.00  0.00    -0.360 C 
ATOM     25  S   LIG    1       -0.453   0.683   5.088  0.00  0.00    +2.440 S 
ATOM     26  O   LIG    1        0.960   0.734   5.237  0.00  0.00    -0.900 OA
ATOM     27  O   LIG    1       -1.097  -0.577   4.968  0.00  0.00    -0.920 OA
ENDBRANCH  16  19
ENDBRANCH   1  17
TORSDOF 5
