REMARK  Name = ZINCvU00000007gc.0
REMARK                            x       y       z     vdW  Elec       q    Type
REMARK                         _______ _______ _______ _____ _____    ______ ____
ROOT
ATOM      1  C   LIG    1       -0.317   4.643  -0.136  0.00  0.00    -0.160 A 
ATOM      2  C   LIG    1        1.001   4.188  -0.135  0.00  0.00    +0.120 A 
ATOM      3  C   LIG    1        1.277   2.837  -0.028  0.00  0.00    -0.010 A 
ATOM      4  C   LIG    1        0.252   1.919   0.081  0.00  0.00    +0.150 A 
ATOM      5  C   LIG    1       -1.073   2.353   0.077  0.00  0.00    -0.230 A 
ATOM      6  C   LIG    1       -2.193   1.399   0.197  0.00  0.00    +0.430 A 
ATOM      7  O   LIG    1       -1.997   0.199   0.294  0.00  0.00    -0.460 OA
ATOM      8  C   LIG    1       -3.504   1.931   0.189  0.00  0.00    -0.280 A 
ATOM      9  C   LIG    1       -4.696   1.016   0.301  0.00  0.00    +0.130 C 
ATOM     10  C   LIG    1       -3.680   3.276   0.079  0.00  0.00    +0.200 A 
ATOM     11  O   LIG    1       -2.651   4.132  -0.024  0.00  0.00    -0.190 OA
ATOM     12  C   LIG    1       -1.369   3.720  -0.026  0.00  0.00    +0.200 A 
ENDROOT
BRANCH  10  13
ATOM     13  C   LIG    1       -5.055   3.814   0.072  0.00  0.00    -0.070 A 
ATOM     14  C   LIG    1       -6.015   3.274  -0.786  0.00  0.00    +0.050 A 
ATOM     15  C   LIG    1       -7.300   3.777  -0.782  0.00  0.00    +0.010 A 
ATOM     16  C   LIG    1       -7.634   4.823   0.060  0.00  0.00    +0.040 A 
ATOM     17  C   LIG    1       -6.686   5.367   0.908  0.00  0.00    +0.010 A 
ATOM     18  C   LIG    1       -5.399   4.869   0.920  0.00  0.00    +0.060 A 
ENDBRANCH  10  13
BRANCH   1  21
ATOM     19  N   LIG    1        0.409   6.968  -0.356  0.00  0.00    -0.670 N 
ATOM     20  H   LIG    1        1.323   6.651  -0.425  0.00  0.00    +0.410 HD
ATOM     21  C   LIG    1       -0.604   6.085  -0.251  0.00  0.00    +0.560 C 
ATOM     22  O   LIG    1       -1.755   6.478  -0.251  0.00  0.00    -0.490 OA
BRANCH  19  28
ATOM     23  C   LIG    1       -2.916  13.352  -1.611  0.00  0.00    +0.230 C 
ATOM     24  C   LIG    1       -2.030  12.197  -1.219  0.00  0.00    +0.250 A 
ATOM     25  N   LIG    1       -2.273  10.950  -1.490  0.00  0.00    -0.480 NA
ATOM     26  C   LIG    1       -1.264  10.188  -0.987  0.00  0.00    +0.040 A 
ATOM     27  C   LIG    1       -1.000   8.818  -0.984  0.00  0.00    +0.090 A 
ATOM     28  C   LIG    1        0.142   8.342  -0.366  0.00  0.00    +0.140 A 
ATOM     29  C   LIG    1        1.031   9.226   0.242  0.00  0.00    +0.040 A 
ATOM     30  C   LIG    1        0.780  10.581   0.239  0.00  0.00    +0.070 A 
ATOM     31  C   LIG    1       -0.364  11.072  -0.372  0.00  0.00    -0.010 A 
ATOM     32  O   LIG    1       -0.878  12.311  -0.540  0.00  0.00    -0.210 OA
ENDBRANCH  19  28
ENDBRANCH   1  21
TORSDOF 3
