REMARK  Name = ZINCqH0000032sDT.0
REMARK                            x       y       z     vdW  Elec       q    Type
REMARK                         _______ _______ _______ _____ _____    ______ ____
ROOT
ATOM      1  C   LIG    1        0.244   7.317  -2.280  0.00  0.00    +0.610 C 
ATOM      2  N   LIG    1        1.332   6.701  -1.778  0.00  0.00    -0.600 N 
ATOM      3  C   LIG    1        2.437   6.326  -2.664  0.00  0.00    +0.290 C 
ATOM      4  O   LIG    1       -0.705   7.559  -1.560  0.00  0.00    -0.530 OA
ENDROOT
BRANCH   1   7
ATOM      5  C   LIG    1       -0.421   8.545  -5.644  0.00  0.00    +0.030 A 
ATOM      6  C   LIG    1       -0.814   8.439  -4.353  0.00  0.00    -0.010 A 
ATOM      7  C   LIG    1        0.205   7.699  -3.707  0.00  0.00    -0.020 A 
ATOM      8  N   LIG    1        1.109   7.410  -4.621  0.00  0.00    -0.250 NA
ATOM      9  N   LIG    1        0.758   7.897  -5.757  0.00  0.00    -0.270 N 
BRANCH   9  10
ATOM     10  C   LIG    1        1.527   7.767  -6.998  0.00  0.00    +0.170 C 
ATOM     11  C   LIG    1        1.760   9.154  -7.600  0.00  0.00    +0.050 C 
ATOM     12  C   LIG    1        0.749   6.903  -7.992  0.00  0.00    +0.050 C 
ATOM     13  C   LIG    1        2.875   7.109  -6.696  0.00  0.00    +0.070 C 
ENDBRANCH   9  10
BRANCH   5  15
ATOM     14  C   LIG    1       -2.667   9.005  -6.590  0.00  0.00    +0.040 C 
ATOM     15  C   LIG    1       -1.165   9.248  -6.750  0.00  0.00    +0.060 C 
ATOM     16  C   LIG    1       -0.881  10.750  -6.680  0.00  0.00    +0.040 C 
ENDBRANCH   5  15
ENDBRANCH   1   7
BRANCH   2  17
ATOM     17  C   LIG    1        1.410   6.405  -0.345  0.00  0.00    +0.350 C 
BRANCH  17  18
ATOM     18  C   LIG    1        0.826   5.041  -0.081  0.00  0.00    -0.100 A 
ATOM     19  C   LIG    1       -0.521   4.911   0.200  0.00  0.00    +0.070 A 
ATOM     20  C   LIG    1       -1.063   3.661   0.438  0.00  0.00    +0.040 A 
ATOM     21  C   LIG    1       -0.254   2.537   0.405  0.00  0.00    +0.040 A 
ATOM     22  O   LIG    1       -0.532   1.215   0.602  0.00  0.00    -0.310 OA
ATOM     23  C   LIG    1        0.741   0.586   0.841  0.00  0.00    +0.430 C 
ATOM     24  O   LIG    1        1.675   1.429   0.142  0.00  0.00    -0.310 OA
ATOM     25  C   LIG    1        1.103   2.669   0.122  0.00  0.00    +0.030 A 
ATOM     26  C   LIG    1        1.638   3.923  -0.120  0.00  0.00    +0.040 A 
ENDBRANCH  17  18
ENDBRANCH   2  17
TORSDOF 5
