REMARK  Name = ZINCvU0000000JzK.0
REMARK                            x       y       z     vdW  Elec       q    Type
REMARK                         _______ _______ _______ _____ _____    ______ ____
ROOT
ATOM      1  C   LIG    1       -3.765  -6.373  -0.229  0.00  0.00    +0.190 A 
ATOM      2  N   LIG    1       -5.052  -6.619  -0.326  0.00  0.00    -0.250 NA
ATOM      3  N   LIG    1       -5.746  -5.406  -0.372  0.00  0.00    -0.350 N 
ATOM      4  C   LIG    1       -4.879  -4.386  -0.296  0.00  0.00    +0.280 A 
ATOM      5  C   LIG    1       -3.608  -4.916  -0.200  0.00  0.00    -0.290 A 
ENDROOT
BRANCH   1  11
ATOM      6  C   LIG    1       -2.758  -8.437   0.753  0.00  0.00    +0.160 A 
ATOM      7  C   LIG    1       -1.738  -9.372   0.811  0.00  0.00    -0.090 A 
ATOM      8  C   LIG    1       -0.646  -9.260  -0.029  0.00  0.00    +0.060 A 
ATOM      9  C   LIG    1       -0.565  -8.215  -0.932  0.00  0.00    -0.030 A 
ATOM     10  C   LIG    1       -1.576  -7.278  -1.005  0.00  0.00    +0.120 A 
ATOM     11  C   LIG    1       -2.679  -7.379  -0.159  0.00  0.00    -0.060 A 
BRANCH   6  13
ATOM     12  C   LIG    1       -3.844  -9.652   2.483  0.00  0.00    +0.250 C 
ATOM     13  O   LIG    1       -3.831  -8.547   1.578  0.00  0.00    -0.310 OA
ENDBRANCH   6  13
ENDBRANCH   1  11
BRANCH   5  14
ATOM     14  C   LIG    1       -2.345  -4.166  -0.095  0.00  0.00    +0.600 C 
ATOM     15  N   LIG    1       -2.366  -2.823   0.012  0.00  0.00    -0.670 N 
ATOM     16  H   LIG    1       -3.212  -2.355   0.088  0.00  0.00    +0.410 HD
ATOM     17  O   LIG    1       -1.284  -4.760  -0.106  0.00  0.00    -0.510 OA
BRANCH  15  18
ATOM     18  C   LIG    1       -1.166  -2.103   0.015  0.00  0.00    +0.170 A 
ATOM     19  C   LIG    1       -1.105  -0.851  -0.583  0.00  0.00    -0.020 A 
ATOM     20  C   LIG    1        0.079  -0.139  -0.581  0.00  0.00    +0.050 A 
ATOM     21  C   LIG    1        1.205  -0.667   0.020  0.00  0.00    -0.030 A 
ATOM     22  C   LIG    1        1.152  -1.922   0.616  0.00  0.00    -0.070 A 
ATOM     23  C   LIG    1       -0.036  -2.640   0.615  0.00  0.00    +0.050 A 
BRANCH  22  24
ATOM     24  S   LIG    1        2.591  -2.599   1.376  0.00  0.00    -0.110 S 
ATOM     25  C   LIG    1        3.837  -1.308   1.112  0.00  0.00    +0.120 C 
ENDBRANCH  22  24
ENDBRANCH  15  18
ENDBRANCH   5  14
BRANCH   3  26
ATOM     26  C   LIG    1       -7.201  -5.270  -0.486  0.00  0.00    +0.380 C 
BRANCH  26  27
ATOM     27  C   LIG    1       -7.682  -6.027  -1.697  0.00  0.00    -0.120 A 
ATOM     28  C   LIG    1       -7.764  -5.391  -2.921  0.00  0.00    +0.020 A 
ATOM     29  C   LIG    1       -8.202  -6.087  -4.033  0.00  0.00    +0.000 A 
ATOM     30  C   LIG    1       -8.567  -7.415  -3.918  0.00  0.00    +0.010 A 
ATOM     31  C   LIG    1       -8.490  -8.049  -2.692  0.00  0.00    +0.010 A 
ATOM     32  C   LIG    1       -8.048  -7.355  -1.581  0.00  0.00    +0.050 A 
ENDBRANCH  26  27
ENDBRANCH   3  26
TORSDOF 7
