REMARK  Name = ZINCpk000000nlDI.0
REMARK                            x       y       z     vdW  Elec       q    Type
REMARK                         _______ _______ _______ _____ _____    ______ ____
ROOT
ATOM      1  C   LIG    1       -2.143   1.058   1.278  0.00  0.00    +0.170 A 
ATOM      2  N   LIG    1       -3.233   1.779   1.298  0.00  0.00    -0.240 NA
ATOM      3  N   LIG    1       -4.271   1.019   1.298  0.00  0.00    -0.280 NA
ATOM      4  C   LIG    1       -3.893  -0.247   1.287  0.00  0.00    +0.190 A 
ATOM      5  C   LIG    1       -4.601  -1.468   1.287  0.00  0.00    +0.100 A 
ATOM      6  C   LIG    1       -3.913  -2.636   1.275  0.00  0.00    +0.070 A 
ATOM      7  C   LIG    1       -2.495  -2.615   1.261  0.00  0.00    -0.160 A 
ATOM      8  C   LIG    1       -1.830  -1.423   1.262  0.00  0.00    +0.330 A 
ATOM      9  N   LIG    1       -2.519  -0.252   1.274  0.00  0.00    -0.390 N 
ENDROOT
BRANCH   1  11
ATOM     10  C   LIG    1       -0.013   1.086   0.008  0.00  0.00    +0.040 C 
ATOM     11  C   LIG    1       -0.729   1.579   1.267  0.00  0.00    +0.020 C 
ATOM     12  C   LIG    1       -0.750   3.109   1.275  0.00  0.00    +0.080 C 
ATOM     13  C   LIG    1        0.011   1.072   2.506  0.00  0.00    +0.040 C 
ENDBRANCH   1  11
BRANCH   7  14
ATOM     14  C   LIG    1       -1.739  -3.882   1.247  0.00  0.00    +0.570 C 
ATOM     15  N   LIG    1       -2.395  -5.059   1.247  0.00  0.00    -0.720 N 
ATOM     16  H   LIG    1       -3.365  -5.074   1.256  0.00  0.00    +0.400 HD
ATOM     17  O   LIG    1       -0.523  -3.864   1.236  0.00  0.00    -0.530 OA
BRANCH  15  18
ATOM     18  C   LIG    1       -1.644  -6.317   1.233  0.00  0.00    +0.270 C 
BRANCH  18  19
ATOM     19  C   LIG    1       -2.621  -7.494   1.236  0.00  0.00    +0.170 C 
BRANCH  19  20
ATOM     20  N   LIG    1       -1.867  -8.755   1.222  0.00  0.00    -0.550 NA
ATOM     21  C   LIG    1       -2.746  -9.893   0.883  0.00  0.00    +0.200 C 
ATOM     22  C   LIG    1       -1.910 -10.980   0.253  0.00  0.00    +0.000 C 
ATOM     23  C   LIG    1       -1.381 -11.970   1.302  0.00  0.00    +0.200 C 
ATOM     24  O   LIG    1       -0.929 -11.314   2.502  0.00  0.00    -0.390 OA
ATOM     25  C   LIG    1       -0.187 -10.131   2.335  0.00  0.00    +0.220 C 
ATOM     26  C   LIG    1       -1.141  -8.921   2.413  0.00  0.00    +0.140 C 
ENDBRANCH  19  20
ENDBRANCH  18  19
ENDBRANCH  15  18
ENDBRANCH   7  14
TORSDOF 5
