REMARK  Name = ZINC650000002trb.0
REMARK                            x       y       z     vdW  Elec       q    Type
REMARK                         _______ _______ _______ _____ _____    ______ ____
ROOT
ATOM      1  C   LIG    1        0.675  -0.755   1.122  0.00  0.00    +0.150 C 
ATOM      2  C   LIG    1        2.194  -0.665   0.955  0.00  0.00    +0.130 C 
ENDROOT
BRANCH   1   3
ATOM      3  N   LIG    1        0.262  -2.164   1.085  0.00  0.00    -0.630 N 
ATOM      4  H   LIG    1       -0.740  -2.223   1.195  0.00  0.00    +0.440 HD
ATOM      5  H   LIG    1        0.712  -2.666   1.835  0.00  0.00    +0.440 HD
ATOM      6  H   LIG    1        0.527  -2.570   0.201  0.00  0.00    +0.440 HD
ENDBRANCH   1   3
BRANCH   1   8
ATOM      7  C   LIG    1       -0.018   1.503   0.010  0.00  0.00    +0.110 C 
ATOM      8  C   LIG    1        0.002  -0.004   0.002  0.00  0.00    +0.350 C 
ATOM      9  O   LIG    1       -0.521  -0.610  -0.902  0.00  0.00    -0.430 OA
ENDBRANCH   1   8
TORSDOF 2
