REMARK  Name = ZINCAx0000000c8P.0
REMARK                            x       y       z     vdW  Elec       q    Type
REMARK                         _______ _______ _______ _____ _____    ______ ____
ROOT
ATOM      1  C   LIG    1       -3.488  -0.857   3.666  0.00  0.00    +0.170 A 
ATOM      2  C   LIG    1       -4.841  -0.935   3.359  0.00  0.00    +0.020 A 
ATOM      3  C   LIG    1       -5.255  -0.977   2.042  0.00  0.00    +0.100 A 
ATOM      4  C   LIG    1       -4.318  -0.952   1.021  0.00  0.00    +0.020 A 
ATOM      5  O   LIG    1       -4.424  -0.992  -0.331  0.00  0.00    -0.230 OA
ATOM      6  C   LIG    1       -3.197  -0.940  -0.871  0.00  0.00    +0.650 A 
ATOM      7  N   LIG    1       -2.277  -0.865   0.111  0.00  0.00    -0.530 N 
ATOM      8  O   LIG    1       -2.953  -0.958  -2.062  0.00  0.00    -0.480 OA
ATOM      9  C   LIG    1       -2.959  -0.877   1.327  0.00  0.00    +0.100 A 
ATOM     10  C   LIG    1       -2.546  -0.828   2.648  0.00  0.00    +0.050 A 
ENDROOT
BRANCH   1  12
ATOM     11  C   LIG    1       -1.979  -0.104   5.345  0.00  0.00    +0.610 C 
ATOM     12  N   LIG    1       -3.076  -0.808   5.003  0.00  0.00    -0.660 N 
ATOM     13  H   LIG    1       -3.579  -1.282   5.684  0.00  0.00    +0.420 HD
ATOM     14  O   LIG    1       -1.403   0.567   4.510  0.00  0.00    -0.510 OA
BRANCH  11  18
ATOM     15  N   LIG    1       -0.274   0.211   8.515  0.00  0.00    -0.310 N 
ATOM     16  N   LIG    1       -1.334  -0.657   8.815  0.00  0.00    -0.050 NA
ATOM     17  N   LIG    1       -2.024  -0.840   7.744  0.00  0.00    -0.200 NA
ATOM     18  C   LIG    1       -1.477  -0.145   6.731  0.00  0.00    -0.110 A 
ATOM     19  C   LIG    1       -0.381   0.519   7.205  0.00  0.00    +0.140 A 
ATOM     20  C   LIG    1        0.531   1.424   6.417  0.00  0.00    +0.190 C 
BRANCH  15  24
ATOM     21  C   LIG    1        2.650   1.574  11.161  0.00  0.00    +0.150 A 
ATOM     22  C   LIG    1        2.077   2.449  10.249  0.00  0.00    +0.020 A 
ATOM     23  C   LIG    1        1.110   1.998   9.373  0.00  0.00    +0.070 A 
ATOM     24  C   LIG    1        0.710   0.669   9.405  0.00  0.00    +0.080 A 
ATOM     25  C   LIG    1        1.279  -0.205  10.321  0.00  0.00    +0.090 A 
ATOM     26  C   LIG    1        2.250   0.245  11.193  0.00  0.00    -0.050 A 
BRANCH  21  28
ATOM     27  C   LIG    1        4.149   1.062  12.934  0.00  0.00    +0.250 C 
ATOM     28  O   LIG    1        3.602   2.018  12.022  0.00  0.00    -0.310 OA
ENDBRANCH  21  28
ENDBRANCH  15  24
ENDBRANCH  11  18
ENDBRANCH   1  12
BRANCH   7  29
ATOM     29  C   LIG    1       -0.824  -0.791  -0.068  0.00  0.00    +0.360 C 
BRANCH  29  30
ATOM     30  C   LIG    1       -0.403   0.652  -0.165  0.00  0.00    +0.500 C 
ATOM     31  N   LIG    1        0.898   0.965  -0.332  0.00  0.00    -0.610 N 
ATOM     32  C   LIG    1        1.916  -0.091  -0.415  0.00  0.00    +0.260 C 
ATOM     33  C   LIG    1        2.729   0.116  -1.702  0.00  0.00    +0.010 C 
ATOM     34  C   LIG    1        3.295   1.538  -1.719  0.00  0.00    +0.020 C 
ATOM     35  C   LIG    1        2.144   2.546  -1.710  0.00  0.00    +0.010 C 
ATOM     36  C   LIG    1        1.324   2.367  -0.428  0.00  0.00    +0.270 C 
ATOM     37  O   LIG    1       -1.234   1.532  -0.097  0.00  0.00    -0.520 OA
ENDBRANCH  29  30
ENDBRANCH   7  29
TORSDOF 6
