REMARK  Name = ZINCqH0000036xSi.0
REMARK                            x       y       z     vdW  Elec       q    Type
REMARK                         _______ _______ _______ _____ _____    ______ ____
ROOT
ATOM      1  C   LIG    1        3.710  -0.666  -0.037  0.00  0.00    +0.560 C 
ATOM      2  N   LIG    1        4.859   0.030  -0.146  0.00  0.00    -0.610 N 
ATOM      3  C   LIG    1        4.852   1.501  -0.147  0.00  0.00    +0.290 C 
ATOM      4  C   LIG    1        5.866   1.988   0.900  0.00  0.00    +0.190 C 
ATOM      5  N   LIG    1        7.173   1.373   0.631  0.00  0.00    -0.500 N 
ATOM      6  C   LIG    1        7.114  -0.088   0.772  0.00  0.00    +0.190 C 
ATOM      7  C   LIG    1        6.151  -0.660  -0.274  0.00  0.00    +0.300 C 
ATOM      8  O   LIG    1        3.741  -1.878   0.062  0.00  0.00    -0.510 OA
ENDROOT
BRANCH   5   9
ATOM      9  C   LIG    1        8.156   1.913   1.452  0.00  0.00    +0.090 A 
ATOM     10  C   LIG    1        8.086   1.733   2.831  0.00  0.00    +0.010 A 
ATOM     11  C   LIG    1        9.056   2.265   3.647  0.00  0.00    +0.080 A 
ATOM     12  C   LIG    1       10.118   2.990   3.091  0.00  0.00    -0.150 A 
ATOM     13  C   LIG    1       10.186   3.171   1.702  0.00  0.00    +0.050 A 
ATOM     14  C   LIG    1        9.214   2.630   0.892  0.00  0.00    +0.120 A 
ATOM     15  F   LIG    1        9.282   2.798  -0.447  0.00  0.00    -0.120 F 
BRANCH  12  16
ATOM     16  C   LIG    1       11.155   3.560   3.959  0.00  0.00    +0.400 C 
ATOM     17  O   LIG    1       11.093   3.403   5.160  0.00  0.00    -0.450 OA
ATOM     18  C   LIG    1       12.295   4.340   3.358  0.00  0.00    +0.090 C 
ENDBRANCH  12  16
ENDBRANCH   5   9
BRANCH   1  24
ATOM     19  C   LIG    1        1.497  -0.167   1.003  0.00  0.00    -0.050 A 
ATOM     20  C   LIG    1        0.281   0.506   0.990  0.00  0.00    -0.010 A 
ATOM     21  C   LIG    1       -0.019   1.371  -0.042  0.00  0.00    +0.050 A 
ATOM     22  C   LIG    1        0.886   1.577  -1.071  0.00  0.00    +0.000 A 
ATOM     23  C   LIG    1        2.097   0.920  -1.076  0.00  0.00    +0.060 A 
ATOM     24  C   LIG    1        2.417   0.040  -0.039  0.00  0.00    -0.120 A 
BRANCH  19  26
ATOM     25  C   LIG    1        0.410  -1.183   3.373  0.00  0.00    +0.120 C 
ATOM     26  S   LIG    1        1.884  -1.272   2.320  0.00  0.00    -0.080 S 
ENDBRANCH  19  26
ENDBRANCH   1  24
TORSDOF 4
