REMARK  Name = ZINCvU00000003Lk.0
REMARK                            x       y       z     vdW  Elec       q    Type
REMARK                         _______ _______ _______ _____ _____    ______ ____
ROOT
ATOM      1  C   LIG    1       10.816  -1.176  -0.109  0.00  0.00    +0.380 C 
ENDROOT
BRANCH   1   2
ATOM      2  C   LIG    1       12.113  -0.409  -0.117  0.00  0.00    -0.020 A 
ATOM      3  N   LIG    1       12.770  -0.025   0.935  0.00  0.00    -0.230 NA
ATOM      4  N   LIG    1       13.846   0.611   0.758  0.00  0.00    -0.200 NA
ATOM      5  C   LIG    1       14.194   0.823  -0.485  0.00  0.00    -0.060 A 
ATOM      6  S   LIG    1       12.964   0.092  -1.516  0.00  0.00    +0.290 S 
BRANCH   5   7
ATOM      7  C   LIG    1       15.399   1.536  -0.940  0.00  0.00    +0.610 C 
ATOM      8  N   LIG    1       16.264   2.043  -0.039  0.00  0.00    -0.640 N 
ATOM      9  H   LIG    1       16.060   1.996   0.908  0.00  0.00    +0.430 HD
ATOM     10  O   LIG    1       15.614   1.669  -2.130  0.00  0.00    -0.490 OA
BRANCH   8  11
ATOM     11  C   LIG    1       17.456   2.635  -0.469  0.00  0.00    +0.140 A 
ATOM     12  C   LIG    1       18.610   2.509   0.293  0.00  0.00    +0.020 A 
ATOM     13  C   LIG    1       19.786   3.091  -0.136  0.00  0.00    +0.050 A 
ATOM     14  C   LIG    1       19.813   3.809  -1.319  0.00  0.00    -0.040 A 
ATOM     15  C   LIG    1       18.663   3.941  -2.078  0.00  0.00    +0.050 A 
ATOM     16 CL   LIG    1       21.292   4.545  -1.853  0.00  0.00    -0.060 Cl
ATOM     17  C   LIG    1       17.485   3.356  -1.656  0.00  0.00    +0.040 A 
ENDBRANCH   8  11
ENDBRANCH   5   7
ENDBRANCH   1   2
BRANCH   1  18
ATOM     18  O   LIG    1        9.702  -0.244  -0.101  0.00  0.00    -0.350 OA
BRANCH  18  19
ATOM     19  C   LIG    1        8.467  -0.770  -0.093  0.00  0.00    +0.470 C 
ATOM     20  O   LIG    1        8.322  -1.969  -0.092  0.00  0.00    -0.490 OA
BRANCH  19  21
ATOM     21  C   LIG    1        7.263   0.136  -0.086  0.00  0.00    +0.110 C 
BRANCH  21  22
ATOM     22  C   LIG    1        5.988  -0.711  -0.077  0.00  0.00    +0.070 C 
BRANCH  22  23
ATOM     23  C   LIG    1        4.766   0.209  -0.069  0.00  0.00    +0.200 C 
BRANCH  23  24
ATOM     24  O   LIG    1        3.575  -0.582  -0.062  0.00  0.00    -0.310 OA
BRANCH  24  28
ATOM     25  C   LIG    1       -1.304  -0.705  -0.031  0.00  0.00    +0.110 C 
ATOM     26  C   LIG    1       -0.006   0.060  -0.039  0.00  0.00    -0.030 A 
ATOM     27  C   LIG    1        1.196  -0.620  -0.046  0.00  0.00    +0.000 A 
ATOM     28  C   LIG    1        2.391   0.085  -0.054  0.00  0.00    +0.140 A 
ATOM     29  C   LIG    1        2.376   1.472  -0.054  0.00  0.00    -0.060 A 
ATOM     30  C   LIG    1        1.171   2.149  -0.047  0.00  0.00    +0.080 A 
ATOM     31  C   LIG    1       -0.019   1.444  -0.039  0.00  0.00    -0.080 A 
ATOM     32 CL   LIG    1       -1.532   2.296  -0.037  0.00  0.00    -0.070 Cl
ENDBRANCH  24  28
ENDBRANCH  23  24
ENDBRANCH  22  23
ENDBRANCH  21  22
ENDBRANCH  19  21
ENDBRANCH  18  19
ENDBRANCH   1  18
TORSDOF 10
