REMARK  Name = ZINCtV000002q6h7.0
REMARK                            x       y       z     vdW  Elec       q    Type
REMARK                         _______ _______ _______ _____ _____    ______ ____
ROOT
ATOM      1  C   LIG    1       -4.684   5.101  -1.430  0.00  0.00    +0.010 C 
ATOM      2  C   LIG    1       -4.415   6.459  -0.779  0.00  0.00    +0.080 C 
ENDROOT
BRANCH   1   3
ATOM      3  C   LIG    1       -5.331   5.307  -2.775  0.00  0.00    +0.540 C 
ATOM      4  N   LIG    1       -6.651   5.568  -2.854  0.00  0.00    -0.670 N 
ATOM      5  H   LIG    1       -7.199   5.544  -2.054  0.00  0.00    +0.410 HD
ATOM      6  O   LIG    1       -4.665   5.239  -3.786  0.00  0.00    -0.480 OA
BRANCH   4   7
ATOM      7  C   LIG    1       -7.231   5.875  -4.091  0.00  0.00    +0.200 A 
ATOM      8  C   LIG    1       -6.454   6.411  -5.109  0.00  0.00    +0.030 A 
ATOM      9  C   LIG    1       -7.029   6.712  -6.328  0.00  0.00    +0.080 A 
ATOM     10  C   LIG    1       -8.376   6.481  -6.535  0.00  0.00    +0.000 A 
ATOM     11  C   LIG    1       -9.153   5.947  -5.522  0.00  0.00    +0.090 A 
ATOM     12  C   LIG    1       -8.582   5.637  -4.303  0.00  0.00    -0.220 A 
BRANCH  12  13
ATOM     13  C   LIG    1       -9.428   5.050  -3.203  0.00  0.00    +0.510 C 
ATOM     14  F   LIG    1       -9.405   5.901  -2.092  0.00  0.00    -0.180 F 
ATOM     15  F   LIG    1       -8.918   3.798  -2.841  0.00  0.00    -0.170 F 
ATOM     16  F   LIG    1      -10.744   4.905  -3.652  0.00  0.00    -0.170 F 
ENDBRANCH  12  13
ENDBRANCH   4   7
ENDBRANCH   1   3
BRANCH   1  17
ATOM     17  S   LIG    1       -3.116   4.213  -1.643  0.00  0.00    -0.160 S 
BRANCH  17  18
ATOM     18  C   LIG    1       -2.573   3.927   0.064  0.00  0.00    +0.120 C 
BRANCH  18  23
ATOM     19  C   LIG    1        1.142   3.198   0.032  0.00  0.00    -0.160 A 
ATOM     20  C   LIG    1        1.144   1.800   0.041  0.00  0.00    -0.040 A 
ATOM     21  C   LIG    1       -0.051   1.112   0.058  0.00  0.00    +0.000 A 
ATOM     22  C   LIG    1       -1.250   1.802   0.060  0.00  0.00    -0.040 A 
ATOM     23  C   LIG    1       -1.261   3.186   0.056  0.00  0.00    -0.090 A 
ATOM     24  C   LIG    1       -2.552   1.042   0.072  0.00  0.00    +0.090 C 
ATOM     25  C   LIG    1        2.450   1.046   0.033  0.00  0.00    +0.100 C 
ATOM     26  C   LIG    1       -0.075   3.888   0.040  0.00  0.00    -0.020 A 
ATOM     27  C   LIG    1       -0.089   5.395   0.030  0.00  0.00    +0.100 C 
BRANCH  19  29
ATOM     28  C   LIG    1        2.994   4.409  -1.294  0.00  0.00    +0.080 C 
ATOM     29  C   LIG    1        2.413   3.940   0.015  0.00  0.00    +0.410 C 
ATOM     30  O   LIG    1        2.992   4.174   1.054  0.00  0.00    -0.450 OA
ENDBRANCH  19  29
ENDBRANCH  18  23
ENDBRANCH  17  18
ENDBRANCH   1  17
TORSDOF 7
