REMARK  Name = ZINCpe00000bfpRS.0
REMARK                            x       y       z     vdW  Elec       q    Type
REMARK                         _______ _______ _______ _____ _____    ______ ____
ROOT
ATOM      1  C   LIG    1       -0.579   1.269   2.412  0.00  0.00    +0.520 C 
ATOM      2  N   LIG    1       -0.098   0.277   3.188  0.00  0.00    -0.620 N 
ATOM      3  C   LIG    1       -0.549  -1.111   3.005  0.00  0.00    +0.280 C 
ATOM      4  C   LIG    1        0.692  -2.008   2.880  0.00  0.00    +0.170 C 
ATOM      5  N   LIG    1        1.567  -1.788   4.039  0.00  0.00    -0.530 NA
ATOM      6  C   LIG    1        2.067  -0.407   4.075  0.00  0.00    +0.170 C 
ATOM      7  C   LIG    1        0.886   0.555   4.245  0.00  0.00    +0.300 C 
ATOM      8  O   LIG    1       -0.200   2.409   2.581  0.00  0.00    -0.510 OA
ENDROOT
BRANCH   1  15
ATOM      9  C   LIG    1       -3.236   4.459   1.039  0.00  0.00    +0.100 C 
ATOM     10  C   LIG    1       -2.573   3.251   1.649  0.00  0.00    +0.530 C 
ATOM     11  N   LIG    1       -2.238   2.201   0.872  0.00  0.00    -0.610 N 
ATOM     12  C   LIG    1       -2.462   2.103  -0.578  0.00  0.00    +0.240 C 
ATOM     13  C   LIG    1       -1.897   0.742  -1.038  0.00  0.00    +0.040 C 
ATOM     14  C   LIG    1       -0.880   0.393   0.081  0.00  0.00    +0.050 C 
ATOM     15  C   LIG    1       -1.587   0.962   1.335  0.00  0.00    +0.220 C 
ATOM     16  O   LIG    1       -2.340   3.223   2.839  0.00  0.00    -0.520 OA
ENDBRANCH   1  15
BRANCH   5  17
ATOM     17  C   LIG    1        2.678  -2.750   4.051  0.00  0.00    +0.160 C 
BRANCH  17  18
ATOM     18  C   LIG    1        3.260  -2.840   5.463  0.00  0.00    +0.270 C 
BRANCH  18  19
ATOM     19  C   LIG    1        4.448  -3.767   5.458  0.00  0.00    -0.120 A 
ATOM     20  C   LIG    1        4.257  -5.136   5.492  0.00  0.00    +0.010 A 
ATOM     21  C   LIG    1        5.346  -5.986   5.483  0.00  0.00    +0.000 A 
ATOM     22  C   LIG    1        6.628  -5.468   5.450  0.00  0.00    +0.000 A 
ATOM     23  C   LIG    1        6.819  -4.099   5.420  0.00  0.00    +0.000 A 
ATOM     24  C   LIG    1        5.729  -3.249   5.424  0.00  0.00    +0.010 A 
ENDBRANCH  18  19
BRANCH  18  25
ATOM     25  O   LIG    1        2.266  -3.344   6.356  0.00  0.00    -0.540 OA
ATOM     26  H   LIG    1        1.940  -4.225   6.126  0.00  0.00    +0.370 HD
ENDBRANCH  18  25
ENDBRANCH  17  18
ENDBRANCH   5  17
TORSDOF 5
