REMARK  Name = ZINCtV000002EKbD.0
REMARK                            x       y       z     vdW  Elec       q    Type
REMARK                         _______ _______ _______ _____ _____    ______ ____
ROOT
ATOM      1  C   LIG    1        3.706  -0.864  -0.037  0.00  0.00    -0.130 A 
ATOM      2  C   LIG    1        4.788  -0.008  -0.048  0.00  0.00    +0.100 A 
ATOM      3  C   LIG    1        6.082  -0.525  -0.057  0.00  0.00    -0.060 A 
ATOM      4  C   LIG    1        6.277  -1.905  -0.066  0.00  0.00    +0.080 A 
ATOM      5  C   LIG    1        5.189  -2.753  -0.060  0.00  0.00    +0.000 A 
ATOM      6  C   LIG    1        3.904  -2.236  -0.045  0.00  0.00    +0.120 A 
ATOM      7  F   LIG    1        2.842  -3.070  -0.039  0.00  0.00    -0.130 F 
ENDROOT
BRANCH   3   8
ATOM      8  C   LIG    1        7.249   0.391  -0.063  0.00  0.00    -0.050 A 
ATOM      9  C   LIG    1        7.314   1.434  -0.986  0.00  0.00    +0.060 A 
ATOM     10  C   LIG    1        8.399   2.288  -0.985  0.00  0.00    +0.060 A 
ATOM     11  C   LIG    1        9.427   2.105  -0.078  0.00  0.00    +0.030 A 
ATOM     12  C   LIG    1        9.373   1.068   0.839  0.00  0.00    +0.070 A 
ATOM     13  F   LIG    1       10.380   0.895   1.722  0.00  0.00    -0.130 F 
ATOM     14  C   LIG    1        8.287   0.209   0.850  0.00  0.00    +0.080 A 
ATOM     15  F   LIG    1        8.234  -0.803   1.744  0.00  0.00    -0.120 F 
ENDBRANCH   3   8
BRANCH   1  16
ATOM     16  C   LIG    1        2.306  -0.307  -0.021  0.00  0.00    +0.280 C 
BRANCH  16  17
ATOM     17  O   LIG    1        2.361   1.121  -0.014  0.00  0.00    -0.290 OA
BRANCH  17  23
ATOM     18  C   LIG    1       -0.435   5.971   1.292  0.00  0.00    +0.050 C 
ATOM     19  C   LIG    1        0.165   5.350   0.029  0.00  0.00    +0.060 C 
ATOM     20  C   LIG    1        1.687   5.546   0.016  0.00  0.00    +0.050 C 
ATOM     21  C   LIG    1        2.269   4.153   0.003  0.00  0.00    +0.410 C 
ATOM     22  C   LIG    1        1.158   3.193   0.008  0.00  0.00    -0.210 A 
ATOM     23  C   LIG    1        1.178   1.783   0.000  0.00  0.00    +0.210 A 
ATOM     24  C   LIG    1       -0.013   1.076   0.008  0.00  0.00    -0.070 A 
ATOM     25  C   LIG    1       -1.218   1.748   0.017  0.00  0.00    +0.120 A 
ATOM     26  C   LIG    1       -1.245   3.134   0.031  0.00  0.00    -0.070 A 
ATOM     27 CL   LIG    1       -2.769   3.966   0.050  0.00  0.00    -0.060 Cl
ATOM     28  O   LIG    1        3.450   3.875  -0.009  0.00  0.00    -0.430 OA
ATOM     29  C   LIG    1       -0.069   3.858   0.023  0.00  0.00    +0.010 A 
ENDBRANCH  17  23
ENDBRANCH  16  17
ENDBRANCH   1  16
TORSDOF 4
