REMARK  Name = ZINCrD000000Bw5Y.0
REMARK                            x       y       z     vdW  Elec       q    Type
REMARK                         _______ _______ _______ _____ _____    ______ ____
ROOT
ATOM      1  C   LIG    1       -0.140  -5.446  -0.029  0.00  0.00    -0.090 A 
ATOM      2  C   LIG    1        0.571  -4.226  -0.028  0.00  0.00    +0.110 A 
ATOM      3  N   LIG    1        0.190  -2.936  -0.017  0.00  0.00    -0.460 NA
ATOM      4  C   LIG    1        1.249  -2.161  -0.022  0.00  0.00    +0.330 A 
ATOM      5  N   LIG    1        2.382  -2.927  -0.042  0.00  0.00    -0.590 N 
ATOM      6  H   LIG    1        3.296  -2.604  -0.054  0.00  0.00    +0.430 HD
ATOM      7  C   LIG    1        1.977  -4.248  -0.041  0.00  0.00    +0.040 A 
ATOM      8  C   LIG    1        2.651  -5.459  -0.055  0.00  0.00    +0.050 A 
ATOM      9  C   LIG    1        1.946  -6.648  -0.057  0.00  0.00    +0.030 A 
ATOM     10  C   LIG    1        0.564  -6.648  -0.045  0.00  0.00    +0.050 A 
ENDROOT
BRANCH   4  11
ATOM     11  C   LIG    1        1.222  -0.682  -0.013  0.00  0.00    -0.040 A 
ATOM     12  C   LIG    1        0.002  -0.004   0.002  0.00  0.00    +0.080 A 
ATOM     13  C   LIG    1       -0.017   1.375   0.010  0.00  0.00    +0.010 A 
ATOM     14  C   LIG    1        1.170   2.086   0.002  0.00  0.00    +0.030 A 
ATOM     15  C   LIG    1        2.383   1.420  -0.013  0.00  0.00    +0.010 A 
ATOM     16  C   LIG    1        2.415   0.041  -0.021  0.00  0.00    +0.020 A 
ENDBRANCH   4  11
BRANCH   1  18
ATOM     17  O   LIG    1       -2.223  -4.396  -0.004  0.00  0.00    -0.500 OA
ATOM     18  C   LIG    1       -1.613  -5.448  -0.015  0.00  0.00    +0.560 C 
ATOM     19  N   LIG    1       -2.285  -6.616  -0.016  0.00  0.00    -0.730 N 
ATOM     20  H   LIG    1       -1.799  -7.455  -0.026  0.00  0.00    +0.400 HD
BRANCH  19  21
ATOM     21  C   LIG    1       -3.750  -6.618  -0.003  0.00  0.00    +0.370 C 
BRANCH  21  22
ATOM     22  C   LIG    1       -4.251  -8.040  -0.007  0.00  0.00    +0.080 A 
ATOM     23  C   LIG    1       -4.327  -8.862   1.067  0.00  0.00    -0.240 A 
ATOM     24  C   LIG    1       -4.054  -8.925   2.553  0.00  0.00    +0.110 C 
ATOM     25  C   LIG    1       -4.038 -10.429   2.899  0.00  0.00    +0.040 C 
ATOM     26  C   LIG    1       -4.944 -11.037   1.808  0.00  0.00    +0.130 C 
ATOM     27  C   LIG    1       -4.844 -10.088   0.634  0.00  0.00    +0.050 A 
ATOM     28  N   LIG    1       -5.069 -10.003  -0.654  0.00  0.00    -0.260 NA
ATOM     29  N   LIG    1       -4.709  -8.718  -1.079  0.00  0.00    -0.460 N 
ATOM     30  H   LIG    1       -4.774  -8.377  -1.985  0.00  0.00    +0.440 HD
ENDBRANCH  21  22
ENDBRANCH  19  21
ENDBRANCH   1  18
TORSDOF 4
