REMARK  Name = ZINCrD000000Bw5Y.1
REMARK                            x       y       z     vdW  Elec       q    Type
REMARK                         _______ _______ _______ _____ _____    ______ ____
ROOT
ATOM      1  C   LIG    1        0.002  -0.004   0.002  0.00  0.00    -0.080 A 
ATOM      2  C   LIG    1        1.241  -0.681  -0.013  0.00  0.00    +0.110 A 
ATOM      3  N   LIG    1        1.582  -1.982  -0.024  0.00  0.00    -0.450 NA
ATOM      4  C   LIG    1        2.890  -2.098  -0.037  0.00  0.00    +0.330 A 
ATOM      5  N   LIG    1        3.463  -0.857  -0.035  0.00  0.00    -0.590 N 
ATOM      6  H   LIG    1        4.413  -0.660  -0.044  0.00  0.00    +0.420 HD
ATOM      7  C   LIG    1        2.433   0.065  -0.021  0.00  0.00    +0.040 A 
ATOM      8  C   LIG    1        2.384   1.451  -0.012  0.00  0.00    +0.050 A 
ATOM      9  C   LIG    1        1.166   2.103   0.002  0.00  0.00    +0.030 A 
ATOM     10  C   LIG    1       -0.017   1.389   0.010  0.00  0.00    +0.040 A 
ENDROOT
BRANCH   4  11
ATOM     11  C   LIG    1        3.630  -3.378  -0.050  0.00  0.00    -0.040 A 
ATOM     12  C   LIG    1        5.026  -3.379  -0.068  0.00  0.00    +0.020 A 
ATOM     13  C   LIG    1        5.711  -4.577  -0.073  0.00  0.00    +0.010 A 
ATOM     14  C   LIG    1        5.018  -5.774  -0.074  0.00  0.00    +0.030 A 
ATOM     15  C   LIG    1        3.634  -5.779  -0.062  0.00  0.00    +0.010 A 
ATOM     16  C   LIG    1        2.937  -4.589  -0.050  0.00  0.00    +0.080 A 
ENDBRANCH   4  11
BRANCH   1  18
ATOM     17  O   LIG    1       -1.238  -1.980   0.003  0.00  0.00    -0.510 OA
ATOM     18  C   LIG    1       -1.260  -0.764   0.009  0.00  0.00    +0.560 C 
ATOM     19  N   LIG    1       -2.440  -0.112   0.024  0.00  0.00    -0.720 N 
ATOM     20  H   LIG    1       -2.458   0.858   0.029  0.00  0.00    +0.400 HD
BRANCH  19  21
ATOM     21  C   LIG    1       -3.695  -0.868   0.031  0.00  0.00    +0.380 C 
BRANCH  21  22
ATOM     22  C   LIG    1       -4.858   0.090   0.047  0.00  0.00    +0.080 A 
ATOM     23  N   LIG    1       -5.443   0.567   1.114  0.00  0.00    -0.270 NA
ATOM     24  N   LIG    1       -6.474   1.421   0.703  0.00  0.00    -0.450 N 
ATOM     25  H   LIG    1       -7.072   1.914   1.286  0.00  0.00    +0.440 HD
ATOM     26  C   LIG    1       -6.491   1.433  -0.649  0.00  0.00    +0.060 A 
ATOM     27  C   LIG    1       -7.226   2.035  -1.826  0.00  0.00    +0.120 C 
ATOM     28  C   LIG    1       -6.287   1.823  -3.034  0.00  0.00    +0.050 C 
ATOM     29  C   LIG    1       -5.471   0.589  -2.593  0.00  0.00    +0.100 C 
ATOM     30  C   LIG    1       -5.502   0.618  -1.080  0.00  0.00    -0.240 A 
ENDBRANCH  21  22
ENDBRANCH  19  21
ENDBRANCH   1  18
TORSDOF 4
