REMARK  Name = ZINCrD00000kfEoO.0
REMARK                            x       y       z     vdW  Elec       q    Type
REMARK                         _______ _______ _______ _____ _____    ______ ____
ROOT
ATOM      1  C   LIG    1        2.918  -5.064  -1.434  0.00  0.00    +0.580 C 
ATOM      2  N   LIG    1        2.611  -3.963  -0.721  0.00  0.00    -0.610 N 
ATOM      3  C   LIG    1        1.725  -2.843  -1.118  0.00  0.00    +0.270 C 
ATOM      4  C   LIG    1        0.957  -2.475   0.173  0.00  0.00    +0.040 C 
ATOM      5  C   LIG    1        1.857  -2.970   1.312  0.00  0.00    -0.090 C 
ATOM      6  C   LIG    1        1.171  -3.833   2.370  0.00  0.00    +0.030 C 
ATOM      7  C   LIG    1        2.065  -3.123   3.403  0.00  0.00    +0.010 C 
ATOM      8  C   LIG    1        2.157  -1.951   2.410  0.00  0.00    +0.040 C 
ATOM      9  C   LIG    1        3.084  -3.599   0.638  0.00  0.00    +0.300 C 
ATOM     10  O   LIG    1        3.731  -5.860  -1.004  0.00  0.00    -0.520 OA
ENDROOT
BRANCH   1  18
ATOM     11  O   LIG    1        0.201  -8.388  -5.731  0.00  0.00    -0.520 OA
ATOM     12  C   LIG    1        0.741  -8.158  -4.663  0.00  0.00    +0.530 A 
ATOM     13  N   LIG    1        0.928  -9.144  -3.761  0.00  0.00    -0.540 N 
ATOM     14  H   LIG    1        0.627 -10.041  -3.973  0.00  0.00    +0.440 HD
ATOM     15  N   LIG    1        1.543  -8.906  -2.532  0.00  0.00    -0.230 NA
ATOM     16  C   LIG    1        1.972  -7.730  -2.178  0.00  0.00    +0.330 A 
ATOM     17  C   LIG    1        1.818  -6.594  -3.082  0.00  0.00    -0.020 A 
ATOM     18  C   LIG    1        2.269  -5.304  -2.737  0.00  0.00    -0.110 A 
ATOM     19  C   LIG    1        2.091  -4.257  -3.638  0.00  0.00    +0.080 A 
ATOM     20  C   LIG    1        1.487  -4.479  -4.865  0.00  0.00    +0.040 A 
ATOM     21  C   LIG    1        1.040  -5.735  -5.218  0.00  0.00    +0.120 A 
ATOM     22  C   LIG    1        1.200  -6.802  -4.334  0.00  0.00    -0.130 A 
ENDBRANCH   1  18
BRANCH   4  23
ATOM     23  C   LIG    1        0.767  -0.983   0.264  0.00  0.00    -0.070 A 
ATOM     24  C   LIG    1       -0.507  -0.452   0.345  0.00  0.00    +0.010 A 
ATOM     25  C   LIG    1       -0.681   0.917   0.429  0.00  0.00    +0.000 A 
ATOM     26  C   LIG    1        0.418   1.755   0.432  0.00  0.00    +0.000 A 
ATOM     27  C   LIG    1        1.692   1.224   0.351  0.00  0.00    +0.000 A 
ATOM     28  C   LIG    1        1.866  -0.145   0.268  0.00  0.00    +0.010 A 
ENDBRANCH   4  23
TORSDOF 2
