REMARK  Name = ZINCrH00000tj1ms.1
REMARK                            x       y       z     vdW  Elec       q    Type
REMARK                         _______ _______ _______ _____ _____    ______ ____
ROOT
ATOM      1  C   LIG    1        6.805   0.446  -0.059  0.00  0.00    +0.550 C 
ATOM      2  N   LIG    1        7.271  -0.819  -0.070  0.00  0.00    -0.560 N 
ATOM      3  C   LIG    1        6.386  -1.906  -0.067  0.00  0.00    +0.100 A 
ATOM      4  C   LIG    1        5.644  -2.216  -1.194  0.00  0.00    +0.040 A 
ATOM      5  C   LIG    1        4.793  -3.306  -1.179  0.00  0.00    +0.030 A 
ATOM      6  C   LIG    1        4.683  -4.089  -0.045  0.00  0.00    +0.050 A 
ATOM      7  C   LIG    1        5.415  -3.781   1.088  0.00  0.00    +0.020 A 
ATOM      8  C   LIG    1        6.259  -2.684   1.085  0.00  0.00    +0.140 A 
ATOM      9  N   LIG    1        6.967  -2.320   2.236  0.00  0.00    -0.680 N 
ATOM     10  H   LIG    1        6.506  -2.265   3.088  0.00  0.00    +0.410 HD
ATOM     11  C   LIG    1        8.288  -2.044   2.170  0.00  0.00    +0.530 C 
ATOM     12  C   LIG    1        9.041  -2.224   0.878  0.00  0.00    +0.070 C 
ATOM     13  O   LIG    1        8.871  -1.650   3.157  0.00  0.00    -0.520 OA
ATOM     14  C   LIG    1        8.711  -1.082  -0.091  0.00  0.00    +0.260 C 
ATOM     15  C   LIG    1        9.136  -1.473  -1.508  0.00  0.00    +0.050 C 
ATOM     16  O   LIG    1        7.580   1.378  -0.062  0.00  0.00    -0.510 OA
ENDROOT
BRANCH   1  17
ATOM     17  C   LIG    1        5.320   0.701  -0.044  0.00  0.00    +0.120 C 
BRANCH  17  18
ATOM     18  S   LIG    1        5.014   2.485  -0.033  0.00  0.00    +0.070 S 
BRANCH  18  25
ATOM     19  C   LIG    1       -2.564   3.859   0.047  0.00  0.00    +0.100 C 
ATOM     20  C   LIG    1       -1.241   3.137   0.031  0.00  0.00    -0.060 A 
ATOM     21  C   LIG    1       -1.213   1.750   0.017  0.00  0.00    +0.010 A 
ATOM     22  C   LIG    1       -0.013   1.076   0.008  0.00  0.00    +0.070 A 
ATOM     23  C   LIG    1        1.186   1.793   0.000  0.00  0.00    +0.050 A 
ATOM     24  N   LIG    1        2.494   1.425  -0.014  0.00  0.00    -0.490 NA
ATOM     25  C   LIG    1        3.252   2.494  -0.015  0.00  0.00    +0.250 A 
ATOM     26  N   LIG    1        2.473   3.615  -0.003  0.00  0.00    -0.580 N 
ATOM     27  H   LIG    1        2.785   4.534  -0.001  0.00  0.00    +0.430 HD
ATOM     28  C   LIG    1        1.152   3.197   0.008  0.00  0.00    +0.060 A 
ATOM     29  C   LIG    1       -0.066   3.860   0.023  0.00  0.00    +0.010 A 
ENDBRANCH  18  25
ENDBRANCH  17  18
ENDBRANCH   1  17
TORSDOF 3
