REMARK  Name = ZINCrH00000tj1ms.0
REMARK                            x       y       z     vdW  Elec       q    Type
REMARK                         _______ _______ _______ _____ _____    ______ ____
ROOT
ATOM      1  C   LIG    1       -2.869   0.370   1.056  0.00  0.00    +0.550 C 
ATOM      2  N   LIG    1       -2.433   1.053  -0.021  0.00  0.00    -0.560 N 
ATOM      3  C   LIG    1       -1.220   1.754   0.017  0.00  0.00    +0.100 A 
ATOM      4  C   LIG    1       -0.013   1.076   0.008  0.00  0.00    +0.040 A 
ATOM      5  C   LIG    1        1.175   1.785   0.000  0.00  0.00    +0.030 A 
ATOM      6  C   LIG    1        1.160   3.168   0.009  0.00  0.00    +0.050 A 
ATOM      7  C   LIG    1       -0.042   3.852   0.037  0.00  0.00    +0.020 A 
ATOM      8  C   LIG    1       -1.234   3.149   0.051  0.00  0.00    +0.140 A 
ATOM      9  N   LIG    1       -2.462   3.819   0.110  0.00  0.00    -0.680 N 
ATOM     10  H   LIG    1       -2.598   4.518   0.768  0.00  0.00    +0.410 HD
ATOM     11  C   LIG    1       -3.459   3.498  -0.743  0.00  0.00    +0.530 C 
ATOM     12  C   LIG    1       -3.230   2.490  -1.838  0.00  0.00    +0.070 C 
ATOM     13  O   LIG    1       -4.545   4.026  -0.627  0.00  0.00    -0.520 OA
ATOM     14  C   LIG    1       -3.218   1.076  -1.257  0.00  0.00    +0.260 C 
ATOM     15  C   LIG    1       -2.596   0.114  -2.271  0.00  0.00    +0.050 C 
ATOM     16  O   LIG    1       -3.921  -0.233   1.007  0.00  0.00    -0.510 OA
ENDROOT
BRANCH   1  17
ATOM     17  C   LIG    1       -2.051   0.356   2.322  0.00  0.00    +0.120 C 
BRANCH  17  18
ATOM     18  S   LIG    1       -2.897  -0.638   3.576  0.00  0.00    +0.070 S 
BRANCH  18  26
ATOM     19  C   LIG    1        2.885   0.895   8.377  0.00  0.00    +0.100 C 
ATOM     20  C   LIG    1        1.589   0.336   7.847  0.00  0.00    -0.090 A 
ATOM     21  C   LIG    1        0.796  -0.455   8.664  0.00  0.00    +0.030 A 
ATOM     22  C   LIG    1       -0.393  -0.974   8.193  0.00  0.00    +0.020 A 
ATOM     23  C   LIG    1       -0.798  -0.703   6.895  0.00  0.00    +0.050 A 
ATOM     24  N   LIG    1       -1.905  -1.056   6.141  0.00  0.00    -0.580 N 
ATOM     25  H   LIG    1       -2.649  -1.606   6.434  0.00  0.00    +0.430 HD
ATOM     26  C   LIG    1       -1.754  -0.487   4.908  0.00  0.00    +0.250 A 
ATOM     27  N   LIG    1       -0.634   0.193   4.867  0.00  0.00    -0.490 NA
ATOM     28  C   LIG    1        0.002   0.098   6.063  0.00  0.00    +0.060 A 
ATOM     29  C   LIG    1        1.202   0.616   6.555  0.00  0.00    +0.060 A 
ENDBRANCH  18  26
ENDBRANCH  17  18
ENDBRANCH   1  17
TORSDOF 3
