REMARK  Name = ZINCqH000003925q.0
REMARK                            x       y       z     vdW  Elec       q    Type
REMARK                         _______ _______ _______ _____ _____    ______ ____
ROOT
ATOM      1  N   LIG    1       -0.011   0.966   0.007  0.00  0.00    -0.650 N 
ATOM      2  H   LIG    1        0.002  -0.004   0.002  0.00  0.00    +0.420 HD
ATOM      3  C   LIG    1       -1.187   1.624   0.017  0.00  0.00    +0.510 C 
ATOM      4  O   LIG    1       -1.204   2.837   0.023  0.00  0.00    -0.470 OA
ENDROOT
BRANCH   1  10
ATOM      5  C   LIG    1        2.402   0.993  -0.010  0.00  0.00    +0.050 A 
ATOM      6  C   LIG    1        3.585   1.718  -0.022  0.00  0.00    +0.010 A 
ATOM      7  C   LIG    1        3.511   3.104  -0.014  0.00  0.00    -0.020 A 
ATOM      8  C   LIG    1        2.274   3.716   0.001  0.00  0.00    +0.260 A 
ATOM      9  N   LIG    1        1.164   3.002   0.007  0.00  0.00    -0.440 NA
ATOM     10  C   LIG    1        1.188   1.680  -0.000  0.00  0.00    +0.340 A 
BRANCH   5  11
ATOM     11  O   LIG    1        2.426  -0.366  -0.012  0.00  0.00    -0.310 OA
BRANCH  11  12
ATOM     12  C   LIG    1        3.711  -0.993  -0.022  0.00  0.00    +0.200 C 
BRANCH  12  13
ATOM     13  C   LIG    1        3.537  -2.513  -0.023  0.00  0.00    +0.060 C 
BRANCH  13  14
ATOM     14  C   LIG    1        4.912  -3.183  -0.034  0.00  0.00    +0.200 C 
BRANCH  14  16
ATOM     15  N   LIG    1        4.615  -5.774  -0.036  0.00  0.00    -0.420 NA
ATOM     16  C   LIG    1        4.745  -4.646  -0.035  0.00  0.00    +0.200 C 
ENDBRANCH  14  16
ENDBRANCH  13  14
ENDBRANCH  12  13
ENDBRANCH  11  12
ENDBRANCH   5  11
ENDBRANCH   1  10
BRANCH   3  17
ATOM     17  C   LIG    1       -2.482   0.853   0.018  0.00  0.00    +0.040 C 
BRANCH  17  18
ATOM     18  C   LIG    1       -3.658   1.831   0.029  0.00  0.00    +0.330 C 
BRANCH  18  19
ATOM     19  N   LIG    1       -4.917   1.081   0.031  0.00  0.00    -0.490 N 
ATOM     20  C   LIG    1       -5.651   0.774  -1.082  0.00  0.00    +0.220 A 
ATOM     21  C   LIG    1       -6.744   0.078  -0.732  0.00  0.00    -0.050 A 
ATOM     22  C   LIG    1       -6.713  -0.064   0.725  0.00  0.00    -0.110 A 
ATOM     23  C   LIG    1       -7.555  -0.669   1.659  0.00  0.00    +0.050 A 
ATOM     24  C   LIG    1       -7.238  -0.626   2.988  0.00  0.00    -0.030 A 
ATOM     25  C   LIG    1       -6.083   0.015   3.416  0.00  0.00    +0.020 A 
ATOM     26  C   LIG    1       -5.237   0.618   2.511  0.00  0.00    -0.010 A 
ATOM     27  C   LIG    1       -5.541   0.586   1.154  0.00  0.00    +0.100 A 
ENDBRANCH  18  19
ENDBRANCH  17  18
ENDBRANCH   3  17
TORSDOF 9
