REMARK  Name = ZINCbw0000000Hmp.0
REMARK                            x       y       z     vdW  Elec       q    Type
REMARK                         _______ _______ _______ _____ _____    ______ ____
ROOT
ATOM      1 CL   LIG    1       -2.765   3.971   0.051  0.00  0.00    -0.070 Cl
ATOM      2  C   LIG    1       -1.246   3.130   0.031  0.00  0.00    +0.010 A 
ATOM      3  C   LIG    1       -1.220   1.747   0.017  0.00  0.00    -0.030 A 
ATOM      4  C   LIG    1       -0.013   1.076   0.008  0.00  0.00    +0.070 A 
ATOM      5  C   LIG    1        1.179   1.781   0.000  0.00  0.00    -0.150 A 
ATOM      6  C   LIG    1        2.477   1.018  -0.011  0.00  0.00    +0.080 C 
ATOM      7  C   LIG    1        3.614   1.903  -0.519  0.00  0.00    +0.010 C 
ATOM      8  C   LIG    1        3.610   3.218   0.272  0.00  0.00    +0.260 C 
ATOM      9  N   LIG    1        2.342   3.906  -0.007  0.00  0.00    -0.750 N 
ATOM     10  H   LIG    1        2.329   4.857  -0.198  0.00  0.00    +0.400 HD
ATOM     11  C   LIG    1        1.154   3.167   0.006  0.00  0.00    +0.230 A 
ATOM     12  C   LIG    1       -0.061   3.841   0.023  0.00  0.00    -0.050 A 
ENDROOT
TORSDOF 0
