REMARK  Name = ZINCpe000000UQqu.0
REMARK                            x       y       z     vdW  Elec       q    Type
REMARK                         _______ _______ _______ _____ _____    ______ ____
ROOT
ATOM      1  C   LIG    1       -2.551   1.063  -4.788  0.00  0.00    +0.580 C 
ATOM      2  N   LIG    1       -1.680   0.692  -3.829  0.00  0.00    -0.600 N 
ATOM      3  C   LIG    1       -0.281   1.147  -3.862  0.00  0.00    +0.300 C 
ATOM      4  C   LIG    1        0.631  -0.075  -3.715  0.00  0.00    +0.170 C 
ATOM      5  N   LIG    1        0.251  -0.825  -2.510  0.00  0.00    -0.530 NA
ATOM      6  C   LIG    1       -1.118  -1.348  -2.618  0.00  0.00    +0.170 C 
ATOM      7  C   LIG    1       -2.102  -0.178  -2.721  0.00  0.00    +0.290 C 
ATOM      8  O   LIG    1       -2.209   1.852  -5.648  0.00  0.00    -0.520 OA
ENDROOT
BRANCH   1  12
ATOM      9  C   LIG    1       -6.873   0.530  -2.655  0.00  0.00    +0.340 C 
ATOM     10  N   LIG    1       -5.938   0.079  -3.689  0.00  0.00    -0.460 N 
ATOM     11  N   LIG    1       -4.637   0.592  -3.721  0.00  0.00    -0.200 NA
ATOM     12  C   LIG    1       -3.912   0.515  -4.794  0.00  0.00    +0.080 C 
ATOM     13  C   LIG    1       -4.450  -0.122  -6.047  0.00  0.00    +0.120 C 
ATOM     14  C   LIG    1       -5.376  -1.285  -5.671  0.00  0.00    +0.090 C 
ATOM     15  C   LIG    1       -6.337  -0.826  -4.604  0.00  0.00    +0.490 C 
ATOM     16  O   LIG    1       -7.464  -1.271  -4.569  0.00  0.00    -0.510 OA
ENDBRANCH   1  12
BRANCH   5  17
ATOM     17  C   LIG    1        1.208  -1.905  -2.238  0.00  0.00    +0.230 C 
BRANCH  17  18
ATOM     18  C   LIG    1        0.931  -2.490  -0.877  0.00  0.00    -0.050 A 
ATOM     19  C   LIG    1        1.563  -1.969   0.238  0.00  0.00    +0.040 A 
ATOM     20  C   LIG    1        1.311  -2.496   1.488  0.00  0.00    +0.060 A 
ATOM     21  C   LIG    1        0.423  -3.565   1.624  0.00  0.00    -0.030 A 
ATOM     22  C   LIG    1       -0.207  -4.090   0.494  0.00  0.00    +0.060 A 
ATOM     23  C   LIG    1        0.051  -3.550  -0.749  0.00  0.00    +0.010 A 
BRANCH  21  24
ATOM     24  C   LIG    1        0.160  -4.120   2.918  0.00  0.00    +0.250 C 
ATOM     25  N   LIG    1       -0.049  -4.561   3.944  0.00  0.00    -0.410 NA
ENDBRANCH  21  24
ENDBRANCH  17  18
ENDBRANCH   5  17
TORSDOF 4
