REMARK  Name = ZINCqH00000074j5.0
REMARK                            x       y       z     vdW  Elec       q    Type
REMARK                         _______ _______ _______ _____ _____    ______ ____
ROOT
ATOM      1  C   LIG    1       -0.753   3.403   5.120  0.00  0.00    +0.240 A 
ATOM      2  N   LIG    1       -0.175   2.904   4.073  0.00  0.00    -0.510 NA
ATOM      3  C   LIG    1       -0.625   1.742   3.638  0.00  0.00    +0.090 A 
ATOM      4  C   LIG    1       -1.624   1.230   4.359  0.00  0.00    -0.110 A 
ATOM      5  S   LIG    1       -1.983   2.351   5.670  0.00  0.00    +0.250 S 
ENDROOT
BRANCH   1   7
ATOM      6  C   LIG    1       -1.082   5.034   6.808  0.00  0.00    +0.570 C 
ATOM      7  N   LIG    1       -0.417   4.613   5.714  0.00  0.00    -0.620 N 
ATOM      8  H   LIG    1        0.295   5.155   5.341  0.00  0.00    +0.420 HD
ATOM      9  O   LIG    1       -1.976   4.355   7.276  0.00  0.00    -0.500 OA
BRANCH   6  13
ATOM     10  C   LIG    1       -0.057   8.734   8.624  0.00  0.00    +0.190 A 
ATOM     11  C   LIG    1       -1.078   7.959   9.159  0.00  0.00    -0.060 A 
ATOM     12  C   LIG    1       -1.414   6.758   8.573  0.00  0.00    +0.160 A 
ATOM     13  C   LIG    1       -0.726   6.320   7.439  0.00  0.00    -0.170 A 
ATOM     14  C   LIG    1        0.305   7.100   6.906  0.00  0.00    +0.130 A 
ATOM     15  C   LIG    1        0.631   8.302   7.495  0.00  0.00    -0.140 A 
ATOM     16 BR   LIG    1        2.020   9.361   6.772  0.00  0.00    -0.020 Br
BRANCH  10  18
ATOM     17  C   LIG    1       -0.475  10.299  10.362  0.00  0.00    +0.250 C 
ATOM     18  O   LIG    1        0.271   9.916   9.205  0.00  0.00    -0.300 OA
ENDBRANCH  10  18
ENDBRANCH   6  13
ENDBRANCH   1   7
BRANCH   3  19
ATOM     19  C   LIG    1       -0.053   1.047   2.430  0.00  0.00    +0.280 C 
BRANCH  19  20
ATOM     20  N   LIG    1       -0.703   1.561   1.216  0.00  0.00    -0.530 NA
ATOM     21  C   LIG    1       -0.013   1.086   0.008  0.00  0.00    +0.150 C 
ATOM     22  C   LIG    1       -0.755   1.594  -1.231  0.00  0.00    +0.200 C 
ATOM     23  O   LIG    1       -0.837   3.021  -1.180  0.00  0.00    -0.380 OA
ATOM     24  C   LIG    1       -1.504   3.518  -0.017  0.00  0.00    +0.160 C 
ATOM     25  C   LIG    1       -1.506   5.048  -0.043  0.00  0.00    +0.060 C 
ATOM     26  C   LIG    1       -2.166   1.002  -1.260  0.00  0.00    +0.010 C 
ATOM     27  C   LIG    1       -0.769   3.029   1.235  0.00  0.00    +0.160 C 
ENDBRANCH  19  20
ENDBRANCH   3  19
TORSDOF 5
