REMARK  Name = ZINCpk00000KfLDP.0
REMARK                            x       y       z     vdW  Elec       q    Type
REMARK                         _______ _______ _______ _____ _____    ______ ____
ROOT
ATOM      1  N   LIG    1       -5.571  -3.563   0.478  0.00  0.00    -0.740 N 
ATOM      2  H   LIG    1       -6.007  -2.709   0.332  0.00  0.00    +0.400 HD
ATOM      3  C   LIG    1       -4.239  -3.678   0.308  0.00  0.00    +0.710 C 
ATOM      4  N   LIG    1       -3.512  -2.606  -0.064  0.00  0.00    -0.730 N 
ATOM      5  H   LIG    1       -3.948  -1.752  -0.210  0.00  0.00    +0.400 HD
ATOM      6  O   LIG    1       -3.693  -4.749   0.491  0.00  0.00    -0.590 OA
ENDROOT
BRANCH   1  10
ATOM      7  N   LIG    1       -8.826  -6.226   0.736  0.00  0.00    -0.520 NA
ATOM      8  C   LIG    1       -8.488  -5.480   1.954  0.00  0.00    +0.180 C 
ATOM      9  C   LIG    1       -7.637  -4.261   1.588  0.00  0.00    +0.040 C 
ATOM     10  C   LIG    1       -6.362  -4.729   0.882  0.00  0.00    +0.250 C 
ATOM     11  C   LIG    1       -6.741  -5.545  -0.356  0.00  0.00    +0.020 C 
ATOM     12  C   LIG    1       -7.618  -6.726   0.066  0.00  0.00    +0.180 C 
BRANCH   7  13
ATOM     13  C   LIG    1       -9.756  -7.324   1.032  0.00  0.00    +0.220 C 
BRANCH  13  17
ATOM     14  C   LIG    1      -11.643  -9.503  -1.487  0.00  0.00    +0.290 C 
ATOM     15  N   LIG    1      -11.143  -8.935  -0.233  0.00  0.00    -0.740 N 
ATOM     16  H   LIG    1      -11.440  -9.298   0.617  0.00  0.00    +0.400 HD
ATOM     17  C   LIG    1      -10.271  -7.909  -0.258  0.00  0.00    +0.510 C 
ATOM     18  O   LIG    1       -9.899  -7.455  -1.320  0.00  0.00    -0.520 OA
ENDBRANCH  13  17
ENDBRANCH   7  13
ENDBRANCH   1  10
BRANCH   4  19
ATOM     19  C   LIG    1       -2.064  -2.731  -0.248  0.00  0.00    +0.250 C 
ATOM     20  C   LIG    1       -1.474  -1.689  -1.213  0.00  0.00    +0.040 C 
ATOM     21  C   LIG    1       -1.293  -0.775   0.011  0.00  0.00    +0.030 C 
ATOM     22  C   LIG    1       -1.241  -2.055   0.861  0.00  0.00    +0.010 C 
BRANCH  21  23
ATOM     23  C   LIG    1        0.002  -0.004   0.002  0.00  0.00    -0.070 A 
ATOM     24  C   LIG    1       -0.017   1.378   0.010  0.00  0.00    +0.000 A 
ATOM     25  C   LIG    1        1.171   2.086   0.002  0.00  0.00    +0.000 A 
ATOM     26  C   LIG    1        2.377   1.411  -0.015  0.00  0.00    +0.000 A 
ATOM     27  C   LIG    1        2.396   0.029  -0.021  0.00  0.00    +0.000 A 
ATOM     28  C   LIG    1        1.208  -0.679  -0.013  0.00  0.00    +0.000 A 
ENDBRANCH  21  23
ENDBRANCH   4  19
TORSDOF 5
