REMARK  Name = ZINCrH000004tKix.0
REMARK                            x       y       z     vdW  Elec       q    Type
REMARK                         _______ _______ _______ _____ _____    ______ ____
ROOT
ATOM      1  C   LIG    1       -5.368  -5.721   0.637  0.00  0.00    +0.190 A 
ATOM      2  N   LIG    1       -4.245  -5.221   1.093  0.00  0.00    -0.460 NA
ATOM      3  C   LIG    1       -3.533  -4.880   0.004  0.00  0.00    +0.160 A 
ATOM      4  N   LIG    1       -4.242  -5.192  -1.038  0.00  0.00    -0.360 NA
ATOM      5  O   LIG    1       -5.300  -5.677  -0.697  0.00  0.00    +0.090 OA
ENDROOT
BRANCH   1   6
ATOM      6  C   LIG    1       -6.514  -6.251   1.460  0.00  0.00    +0.220 C 
BRANCH   6   7
ATOM      7  C   LIG    1       -7.499  -5.117   1.752  0.00  0.00    +0.070 C 
BRANCH   7   9
ATOM      8  O   LIG    1       -8.671  -6.816   2.897  0.00  0.00    -0.530 OA
ATOM      9  C   LIG    1       -8.645  -5.647   2.576  0.00  0.00    +0.520 C 
ATOM     10  N   LIG    1       -9.640  -4.821   2.955  0.00  0.00    -0.720 N 
ATOM     11  H   LIG    1       -9.619  -3.886   2.698  0.00  0.00    +0.400 HD
BRANCH  10  12
ATOM     12  C   LIG    1      -10.755  -5.336   3.755  0.00  0.00    +0.230 C 
ATOM     13  C   LIG    1      -11.850  -5.905   2.830  0.00  0.00    +0.010 C 
ATOM     14  C   LIG    1      -13.177  -5.518   3.531  0.00  0.00    +0.010 C 
ATOM     15  C   LIG    1      -12.870  -4.105   4.087  0.00  0.00    +0.010 C 
ATOM     16  C   LIG    1      -11.403  -4.192   4.554  0.00  0.00    +0.020 C 
ENDBRANCH  10  12
ENDBRANCH   7   9
ENDBRANCH   6   7
ENDBRANCH   1   6
BRANCH   3  17
ATOM     17  C   LIG    1       -2.161  -4.256  -0.004  0.00  0.00    +0.350 C 
BRANCH  17  18
ATOM     18  O   LIG    1       -2.284  -2.833   0.006  0.00  0.00    -0.310 OA
BRANCH  18  19
ATOM     19  C   LIG    1       -1.132  -2.113  -0.001  0.00  0.00    +0.130 A 
ATOM     20  C   LIG    1       -1.189  -0.749   0.008  0.00  0.00    -0.010 A 
ATOM     21  C   LIG    1        0.002  -0.004   0.002  0.00  0.00    -0.010 A 
ATOM     22  C   LIG    1       -0.017   1.401   0.010  0.00  0.00    +0.010 A 
ATOM     23  C   LIG    1        1.157   2.091   0.002  0.00  0.00    +0.020 A 
ATOM     24  C   LIG    1        2.380   1.424  -0.013  0.00  0.00    -0.010 A 
ATOM     25  C   LIG    1        2.437   0.064  -0.021  0.00  0.00    +0.040 A 
ATOM     26  C   LIG    1        1.247  -0.682  -0.013  0.00  0.00    -0.080 A 
ATOM     27  C   LIG    1        1.268  -2.088  -0.022  0.00  0.00    +0.070 A 
ATOM     28  C   LIG    1        0.098  -2.780  -0.015  0.00  0.00    -0.060 A 
ENDBRANCH  18  19
ENDBRANCH  17  18
ENDBRANCH   3  17
TORSDOF 7
