REMARK  Name = ZINCpe000000Xu69.0
REMARK                            x       y       z     vdW  Elec       q    Type
REMARK                         _______ _______ _______ _____ _____    ______ ____
ROOT
ATOM      1  N   LIG    1       -0.211   0.668  -0.145  0.00  0.00    -1.120 NA
ATOM      2  H   LIG    1       -0.205  -0.296  -0.254  0.00  0.00    +0.420 HD
ENDROOT
BRANCH   1   3
ATOM      3  S   LIG    1       -1.648   1.491  -0.142  0.00  0.00    +2.720 S 
ATOM      4  O   LIG    1       -1.614   2.353   0.987  0.00  0.00    -0.950 OA
ATOM      5  O   LIG    1       -2.666   0.522  -0.350  0.00  0.00    -0.960 OA
BRANCH   3   6
ATOM      6  C   LIG    1       -1.655   2.533  -1.563  0.00  0.00    -0.750 A 
ATOM      7  C   LIG    1       -2.120   2.202  -2.792  0.00  0.00    +0.330 A 
ATOM      8  N   LIG    1       -1.956   3.261  -3.622  0.00  0.00    -0.400 N 
ATOM      9  C   LIG    1       -1.377   4.290  -2.914  0.00  0.00    -0.060 A 
ATOM     10  C   LIG    1       -2.334   3.304  -5.037  0.00  0.00    +0.340 C 
ATOM     11  C   LIG    1       -1.189   3.850  -1.621  0.00  0.00    +0.110 A 
BRANCH   9  12
ATOM     12  C   LIG    1       -1.031   5.616  -3.438  0.00  0.00    +0.600 C 
ATOM     13  O   LIG    1       -1.342   5.921  -4.574  0.00  0.00    -0.550 OA
ATOM     14  N   LIG    1       -0.367   6.495  -2.661  0.00  0.00    -0.840 N 
ATOM     15  H   LIG    1       -0.203   7.396  -2.980  0.00  0.00    +0.410 HD
ATOM     16  H   LIG    1       -0.054   6.226  -1.783  0.00  0.00    +0.410 HD
ENDBRANCH   9  12
ENDBRANCH   3   6
ENDBRANCH   1   3
BRANCH   1  17
ATOM     17  C   LIG    1        1.050   1.396   0.009  0.00  0.00    +0.290 C 
BRANCH  17  18
ATOM     18  C   LIG    1        2.172   0.409   0.339  0.00  0.00    +0.190 C 
BRANCH  18  28
ATOM     19  C   LIG    1        5.832   0.821  -0.050  0.00  0.00    +0.050 C 
ATOM     20  C   LIG    1        4.581   0.205   0.580  0.00  0.00    +0.170 C 
ATOM     21  C   LIG    1        4.763   0.033   2.105  0.00  0.00    +0.060 C 
ATOM     22  C   LIG    1        4.183   1.318   2.661  0.00  0.00    -0.140 A 
ATOM     23  C   LIG    1        4.301   1.914   3.899  0.00  0.00    +0.030 A 
ATOM     24  C   LIG    1        3.670   3.120   4.150  0.00  0.00    +0.000 A 
ATOM     25  C   LIG    1        2.921   3.725   3.158  0.00  0.00    +0.030 A 
ATOM     26  C   LIG    1        2.799   3.132   1.919  0.00  0.00    +0.020 A 
ATOM     27  C   LIG    1        3.429   1.916   1.659  0.00  0.00    +0.080 A 
ATOM     28  N   LIG    1        3.437   1.139   0.494  0.00  0.00    -0.490 N 
ENDBRANCH  18  28
ENDBRANCH  17  18
ENDBRANCH   1  17
TORSDOF 6
