REMARK  Name = ZINCtV00000L6jUa.0
REMARK                            x       y       z     vdW  Elec       q    Type
REMARK                         _______ _______ _______ _____ _____    ______ ____
ROOT
ATOM      1  C   LIG    1        1.949  -4.158  -0.034  0.00  0.00    +0.030 A 
ATOM      2  C   LIG    1        2.352  -2.863  -0.046  0.00  0.00    +0.260 A 
ATOM      3  N   LIG    1        1.237  -2.082  -0.024  0.00  0.00    -0.310 N 
ATOM      4  N   LIG    1        0.117  -2.922  -0.008  0.00  0.00    -0.260 NA
ATOM      5  C   LIG    1        0.537  -4.170  -0.013  0.00  0.00    +0.110 A 
ENDROOT
BRANCH   1   8
ATOM      6  O   LIG    1        4.609  -4.015  -0.072  0.00  0.00    -0.560 OA
ATOM      7  C   LIG    1        4.127  -5.131  -0.065  0.00  0.00    +0.710 C 
ATOM      8  N   LIG    1        2.788  -5.286  -0.045  0.00  0.00    -0.650 N 
ATOM      9  H   LIG    1        2.403  -6.177  -0.039  0.00  0.00    +0.410 HD
ATOM     10  N   LIG    1        4.931  -6.213  -0.076  0.00  0.00    -0.680 N 
ATOM     11  H   LIG    1        4.549  -7.101  -0.002  0.00  0.00    +0.410 HD
BRANCH  10  12
ATOM     12  C   LIG    1        6.317  -6.053  -0.194  0.00  0.00    +0.180 A 
ATOM     13  C   LIG    1        6.944  -4.965   0.397  0.00  0.00    +0.060 A 
ATOM     14  C   LIG    1        8.312  -4.810   0.280  0.00  0.00    +0.070 A 
ATOM     15  C   LIG    1        9.057  -5.737  -0.426  0.00  0.00    -0.050 A 
ATOM     16  C   LIG    1        8.434  -6.824  -1.017  0.00  0.00    -0.010 A 
ATOM     17 CL   LIG    1        9.371  -7.986  -1.903  0.00  0.00    -0.040 Cl
ATOM     18 CL   LIG    1       10.775  -5.539  -0.572  0.00  0.00    -0.050 Cl
ATOM     19  C   LIG    1        7.066  -6.987  -0.897  0.00  0.00    +0.020 A 
ENDBRANCH  10  12
ENDBRANCH   1   8
BRANCH   3  20
ATOM     20  C   LIG    1        1.214  -0.681  -0.025  0.00  0.00    +0.160 A 
ATOM     21  C   LIG    1        0.001  -0.005  -0.007  0.00  0.00    +0.020 A 
ATOM     22  C   LIG    1       -0.018   1.376  -0.007  0.00  0.00    +0.030 A 
ATOM     23  C   LIG    1        1.169   2.086  -0.025  0.00  0.00    +0.000 A 
ATOM     24  C   LIG    1        2.378   1.415  -0.042  0.00  0.00    +0.040 A 
ATOM     25  C   LIG    1        2.404   0.034  -0.043  0.00  0.00    -0.010 A 
ENDBRANCH   3  20
BRANCH   5  26
ATOM     26  C   LIG    1       -0.323  -5.379   0.001  0.00  0.00    -0.020 A 
ATOM     27  C   LIG    1        0.063  -6.520  -0.700  0.00  0.00    +0.010 A 
ATOM     28  C   LIG    1       -0.738  -7.644  -0.679  0.00  0.00    +0.020 A 
ATOM     29  C   LIG    1       -1.928  -7.634   0.026  0.00  0.00    +0.020 A 
ATOM     30  C   LIG    1       -2.319  -6.503   0.719  0.00  0.00    +0.020 A 
ATOM     31  C   LIG    1       -1.523  -5.375   0.710  0.00  0.00    +0.040 A 
ENDBRANCH   5  26
TORSDOF 4
