REMARK  Name = ZINCrH00000No4KF.0
REMARK                            x       y       z     vdW  Elec       q    Type
REMARK                         _______ _______ _______ _____ _____    ______ ____
ROOT
ATOM      1  C   LIG    1       -1.298   2.115   0.020  0.00  0.00    +0.150 C 
ATOM      2  C   LIG    1       -2.404   1.518   0.517  0.00  0.00    -0.250 C 
ATOM      3  C   LIG    1       -3.779   2.164   0.462  0.00  0.00    +0.320 C 
ATOM      4  O   LIG    1       -4.692   1.222  -0.112  0.00  0.00    -0.310 OA
ATOM      5  C   LIG    1       -4.707  -0.055   0.338  0.00  0.00    +0.140 A 
ATOM      6  C   LIG    1       -5.854  -0.821   0.162  0.00  0.00    +0.020 A 
ATOM      7  C   LIG    1       -5.885  -2.135   0.584  0.00  0.00    +0.000 A 
ATOM      8  C   LIG    1       -4.775  -2.711   1.189  0.00  0.00    +0.090 A 
ATOM      9  C   LIG    1       -3.626  -1.962   1.378  0.00  0.00    +0.090 A 
ATOM     10  C   LIG    1       -3.592  -0.635   0.957  0.00  0.00    -0.200 A 
ATOM     11  C   LIG    1       -2.372   0.186   1.162  0.00  0.00    +0.440 C 
ATOM     12  O   LIG    1       -1.418  -0.206   1.811  0.00  0.00    -0.420 OA
ENDROOT
BRANCH   1  16
ATOM     13  C   LIG    1        2.356  -0.033  -0.200  0.00  0.00    +0.120 A 
ATOM     14  C   LIG    1        1.149  -0.699  -0.365  0.00  0.00    -0.030 A 
ATOM     15  C   LIG    1       -0.040  -0.007  -0.292  0.00  0.00    +0.050 A 
ATOM     16  C   LIG    1       -0.032   1.372  -0.052  0.00  0.00    -0.080 A 
ATOM     17  C   LIG    1        1.186   2.043   0.114  0.00  0.00    +0.000 A 
ATOM     18  C   LIG    1        2.372   1.341   0.039  0.00  0.00    +0.100 A 
BRANCH  13  19
ATOM     19  O   LIG    1        3.524  -0.722  -0.273  0.00  0.00    -0.300 OA
BRANCH  19  20
ATOM     20  C   LIG    1        3.435  -2.126  -0.520  0.00  0.00    +0.350 C 
BRANCH  20  22
ATOM     21  C   LIG    1        5.868  -3.163  -0.603  0.00  0.00    +0.080 C 
ATOM     22  C   LIG    1        4.789  -2.703  -0.566  0.00  0.00    -0.200 C 
ENDBRANCH  20  22
ENDBRANCH  19  20
ENDBRANCH  13  19
BRANCH  18  23
ATOM     23  O   LIG    1        3.557   1.989   0.199  0.00  0.00    -0.300 OA
BRANCH  23  24
ATOM     24  C   LIG    1        3.499   3.396   0.441  0.00  0.00    +0.170 C 
ATOM     25  C   LIG    1        4.919   3.946   0.593  0.00  0.00    +0.070 C 
ENDBRANCH  23  24
ENDBRANCH  18  23
ENDBRANCH   1  16
BRANCH   8  26
ATOM     26  O   LIG    1       -4.817  -4.008   1.595  0.00  0.00    -0.310 OA
ATOM     27  C   LIG    1       -6.035  -4.720   1.368  0.00  0.00    +0.250 C 
ENDBRANCH   8  26
TORSDOF 7
