REMARK  Name = ZINCpk00000ka8dI.0
REMARK                            x       y       z     vdW  Elec       q    Type
REMARK                         _______ _______ _______ _____ _____    ______ ____
ROOT
ATOM      1  C   LIG    1        9.300   1.078   0.209  0.00  0.00    +0.550 C 
ATOM      2  N   LIG    1        7.957   1.153   0.122  0.00  0.00    -0.640 N 
ATOM      3  C   LIG    1        6.869   1.384   1.092  0.00  0.00    +0.330 C 
ATOM      4  C   LIG    1        6.049   1.893  -0.107  0.00  0.00    -0.010 C 
ATOM      5  C   LIG    1        6.181   3.399  -0.348  0.00  0.00    +0.100 C 
ATOM      6  C   LIG    1        6.984   1.041  -0.985  0.00  0.00    +0.330 C 
ATOM      7  O   LIG    1        9.853   1.308   1.264  0.00  0.00    -0.530 OA
ENDROOT
BRANCH   4   8
ATOM      8  C   LIG    1        4.618   1.422  -0.109  0.00  0.00    +0.170 A 
ATOM      9  N   LIG    1        4.217   0.182  -0.105  0.00  0.00    -0.270 NA
ATOM     10  N   LIG    1        2.931   0.146  -0.107  0.00  0.00    -0.280 NA
ATOM     11  C   LIG    1        2.463   1.373  -0.112  0.00  0.00    +0.270 A 
ATOM     12  O   LIG    1        3.524   2.204  -0.118  0.00  0.00    -0.200 OA
BRANCH  11  13
ATOM     13  C   LIG    1        1.039   1.768  -0.117  0.00  0.00    +0.040 A 
ATOM     14  C   LIG    1       -0.028   0.923  -0.116  0.00  0.00    +0.240 A 
ATOM     15  N   LIG    1       -1.147   1.705  -0.128  0.00  0.00    -0.460 N 
ATOM     16  C   LIG    1       -0.739   2.999  -0.127  0.00  0.00    +0.420 A 
ATOM     17  C   LIG    1       -2.534   1.233  -0.137  0.00  0.00    +0.350 C 
ATOM     18  N   LIG    1        0.564   3.031  -0.123  0.00  0.00    -0.470 NA
ENDBRANCH  11  13
ENDBRANCH   4   8
BRANCH   1  19
ATOM     19  C   LIG    1       10.114   0.709  -1.004  0.00  0.00    -0.010 C 
ATOM     20  C   LIG    1       10.609   1.982  -1.693  0.00  0.00    +0.070 C 
BRANCH  19  21
ATOM     21  C   LIG    1       11.315  -0.137  -0.574  0.00  0.00    +0.010 C 
ATOM     22  C   LIG    1       12.142  -0.512  -1.805  0.00  0.00    +0.040 C 
BRANCH  21  23
ATOM     23  C   LIG    1       10.820  -1.410   0.116  0.00  0.00    +0.160 C 
BRANCH  23  25
ATOM     24  C   LIG    1       11.585  -3.357   1.287  0.00  0.00    +0.200 C 
ATOM     25  O   LIG    1       11.938  -2.144   0.620  0.00  0.00    -0.390 OA
ENDBRANCH  23  25
ENDBRANCH  21  23
ENDBRANCH  19  21
ENDBRANCH   1  19
TORSDOF 6
