REMARK  Name = ZINCrH00000ajZP3.0
REMARK                            x       y       z     vdW  Elec       q    Type
REMARK                         _______ _______ _______ _____ _____    ______ ____
ROOT
ATOM      1  N   LIG    1        0.036  -2.097   0.613  0.00  0.00    -0.350 N 
ATOM      2  N   LIG    1        0.022  -0.767   1.064  0.00  0.00    -0.290 NA
ATOM      3  C   LIG    1        0.002  -0.004   0.002  0.00  0.00    +0.230 A 
ATOM      4  N   LIG    1       -0.004  -0.769  -1.087  0.00  0.00    -0.510 NA
ATOM      5  C   LIG    1        0.023  -2.039  -0.738  0.00  0.00    +0.350 A 
ENDROOT
BRANCH   5   6
ATOM      6  C   LIG    1        0.030  -3.196  -1.661  0.00  0.00    +0.140 A 
ATOM      7  N   LIG    1        0.050  -4.465  -1.312  0.00  0.00    -0.250 NA
ATOM      8  N   LIG    1        0.048  -5.242  -2.483  0.00  0.00    -0.380 N 
ATOM      9  C   LIG    1        0.058  -6.646  -2.926  0.00  0.00    +0.330 C 
ATOM     10  C   LIG    1        0.482  -6.610  -4.409  0.00  0.00    +0.210 C 
ATOM     11  C   LIG    1        0.033  -5.192  -4.831  0.00  0.00    +0.130 C 
ATOM     12  F   LIG    1       -0.192  -7.589  -5.147  0.00  0.00    -0.180 F 
ATOM     13  C   LIG    1        0.030  -4.403  -3.538  0.00  0.00    +0.070 A 
ATOM     14  C   LIG    1        0.010  -3.135  -3.068  0.00  0.00    -0.030 A 
ENDBRANCH   5   6
BRANCH   1  16
ATOM     15  C   LIG    1        1.319  -3.302   2.312  0.00  0.00    +0.050 C 
ATOM     16  C   LIG    1        0.061  -3.306   1.441  0.00  0.00    +0.310 C 
BRANCH  16  17
ATOM     17  C   LIG    1       -1.179  -3.335   2.336  0.00  0.00    -0.050 C 
ATOM     18  C   LIG    1       -2.023  -4.612   2.332  0.00  0.00    +0.040 C 
ATOM     19  C   LIG    1       -2.547  -3.345   1.650  0.00  0.00    +0.020 C 
ENDBRANCH  16  17
ENDBRANCH   1  16
BRANCH   3  20
ATOM     20  C   LIG    1       -0.018   1.503   0.010  0.00  0.00    +0.230 C 
BRANCH  20  21
ATOM     21  C   LIG    1        1.395   2.024  -0.000  0.00  0.00    -0.050 A 
ATOM     22  C   LIG    1        2.032   2.270  -1.202  0.00  0.00    +0.020 A 
ATOM     23  C   LIG    1        3.329   2.749  -1.214  0.00  0.00    +0.040 A 
ATOM     24  C   LIG    1        3.990   2.983  -0.023  0.00  0.00    -0.020 A 
ATOM     25  C   LIG    1        3.353   2.737   1.182  0.00  0.00    +0.100 A 
ATOM     26  F   LIG    1        3.999   2.965   2.346  0.00  0.00    -0.140 F 
ATOM     27  C   LIG    1        2.053   2.263   1.192  0.00  0.00    +0.000 A 
ENDBRANCH  20  21
ENDBRANCH   3  20
TORSDOF 5
