REMARK  Name = ZINCvU00000004r5.0
REMARK                            x       y       z     vdW  Elec       q    Type
REMARK                         _______ _______ _______ _____ _____    ______ ____
ROOT
ATOM      1  N   LIG    1       -3.260   3.091   9.017  0.00  0.00    -0.550 N 
ATOM      2  C   LIG    1       -3.349   1.781   9.253  0.00  0.00    +0.540 C 
ATOM      3  C   LIG    1       -2.668   0.739   8.413  0.00  0.00    +0.080 C 
ATOM      4  C   LIG    1       -1.560   1.386   7.578  0.00  0.00    +0.070 C 
ATOM      5  C   LIG    1       -2.137   2.626   6.885  0.00  0.00    +0.000 C 
ATOM      6  O   LIG    1       -4.015   1.412  10.197  0.00  0.00    -0.530 OA
ATOM      7  C   LIG    1       -2.460   3.676   7.948  0.00  0.00    +0.340 C 
ENDROOT
BRANCH   1  12
ATOM      8  C   LIG    1       -6.184   6.604  12.378  0.00  0.00    +0.100 C 
ATOM      9  C   LIG    1       -5.407   5.671  11.485  0.00  0.00    -0.090 A 
ATOM     10  C   LIG    1       -6.076   4.738  10.713  0.00  0.00    +0.010 A 
ATOM     11  C   LIG    1       -5.367   3.882   9.894  0.00  0.00    +0.040 A 
ATOM     12  C   LIG    1       -3.982   3.957   9.846  0.00  0.00    +0.140 A 
ATOM     13  C   LIG    1       -3.312   4.890  10.627  0.00  0.00    +0.000 A 
ATOM     14  C   LIG    1       -4.027   5.748  11.440  0.00  0.00    +0.010 A 
ENDBRANCH   1  12
BRANCH   7  15
ATOM     15  C   LIG    1       -3.226   4.808   7.315  0.00  0.00    -0.230 A 
ATOM     16  C   LIG    1       -2.718   6.001   7.002  0.00  0.00    +0.030 A 
ATOM     17  C   LIG    1       -3.614   6.884   6.424  0.00  0.00    +0.000 A 
ATOM     18  C   LIG    1       -4.852   6.411   6.275  0.00  0.00    -0.070 A 
ATOM     19  S   LIG    1       -4.930   4.761   6.881  0.00  0.00    +0.190 S 
ENDBRANCH   7  15
BRANCH   5  20
ATOM     20  C   LIG    1       -3.396   2.252   6.145  0.00  0.00    +0.520 C 
ATOM     21  N   LIG    1       -3.371   2.100   4.806  0.00  0.00    -0.670 N 
ATOM     22  H   LIG    1       -2.531   2.165   4.326  0.00  0.00    +0.410 HD
ATOM     23  O   LIG    1       -4.432   2.088   6.755  0.00  0.00    -0.500 OA
BRANCH  21  24
ATOM     24  C   LIG    1       -4.558   1.849   4.108  0.00  0.00    +0.150 A 
ATOM     25  C   LIG    1       -5.555   1.076   4.687  0.00  0.00    +0.020 A 
ATOM     26  C   LIG    1       -6.728   0.827   3.991  0.00  0.00    +0.030 A 
ATOM     27  C   LIG    1       -6.909   1.352   2.722  0.00  0.00    -0.110 A 
ATOM     28  C   LIG    1       -8.081   1.232   1.771  0.00  0.00    +0.070 C 
ATOM     29  C   LIG    1       -7.881   2.364   0.740  0.00  0.00    +0.030 C 
ATOM     30  C   LIG    1       -6.352   2.571   0.767  0.00  0.00    +0.070 C 
ATOM     31  C   LIG    1       -5.913   2.123   2.145  0.00  0.00    -0.080 A 
ATOM     32  C   LIG    1       -4.741   2.371   2.836  0.00  0.00    -0.010 A 
ENDBRANCH  21  24
ENDBRANCH   5  20
TORSDOF 4
