REMARK  Name = ZINCpe000027pHuN.0
REMARK                            x       y       z     vdW  Elec       q    Type
REMARK                         _______ _______ _______ _____ _____    ______ ____
ROOT
ATOM      1  C   LIG    1       -9.148   0.398   1.407  0.00  0.00    +0.300 C 
ATOM      2  C   LIG    1       -9.841  -0.966   1.429  0.00  0.00    +0.050 C 
ENDROOT
BRANCH   1   3
ATOM      3  C   LIG    1      -10.184   1.487   1.300  0.00  0.00    -0.110 A 
ATOM      4  C   LIG    1      -10.461   2.061   0.074  0.00  0.00    +0.080 A 
ATOM      5  C   LIG    1      -11.414   3.057  -0.025  0.00  0.00    +0.000 A 
ATOM      6  C   LIG    1      -12.085   3.485   1.105  0.00  0.00    +0.120 A 
ATOM      7  C   LIG    1      -11.806   2.914   2.333  0.00  0.00    -0.670 A 
ATOM      8  C   LIG    1      -10.855   1.916   2.431  0.00  0.00    +0.140 A 
BRANCH   7   9
ATOM      9  S   LIG    1      -12.661   3.461   3.774  0.00  0.00    +2.700 S 
ATOM     10  O   LIG    1      -12.598   2.391   4.707  0.00  0.00    -0.960 OA
ATOM     11  O   LIG    1      -13.883   4.029   3.324  0.00  0.00    -0.960 OA
BRANCH   9  12
ATOM     12  N   LIG    1      -11.780   4.702   4.426  0.00  0.00    -1.250 NA
ATOM     13  H   LIG    1      -12.087   5.143   5.233  0.00  0.00    +0.420 HD
ATOM     14  H   LIG    1      -10.956   4.988   4.000  0.00  0.00    +0.420 HD
ENDBRANCH   9  12
ENDBRANCH   7   9
ENDBRANCH   1   3
BRANCH   1  16
ATOM     15  C   LIG    1       -6.961   0.838   0.427  0.00  0.00    +0.530 C 
ATOM     16  N   LIG    1       -8.246   0.469   0.255  0.00  0.00    -0.610 N 
ATOM     17  C   LIG    1       -8.740   0.138  -1.084  0.00  0.00    +0.290 C 
ATOM     18  O   LIG    1       -6.552   1.112   1.535  0.00  0.00    -0.530 OA
BRANCH  15  23
ATOM     19  C   LIG    1       -3.752  -1.641  -2.259  0.00  0.00    +0.560 C 
ATOM     20  N   LIG    1       -4.369  -0.568  -1.725  0.00  0.00    -0.620 N 
ATOM     21  C   LIG    1       -3.732   0.728  -1.426  0.00  0.00    +0.270 C 
ATOM     22  C   LIG    1       -4.614   1.356  -0.317  0.00  0.00    +0.070 C 
ATOM     23  C   LIG    1       -6.033   0.910  -0.758  0.00  0.00    -0.010 C 
ATOM     24  C   LIG    1       -5.788  -0.493  -1.351  0.00  0.00    +0.270 C 
ATOM     25  O   LIG    1       -4.379  -2.663  -2.465  0.00  0.00    -0.540 OA
BRANCH  19  27
ATOM     26  C   LIG    1       -1.713  -2.635  -3.120  0.00  0.00    +0.150 C 
ATOM     27  C   LIG    1       -2.321  -1.576  -2.593  0.00  0.00    -0.090 C 
ENDBRANCH  19  27
ENDBRANCH  15  23
ENDBRANCH   1  16
TORSDOF 6
