REMARK  Name = ZINCpe000027pHbt.0
REMARK                            x       y       z     vdW  Elec       q    Type
REMARK                         _______ _______ _______ _____ _____    ______ ____
ROOT
ATOM      1  C   LIG    1        2.332   5.669   0.046  0.00  0.00    +0.560 C 
ATOM      2  N   LIG    1        3.461   6.403   0.105  0.00  0.00    -0.570 N 
ATOM      3  O   LIG    1        1.249   6.221   0.002  0.00  0.00    -0.530 OA
ENDROOT
BRANCH   2   4
ATOM      4  C   LIG    1        3.380   7.862   0.209  0.00  0.00    +0.260 C 
ATOM      5  C   LIG    1        2.470   8.436  -0.896  0.00  0.00    +0.100 C 
ATOM      6  C   LIG    1        1.354   9.105  -0.124  0.00  0.00    +0.550 C 
ATOM      7  N   LIG    1        1.571   8.951   1.188  0.00  0.00    -0.670 N 
ATOM      8  H   LIG    1        0.973   9.305   1.864  0.00  0.00    +0.420 HD
ATOM      9  O   LIG    1        0.411   9.687  -0.616  0.00  0.00    -0.480 OA
ATOM     10  C   LIG    1        2.683   8.268   1.489  0.00  0.00    +0.530 C 
ATOM     11  O   LIG    1        3.069   8.014   2.610  0.00  0.00    -0.470 OA
ENDBRANCH   2   4
BRANCH   2  12
ATOM     12  C   LIG    1        4.767   5.742   0.066  0.00  0.00    +0.200 C 
ATOM     13  C   LIG    1        6.009   6.622   0.231  0.00  0.00    +0.030 C 
ATOM     14  C   LIG    1        5.667   6.028  -1.138  0.00  0.00    +0.020 C 
ENDBRANCH   2  12
BRANCH   1  16
ATOM     15  C   LIG    1        1.282   3.470   0.081  0.00  0.00    +0.120 C 
ATOM     16  C   LIG    1        2.410   4.205   0.035  0.00  0.00    -0.060 C 
BRANCH  15  20
ATOM     17  C   LIG    1        1.508  -0.771   0.048  0.00  0.00    -0.120 A 
ATOM     18  C   LIG    1        0.263  -0.139   0.107  0.00  0.00    +0.090 A 
ATOM     19  C   LIG    1        0.189   1.236   0.118  0.00  0.00    +0.040 A 
ATOM     20  C   LIG    1        1.360   1.999   0.070  0.00  0.00    -0.040 A 
ATOM     21  C   LIG    1        2.606   1.365   0.011  0.00  0.00    +0.030 A 
ATOM     22  C   LIG    1        2.678  -0.009   0.000  0.00  0.00    +0.080 A 
BRANCH  17  23
ATOM     23  C   LIG    1        1.586  -2.247   0.037  0.00  0.00    +0.510 C 
ATOM     24  O   LIG    1        0.569  -2.909   0.080  0.00  0.00    -0.500 OA
BRANCH  23  26
ATOM     25  C   LIG    1        2.787  -4.309  -0.027  0.00  0.00    +0.290 C 
ATOM     26  O   LIG    1        2.786  -2.857  -0.019  0.00  0.00    -0.350 OA
ENDBRANCH  23  26
ENDBRANCH  17  23
ENDBRANCH  15  20
ENDBRANCH   1  16
TORSDOF 6
