REMARK  Name = ZINCpk000000ooZ4.0
REMARK                            x       y       z     vdW  Elec       q    Type
REMARK                         _______ _______ _______ _____ _____    ______ ____
ROOT
ATOM      1  C   LIG    1        6.573   2.786   1.578  0.00  0.00    +0.500 C 
ATOM      2  N   LIG    1        5.246   2.809   1.345  0.00  0.00    -0.720 N 
ATOM      3  H   LIG    1        4.622   2.741   2.085  0.00  0.00    +0.400 HD
ATOM      4  O   LIG    1        7.353   2.870   0.653  0.00  0.00    -0.500 OA
ENDROOT
BRANCH   1   9
ATOM      5  N   LIG    1        8.558   2.635   2.984  0.00  0.00    -0.990 NA
ATOM      6  C   LIG    1        9.015   1.347   3.536  0.00  0.00    +0.280 C 
ATOM      7  C   LIG    1        7.844   0.857   4.423  0.00  0.00    +0.040 C 
ATOM      8  C   LIG    1        6.614   1.318   3.598  0.00  0.00    +0.050 C 
ATOM      9  C   LIG    1        7.088   2.654   2.989  0.00  0.00    +0.240 C 
BRANCH   5  10
ATOM     10  S   LIG    1        9.538   3.858   2.448  0.00  0.00    +2.620 S 
ATOM     11  O   LIG    1        8.743   4.552   1.496  0.00  0.00    -0.920 OA
ATOM     12  O   LIG    1       10.738   3.201   2.062  0.00  0.00    -0.950 OA
BRANCH  10  13
ATOM     13  C   LIG    1        9.820   4.888   3.914  0.00  0.00    -0.380 C 
BRANCH  13  15
ATOM     14  C   LIG    1       10.960   6.935   4.781  0.00  0.00    +0.030 C 
ATOM     15  C   LIG    1       10.723   6.066   3.544  0.00  0.00    +0.040 C 
ENDBRANCH  13  15
ENDBRANCH  10  13
ENDBRANCH   5  10
ENDBRANCH   1   9
BRANCH   2  16
ATOM     16  C   LIG    1        4.745   2.937  -0.026  0.00  0.00    +0.390 C 
BRANCH  16  17
ATOM     17  C   LIG    1        3.238   2.937  -0.012  0.00  0.00    +0.040 A 
ATOM     18  C   LIG    1        2.451   4.035   0.000  0.00  0.00    +0.120 A 
ATOM     19  N   LIG    1        1.153   3.601   0.010  0.00  0.00    -0.360 N 
ATOM     20  C   LIG    1       -0.041   4.262   0.024  0.00  0.00    +0.200 A 
ATOM     21  C   LIG    1       -1.205   3.578   0.032  0.00  0.00    +0.020 A 
ATOM     22  C   LIG    1       -1.202   2.174   0.019  0.00  0.00    +0.030 A 
ATOM     23  C   LIG    1       -0.018   1.503   0.010  0.00  0.00    -0.040 A 
ATOM     24  C   LIG    1        0.002  -0.004   0.002  0.00  0.00    +0.120 C 
ATOM     25  C   LIG    1        1.188   2.231   0.003  0.00  0.00    +0.230 A 
ATOM     26  N   LIG    1        2.459   1.853  -0.011  0.00  0.00    -0.470 NA
ENDBRANCH  16  17
ENDBRANCH   2  16
TORSDOF 6
