REMARK  Name = ZINC650000004MTR.0
REMARK                            x       y       z     vdW  Elec       q    Type
REMARK                         _______ _______ _______ _____ _____    ______ ____
ROOT
ATOM      1  C   LIG    1        0.037  -2.610  -0.012  0.00  0.00    +0.640 C 
ATOM      2  O   LIG    1       -1.007  -3.232  -0.006  0.00  0.00    -0.530 OA
ATOM      3  N   LIG    1        1.214  -3.268  -0.027  0.00  0.00    -0.840 N 
ATOM      4  H   LIG    1        1.227  -4.238  -0.032  0.00  0.00    +0.410 HD
ATOM      5  H   LIG    1        2.047  -2.771  -0.032  0.00  0.00    +0.410 HD
ENDROOT
BRANCH   1   8
ATOM      6  C   LIG    1       -0.018   1.468   0.010  0.00  0.00    +0.210 C 
ATOM      7  C   LIG    1        0.002  -0.004   0.002  0.00  0.00    -0.070 C 
ATOM      8  C   LIG    1        0.018  -1.178  -0.004  0.00  0.00    -0.250 C 
ENDBRANCH   1   8
TORSDOF 1
