REMARK  Name = ZINCpe000000V1Nz.1
REMARK                            x       y       z     vdW  Elec       q    Type
REMARK                         _______ _______ _______ _____ _____    ______ ____
ROOT
ATOM      1  S   LIG    1        4.042  -0.831  -0.018  0.00  0.00    +2.690 S 
ATOM      2  O   LIG    1        3.769  -2.114   0.527  0.00  0.00    -0.940 OA
ATOM      3  O   LIG    1        5.075   0.016   0.467  0.00  0.00    -0.930 OA
ENDROOT
BRANCH   1   7
ATOM      4  C   LIG    1        0.195   1.535   0.295  0.00  0.00    -0.630 A 
ATOM      5  C   LIG    1        1.408   2.194   0.219  0.00  0.00    +0.110 A 
ATOM      6  C   LIG    1        2.583   1.472   0.123  0.00  0.00    +0.110 A 
ATOM      7  C   LIG    1        2.545   0.090   0.104  0.00  0.00    -0.630 A 
ATOM      8  C   LIG    1        1.332  -0.570   0.181  0.00  0.00    +0.110 A 
ATOM      9  C   LIG    1        0.158   0.153   0.276  0.00  0.00    +0.110 A 
BRANCH   4  10
ATOM     10  S   LIG    1       -1.303   2.455   0.408  0.00  0.00    +2.690 S 
ATOM     11  O   LIG    1       -2.333   1.608  -0.082  0.00  0.00    -0.950 OA
ATOM     12  O   LIG    1       -1.027   3.739  -0.136  0.00  0.00    -0.940 OA
BRANCH  10  14
ATOM     13  C   LIG    1       -0.706   3.500   2.831  0.00  0.00    +0.300 C 
ATOM     14  N   LIG    1       -1.615   2.687   2.018  0.00  0.00    -1.120 NA
ATOM     15  H   LIG    1       -2.399   2.285   2.423  0.00  0.00    +0.420 HD
ENDBRANCH  10  14
ENDBRANCH   4  10
ENDBRANCH   1   7
BRANCH   1  16
ATOM     16  N   LIG    1        4.345  -1.062  -1.630  0.00  0.00    -1.050 N 
ATOM     17  H   LIG    1        4.399  -1.961  -1.989  0.00  0.00    +0.430 HD
BRANCH  16  18
ATOM     18  C   LIG    1        4.525   0.040  -2.473  0.00  0.00    +0.130 A 
ATOM     19  C   LIG    1        5.165   1.175  -2.002  0.00  0.00    +0.030 A 
ATOM     20  C   LIG    1        5.349   2.266  -2.832  0.00  0.00    +0.040 A 
ATOM     21  C   LIG    1        4.884   2.228  -4.134  0.00  0.00    +0.070 A 
ATOM     22  C   LIG    1        4.242   1.103  -4.606  0.00  0.00    -0.120 A 
ATOM     23  C   LIG    1        3.632   0.753  -5.944  0.00  0.00    +0.140 C 
ATOM     24  C   LIG    1        3.100  -0.651  -5.752  0.00  0.00    +0.530 C 
ATOM     25  O   LIG    1        2.527  -1.324  -6.582  0.00  0.00    -0.500 OA
ATOM     26  N   LIG    1        3.382  -1.010  -4.488  0.00  0.00    -0.660 N 
ATOM     27  H   LIG    1        3.149  -1.870  -4.105  0.00  0.00    +0.410 HD
ATOM     28  C   LIG    1        4.053  -0.002  -3.789  0.00  0.00    +0.130 A 
ENDBRANCH  16  18
ENDBRANCH   1  16
TORSDOF 5
