REMARK  Name = ZINCpe00000gMA1c.0
REMARK                            x       y       z     vdW  Elec       q    Type
REMARK                         _______ _______ _______ _____ _____    ______ ____
ROOT
ATOM      1  C   LIG    1        1.720  -1.692  -0.695  0.00  0.00    +0.580 C 
ATOM      2  N   LIG    1        1.326  -0.418  -0.500  0.00  0.00    -0.620 N 
ATOM      3  C   LIG    1        2.120   0.784  -0.812  0.00  0.00    +0.280 C 
ATOM      4  C   LIG    1        1.554   1.886   0.118  0.00  0.00    +0.000 C 
ATOM      5  C   LIG    1        0.040   1.545   0.119  0.00  0.00    +0.020 C 
ATOM      6  C   LIG    1        1.802   3.278  -0.467  0.00  0.00    +0.040 C 
ATOM      7  C   LIG    1        0.033   0.003   0.059  0.00  0.00    +0.250 C 
ATOM      8  O   LIG    1        2.761  -1.925  -1.281  0.00  0.00    -0.530 OA
ENDROOT
BRANCH   1  15
ATOM      9  C   LIG    1        0.114  -7.394   0.977  0.00  0.00    +0.100 A 
ATOM     10  C   LIG    1       -1.236  -7.112   1.152  0.00  0.00    -0.020 A 
ATOM     11  C   LIG    1       -1.734  -5.853   0.869  0.00  0.00    +0.040 A 
ATOM     12  C   LIG    1       -0.886  -4.864   0.407  0.00  0.00    +0.110 A 
ATOM     13  O   LIG    1       -1.347  -3.620   0.120  0.00  0.00    -0.300 OA
ATOM     14  C   LIG    1       -0.466  -2.522   0.379  0.00  0.00    +0.300 C 
ATOM     15  C   LIG    1        0.896  -2.796  -0.202  0.00  0.00    -0.230 C 
ATOM     16  C   LIG    1        1.358  -4.069  -0.262  0.00  0.00    +0.160 C 
ATOM     17  C   LIG    1        0.480  -5.143   0.229  0.00  0.00    -0.110 A 
ATOM     18  C   LIG    1        0.976  -6.414   0.516  0.00  0.00    +0.050 A 
BRANCH   9  20
ATOM     19  C   LIG    1       -0.356  -9.600   1.732  0.00  0.00    +0.250 C 
ATOM     20  O   LIG    1        0.588  -8.636   1.260  0.00  0.00    -0.320 OA
ENDBRANCH   9  20
ENDBRANCH   1  15
BRANCH   5  21
ATOM     21  C   LIG    1       -0.625   2.040   1.404  0.00  0.00    -0.330 C 
BRANCH  21  22
ATOM     22  S   LIG    1       -2.391   1.624   1.370  0.00  0.00    +2.610 S 
ATOM     23  O   LIG    1       -2.574   0.218   1.464  0.00  0.00    -0.950 OA
ATOM     24  O   LIG    1       -3.063   2.385   0.377  0.00  0.00    -0.960 OA
BRANCH  22  25
ATOM     25  N   LIG    1       -2.981   2.209   2.802  0.00  0.00    -1.250 NA
ATOM     26  H   LIG    1       -3.921   2.105   3.018  0.00  0.00    +0.420 HD
ATOM     27  H   LIG    1       -2.387   2.656   3.425  0.00  0.00    +0.410 HD
ENDBRANCH  22  25
ENDBRANCH  21  22
ENDBRANCH   5  21
TORSDOF 5
