REMARK  Name = ZINCvU00000006by.0
REMARK                            x       y       z     vdW  Elec       q    Type
REMARK                         _______ _______ _______ _____ _____    ______ ____
ROOT
ATOM      1  C   LIG    1       -4.252   1.841  -0.597  0.00  0.00    -0.690 A 
ATOM      2  C   LIG    1       -3.612   0.701  -1.050  0.00  0.00    +0.190 A 
ATOM      3  C   LIG    1       -4.084  -0.551  -0.700  0.00  0.00    +0.020 A 
ATOM      4  C   LIG    1       -5.206  -0.671   0.096  0.00  0.00    +0.070 A 
ATOM      5  C   LIG    1       -5.861   0.476   0.552  0.00  0.00    -0.140 A 
ATOM      6 CL   LIG    1       -5.802  -2.243   0.529  0.00  0.00    -0.010 Cl
ATOM      7  C   LIG    1       -5.374   1.736   0.199  0.00  0.00    +0.220 A 
ENDROOT
BRANCH   1   8
ATOM      8  S   LIG    1       -3.637   3.430  -1.044  0.00  0.00    +2.690 S 
ATOM      9  O   LIG    1       -2.951   3.263  -2.277  0.00  0.00    -0.940 OA
ATOM     10  O   LIG    1       -4.715   4.340  -0.872  0.00  0.00    -0.940 OA
BRANCH   8  11
ATOM     11  N   LIG    1       -2.491   3.846   0.076  0.00  0.00    -1.060 N 
ATOM     12  H   LIG    1       -2.631   4.614   0.651  0.00  0.00    +0.430 HD
BRANCH  11  18
ATOM     13  C   LIG    1        0.179   0.537   2.542  0.00  0.00    +0.090 C 
ATOM     14  C   LIG    1       -0.001   1.477   1.378  0.00  0.00    -0.080 A 
ATOM     15  C   LIG    1        0.992   1.591   0.423  0.00  0.00    +0.020 A 
ATOM     16  C   LIG    1        0.832   2.452  -0.648  0.00  0.00    +0.020 A 
ATOM     17  C   LIG    1       -0.320   3.205  -0.763  0.00  0.00    +0.030 A 
ATOM     18  C   LIG    1       -1.322   3.089   0.192  0.00  0.00    +0.120 A 
ATOM     19  C   LIG    1       -1.157   2.224   1.266  0.00  0.00    +0.020 A 
ENDBRANCH  11  18
ENDBRANCH   8  11
ENDBRANCH   1   8
BRANCH   5  20
ATOM     20  C   LIG    1       -7.061   0.357   1.404  0.00  0.00    +0.510 C 
ATOM     21  O   LIG    1       -7.482  -0.741   1.710  0.00  0.00    -0.480 OA
BRANCH  20  22
ATOM     22  O   LIG    1       -7.689   1.465   1.843  0.00  0.00    -0.330 OA
BRANCH  22  23
ATOM     23  C   LIG    1       -8.862   1.272   2.676  0.00  0.00    +0.250 C 
BRANCH  23  24
ATOM     24  C   LIG    1       -9.426   2.614   3.067  0.00  0.00    +0.390 C 
ATOM     25  O   LIG    1       -8.893   3.632   2.682  0.00  0.00    -0.400 OA
BRANCH  24  26
ATOM     26  C   LIG    1      -10.625   2.688   3.917  0.00  0.00    -0.160 A 
ATOM     27  C   LIG    1      -11.243   1.516   4.364  0.00  0.00    +0.080 A 
ATOM     28  C   LIG    1      -12.366   1.593   5.160  0.00  0.00    +0.010 A 
ATOM     29  C   LIG    1      -12.882   2.827   5.518  0.00  0.00    +0.070 A 
ATOM     30  C   LIG    1      -12.277   3.992   5.081  0.00  0.00    +0.020 A 
ATOM     31  C   LIG    1      -11.149   3.932   4.287  0.00  0.00    +0.020 A 
ATOM     32 CL   LIG    1      -10.387   5.395   3.745  0.00  0.00    -0.030 Cl
ENDBRANCH  24  26
ENDBRANCH  23  24
ENDBRANCH  22  23
ENDBRANCH  20  22
ENDBRANCH   5  20
TORSDOF 8
