REMARK  Name = ZINCvU0000000BCv.0
REMARK                            x       y       z     vdW  Elec       q    Type
REMARK                         _______ _______ _______ _____ _____    ______ ____
ROOT
ATOM      1  C   LIG    1        0.669   7.632  -5.828  0.00  0.00    +0.640 A 
ATOM      2  N   LIG    1        1.379   6.736  -5.185  0.00  0.00    -0.550 NA
ATOM      3  C   LIG    1        0.931   6.161  -4.052  0.00  0.00    +0.130 A 
ATOM      4  C   LIG    1       -0.316   6.519  -3.542  0.00  0.00    -0.270 A 
ATOM      5  C   LIG    1       -0.636   5.798  -2.325  0.00  0.00    -0.010 A 
ATOM      6  C   LIG    1        0.295   4.956  -1.919  0.00  0.00    -0.210 A 
ATOM      7  C   LIG    1       -1.930   5.999  -1.579  0.00  0.00    +0.110 C 
ATOM      8  C   LIG    1       -1.074   7.497  -4.255  0.00  0.00    +0.580 A 
ATOM      9  O   LIG    1       -2.170   7.846  -3.851  0.00  0.00    -0.510 OA
ATOM     10  S   LIG    1        1.669   4.952  -3.009  0.00  0.00    +0.200 S 
ATOM     11  N   LIG    1       -0.558   8.026  -5.381  0.00  0.00    -0.650 N 
ATOM     12  H   LIG    1       -1.061   8.691  -5.877  0.00  0.00    +0.420 HD
ENDROOT
BRANCH   1  13
ATOM     13  N   LIG    1        1.174   8.187  -6.979  0.00  0.00    -0.640 N 
ATOM     14  H   LIG    1        0.629   8.793  -7.504  0.00  0.00    +0.430 HD
BRANCH  13  18
ATOM     15  C   LIG    1        5.050   7.265  -8.211  0.00  0.00    +0.130 A 
ATOM     16  C   LIG    1        4.757   7.363  -6.859  0.00  0.00    -0.040 A 
ATOM     17  C   LIG    1        3.474   7.673  -6.451  0.00  0.00    +0.090 A 
ATOM     18  C   LIG    1        2.475   7.877  -7.393  0.00  0.00    +0.130 A 
ATOM     19  C   LIG    1        2.769   7.780  -8.747  0.00  0.00    +0.050 A 
ATOM     20  C   LIG    1        4.053   7.475  -9.155  0.00  0.00    -0.050 A 
ATOM     21 CL   LIG    1        4.421   7.353 -10.847  0.00  0.00    -0.050 Cl
BRANCH  15  23
ATOM     22  C   LIG    1        7.289   6.762  -7.588  0.00  0.00    +0.240 C 
ATOM     23  O   LIG    1        6.314   6.965  -8.613  0.00  0.00    -0.300 OA
ENDBRANCH  15  23
ENDBRANCH  13  18
ENDBRANCH   1  13
BRANCH   6  24
ATOM     24  C   LIG    1        0.188   4.102  -0.682  0.00  0.00    +0.190 C 
BRANCH  24  25
ATOM     25  C   LIG    1        0.783   4.839   0.490  0.00  0.00    -0.070 A 
ATOM     26  C   LIG    1        2.127   4.698   0.782  0.00  0.00    +0.040 A 
ATOM     27  C   LIG    1        2.678   5.375   1.854  0.00  0.00    +0.040 A 
ATOM     28  C   LIG    1        1.883   6.190   2.643  0.00  0.00    +0.030 A 
ATOM     29  O   LIG    1        2.173   6.952   3.738  0.00  0.00    -0.310 OA
ATOM     30  C   LIG    1        0.903   7.238   4.354  0.00  0.00    +0.430 C 
ATOM     31  O   LIG    1       -0.029   7.182   3.258  0.00  0.00    -0.310 OA
ATOM     32  C   LIG    1        0.529   6.332   2.348  0.00  0.00    +0.030 A 
ATOM     33  C   LIG    1       -0.016   5.654   1.270  0.00  0.00    +0.050 A 
ENDBRANCH  24  25
ENDBRANCH   6  24
TORSDOF 5
