REMARK  Name = ZINCrD000000BtnF.1
REMARK                            x       y       z     vdW  Elec       q    Type
REMARK                         _______ _______ _______ _____ _____    ______ ____
ROOT
ATOM      1  O   LIG    1       -2.932   1.394   3.768  0.00  0.00    -0.510 OA
ATOM      2  C   LIG    1       -3.345   1.141   2.653  0.00  0.00    +0.610 C 
ATOM      3  N   LIG    1       -2.571   0.458   1.786  0.00  0.00    -0.700 N 
ATOM      4  H   LIG    1       -2.901   0.256   0.897  0.00  0.00    +0.400 HD
ENDROOT
BRANCH   2   5
ATOM      5  C   LIG    1       -4.696   1.580   2.249  0.00  0.00    -0.030 A 
ATOM      6  N   LIG    1       -5.284   1.389   1.079  0.00  0.00    -0.240 NA
ATOM      7  N   LIG    1       -6.456   1.916   1.115  0.00  0.00    -0.230 N 
ATOM      8  H   LIG    1       -7.084   1.904   0.375  0.00  0.00    +0.480 HD
ATOM      9  N   LIG    1       -6.689   2.465   2.253  0.00  0.00    -0.270 NA
ATOM     10  C   LIG    1       -5.634   2.302   3.030  0.00  0.00    +0.110 A 
BRANCH  10  11
ATOM     11  C   LIG    1       -5.466   2.775   4.426  0.00  0.00    -0.030 A 
ATOM     12  C   LIG    1       -4.749   2.008   5.342  0.00  0.00    +0.080 A 
ATOM     13  C   LIG    1       -4.590   2.456   6.638  0.00  0.00    +0.000 A 
ATOM     14  C   LIG    1       -5.152   3.657   7.031  0.00  0.00    +0.020 A 
ATOM     15  C   LIG    1       -5.870   4.419   6.127  0.00  0.00    -0.010 A 
ATOM     16  C   LIG    1       -6.029   3.985   4.827  0.00  0.00    +0.030 A 
ENDBRANCH  10  11
ENDBRANCH   2   5
BRANCH   3  17
ATOM     17  C   LIG    1       -1.231   0.022   2.187  0.00  0.00    +0.340 C 
BRANCH  17  18
ATOM     18  C   LIG    1       -0.580  -0.714   1.045  0.00  0.00    -0.090 A 
ATOM     19  C   LIG    1       -0.559  -2.095   1.034  0.00  0.00    +0.040 A 
ATOM     20  C   LIG    1        0.039  -2.771  -0.013  0.00  0.00    +0.010 A 
ATOM     21  C   LIG    1        0.619  -2.067  -1.053  0.00  0.00    +0.020 A 
ATOM     22  C   LIG    1        0.597  -0.686  -1.051  0.00  0.00    -0.030 A 
ATOM     23  C   LIG    1        0.002  -0.004   0.002  0.00  0.00    +0.110 A 
BRANCH  23  24
ATOM     24  N   LIG    1       -0.017   1.393   0.010  0.00  0.00    -0.500 N 
ATOM     25  C   LIG    1       -0.805   1.914  -1.114  0.00  0.00    +0.170 C 
ATOM     26  C   LIG    1       -0.926   3.435  -0.992  0.00  0.00    +0.020 C 
ATOM     27  C   LIG    1        0.474   4.055  -0.995  0.00  0.00    +0.010 C 
ATOM     28  C   LIG    1        1.291   3.459   0.155  0.00  0.00    +0.020 C 
ATOM     29  C   LIG    1        1.347   1.937  -0.000  0.00  0.00    +0.180 C 
ENDBRANCH  23  24
ENDBRANCH  17  18
ENDBRANCH   3  17
TORSDOF 5
