REMARK  Name = ZINCrD000000BtnF.0
REMARK                            x       y       z     vdW  Elec       q    Type
REMARK                         _______ _______ _______ _____ _____    ______ ____
ROOT
ATOM      1  O   LIG    1       -2.955   1.336   3.782  0.00  0.00    -0.500 OA
ATOM      2  C   LIG    1       -3.305   1.248   2.620  0.00  0.00    +0.590 C 
ATOM      3  N   LIG    1       -2.439   0.807   1.687  0.00  0.00    -0.710 N 
ATOM      4  H   LIG    1       -2.718   0.738   0.760  0.00  0.00    +0.390 HD
ENDROOT
BRANCH   2   5
ATOM      5  C   LIG    1       -4.672   1.624   2.235  0.00  0.00    -0.060 A 
ATOM      6  C   LIG    1       -5.650   2.199   3.042  0.00  0.00    +0.110 A 
ATOM      7  N   LIG    1       -6.726   2.359   2.258  0.00  0.00    -0.250 NA
ATOM      8  N   LIG    1       -6.461   1.931   1.076  0.00  0.00    -0.040 NA
ATOM      9  N   LIG    1       -5.256   1.488   1.001  0.00  0.00    -0.370 N 
ATOM     10  H   LIG    1       -4.833   1.120   0.209  0.00  0.00    +0.450 HD
BRANCH   6  11
ATOM     11  C   LIG    1       -5.526   2.561   4.474  0.00  0.00    -0.030 A 
ATOM     12  C   LIG    1       -6.574   2.296   5.356  0.00  0.00    +0.050 A 
ATOM     13  C   LIG    1       -6.450   2.628   6.689  0.00  0.00    +0.000 A 
ATOM     14  C   LIG    1       -5.295   3.235   7.149  0.00  0.00    +0.020 A 
ATOM     15  C   LIG    1       -4.255   3.506   6.279  0.00  0.00    +0.000 A 
ATOM     16  C   LIG    1       -4.364   3.172   4.944  0.00  0.00    +0.070 A 
ENDBRANCH   6  11
ENDBRANCH   2   5
BRANCH   3  17
ATOM     17  C   LIG    1       -1.076   0.433   2.071  0.00  0.00    +0.350 C 
BRANCH  17  18
ATOM     18  C   LIG    1       -0.317  -0.023   0.852  0.00  0.00    -0.090 A 
ATOM     19  C   LIG    1       -0.159  -1.371   0.600  0.00  0.00    +0.040 A 
ATOM     20  C   LIG    1        0.537  -1.790  -0.519  0.00  0.00    +0.010 A 
ATOM     21  C   LIG    1        1.077  -0.862  -1.390  0.00  0.00    +0.020 A 
ATOM     22  C   LIG    1        0.917   0.489  -1.147  0.00  0.00    -0.030 A 
ATOM     23  C   LIG    1        0.224   0.913  -0.021  0.00  0.00    +0.110 A 
BRANCH  23  24
ATOM     24  N   LIG    1        0.065   2.278   0.230  0.00  0.00    -0.500 N 
ATOM     25  C   LIG    1       -0.735   2.917  -0.822  0.00  0.00    +0.170 C 
ATOM     26  C   LIG    1       -1.011   4.374  -0.441  0.00  0.00    +0.020 C 
ATOM     27  C   LIG    1        0.320   5.111  -0.267  0.00  0.00    +0.010 C 
ATOM     28  C   LIG    1        1.155   4.397   0.799  0.00  0.00    +0.020 C 
ATOM     29  C   LIG    1        1.367   2.940   0.383  0.00  0.00    +0.180 C 
ENDBRANCH  23  24
ENDBRANCH  17  18
ENDBRANCH   3  17
TORSDOF 5
