REMARK  Name = ZINCqH0000034gGC.1
REMARK                            x       y       z     vdW  Elec       q    Type
REMARK                         _______ _______ _______ _____ _____    ______ ____
ROOT
ATOM      1  N   LIG    1        0.022  -0.023   0.124  0.00  0.00    -0.690 N 
ATOM      2  H   LIG    1        0.781  -0.321   0.649  0.00  0.00    +0.400 HD
ATOM      3  C   LIG    1        0.129   1.071  -0.656  0.00  0.00    +0.700 C 
ATOM      4  N   LIG    1        1.267   1.793  -0.651  0.00  0.00    -0.740 N 
ATOM      5  H   LIG    1        2.009   1.525  -0.087  0.00  0.00    +0.400 HD
ATOM      6  O   LIG    1       -0.799   1.403  -1.368  0.00  0.00    -0.570 OA
ENDROOT
BRANCH   1  13
ATOM      7  C   LIG    1       -1.198  -2.102  -0.044  0.00  0.00    -0.090 A 
ATOM      8  C   LIG    1       -2.390  -2.797   0.013  0.00  0.00    +0.010 A 
ATOM      9  C   LIG    1       -3.571  -2.128   0.278  0.00  0.00    +0.000 A 
ATOM     10  C   LIG    1       -3.562  -0.762   0.492  0.00  0.00    +0.010 A 
ATOM     11  C   LIG    1       -2.372  -0.061   0.442  0.00  0.00    -0.070 A 
ATOM     12  C   LIG    1       -2.363   1.427   0.676  0.00  0.00    +0.090 C 
ATOM     13  C   LIG    1       -1.185  -0.730   0.176  0.00  0.00    +0.160 A 
BRANCH   7  15
ATOM     14  C   LIG    1        0.780  -3.196   0.975  0.00  0.00    +0.020 C 
ATOM     15  C   LIG    1        0.087  -2.830  -0.340  0.00  0.00    +0.070 C 
ENDBRANCH   7  15
ENDBRANCH   1  13
BRANCH   4  16
ATOM     16  C   LIG    1        1.383   2.982  -1.499  0.00  0.00    +0.250 C 
ATOM     17  C   LIG    1        1.829   2.567  -2.904  0.00  0.00    +0.010 C 
ATOM     18  C   LIG    1        2.010   3.818  -3.767  0.00  0.00    +0.170 C 
ATOM     19  N   LIG    1        3.012   4.698  -3.154  0.00  0.00    -0.530 NA
ATOM     20  C   LIG    1        2.582   5.147  -1.824  0.00  0.00    +0.180 C 
ATOM     21  C   LIG    1        2.421   3.936  -0.902  0.00  0.00    +0.040 C 
BRANCH  19  22
ATOM     22  C   LIG    1        3.311   5.843  -4.025  0.00  0.00    +0.230 C 
BRANCH  22  23
ATOM     23  C   LIG    1        3.977   5.354  -5.286  0.00  0.00    -0.030 A 
ATOM     24  C   LIG    1        5.357   5.246  -5.363  0.00  0.00    -0.010 A 
ATOM     25  C   LIG    1        5.933   4.790  -6.534  0.00  0.00    +0.260 A 
ATOM     26  N   LIG    1        5.186   4.469  -7.572  0.00  0.00    -0.490 NA
ATOM     27  C   LIG    1        3.871   4.564  -7.536  0.00  0.00    +0.260 A 
ATOM     28  C   LIG    1        3.225   5.008  -6.398  0.00  0.00    -0.040 A 
ENDBRANCH  22  23
ENDBRANCH  19  22
ENDBRANCH   4  16
TORSDOF 5
