REMARK  Name = ZINCrg00000Bnd5w.0
REMARK                            x       y       z     vdW  Elec       q    Type
REMARK                         _______ _______ _______ _____ _____    ______ ____
ROOT
ATOM      1  C   LIG    1       -4.286   5.250  -2.426  0.00  0.00    +0.240 C 
ATOM      2  C   LIG    1       -3.611   5.805  -3.682  0.00  0.00    +0.020 C 
ATOM      3  C   LIG    1       -3.190   7.255  -3.436  0.00  0.00    +0.000 C 
ATOM      4  C   LIG    1       -4.425   8.097  -3.107  0.00  0.00    +0.230 C 
ATOM      5  C   LIG    1       -5.100   7.542  -1.851  0.00  0.00    +0.020 C 
ATOM      6  C   LIG    1       -5.521   6.092  -2.097  0.00  0.00    +0.050 C 
ENDROOT
BRANCH   1   9
ATOM      7  O   LIG    1       -2.450   3.356  -1.876  0.00  0.00    -0.510 OA
ATOM      8  C   LIG    1       -2.465   4.300  -1.115  0.00  0.00    +0.500 C 
ATOM      9  N   LIG    1       -3.346   5.302  -1.303  0.00  0.00    -0.720 N 
ATOM     10  H   LIG    1       -3.359   6.058  -0.695  0.00  0.00    +0.400 HD
BRANCH   8  11
ATOM     11  C   LIG    1       -1.498   4.354   0.040  0.00  0.00    +0.360 C 
BRANCH  11  12
ATOM     12  N   LIG    1       -0.654   3.157   0.025  0.00  0.00    -0.370 N 
ATOM     13  C   LIG    1        0.690   3.119   0.012  0.00  0.00    +0.480 A 
ATOM     14  N   LIG    1        1.061   1.865   0.002  0.00  0.00    -0.540 NA
ATOM     15  C   LIG    1       -0.013   1.076   0.008  0.00  0.00    +0.420 A 
ATOM     16  N   LIG    1       -1.087   1.821   0.017  0.00  0.00    -0.290 NA
ENDBRANCH  11  12
ENDBRANCH   8  11
ENDBRANCH   1   9
BRANCH   4  17
ATOM     17  N   LIG    1       -4.021   9.485  -2.872  0.00  0.00    -0.720 N 
ATOM     18  H   LIG    1       -3.855   9.795  -1.968  0.00  0.00    +0.410 HD
ATOM     19  C   LIG    1       -3.881  10.332  -3.911  0.00  0.00    +0.590 C 
ATOM     20  O   LIG    1       -4.090   9.943  -5.044  0.00  0.00    -0.540 OA
BRANCH  19  21
ATOM     21  C   LIG    1       -3.475  11.729  -3.674  0.00  0.00    +0.010 A 
ATOM     22  C   LIG    1       -3.296  12.679  -4.665  0.00  0.00    +0.010 A 
ATOM     23  C   LIG    1       -2.917  13.866  -4.014  0.00  0.00    -0.220 A 
ATOM     24  C   LIG    1       -2.598  15.155  -4.402  0.00  0.00    +0.390 A 
ATOM     25  N   LIG    1       -2.264  16.065  -3.478  0.00  0.00    -0.530 N 
ATOM     26  H   LIG    1       -2.043  16.964  -3.768  0.00  0.00    +0.430 HD
ATOM     27  C   LIG    1       -2.223  15.778  -2.150  0.00  0.00    +0.200 A 
ATOM     28  C   LIG    1       -2.517  14.553  -1.669  0.00  0.00    +0.070 A 
ATOM     29  C   LIG    1       -2.881  13.529  -2.577  0.00  0.00    +0.100 A 
ATOM     30  N   LIG    1       -3.220  12.259  -2.468  0.00  0.00    -0.490 NA
ENDBRANCH  19  21
ENDBRANCH   4  17
TORSDOF 5
