REMARK  Name = ZINCpk00000eaWMy.0
REMARK                            x       y       z     vdW  Elec       q    Type
REMARK                         _______ _______ _______ _____ _____    ______ ____
ROOT
ATOM      1  N   LIG    1        5.153   5.328   0.105  0.00  0.00    -0.720 N 
ATOM      2  H   LIG    1        5.441   4.517  -0.343  0.00  0.00    +0.400 HD
ATOM      3  C   LIG    1        6.062   6.131   0.694  0.00  0.00    +0.490 C 
ATOM      4  O   LIG    1        5.702   7.145   1.254  0.00  0.00    -0.520 OA
ENDROOT
BRANCH   1   9
ATOM      5  N   LIG    1        1.463   4.766   0.012  0.00  0.00    -0.470 N 
ATOM      6  C   LIG    1        1.122   5.644  -1.114  0.00  0.00    +0.190 C 
ATOM      7  C   LIG    1        1.913   6.949  -1.003  0.00  0.00    +0.050 C 
ATOM      8  C   LIG    1        3.412   6.634  -1.012  0.00  0.00    +0.020 C 
ATOM      9  C   LIG    1        3.732   5.680   0.142  0.00  0.00    +0.250 C 
ATOM     10  C   LIG    1        2.888   4.412  -0.003  0.00  0.00    +0.210 C 
BRANCH   5  15
ATOM     11  C   LIG    1        0.002  -0.004   0.002  0.00  0.00    +0.160 C 
ATOM     12  C   LIG    1       -0.018   1.503   0.010  0.00  0.00    +0.090 A 
ATOM     13  N   LIG    1       -1.089   2.254   0.019  0.00  0.00    -0.290 NA
ATOM     14  N   LIG    1       -0.688   3.596   0.027  0.00  0.00    -0.380 N 
ATOM     15  C   LIG    1        0.665   3.626   0.015  0.00  0.00    +0.280 A 
ATOM     16  C   LIG    1       -1.575   4.762   0.041  0.00  0.00    +0.350 C 
ATOM     17  C   LIG    1        1.103   2.337   0.004  0.00  0.00    -0.160 A 
ENDBRANCH   5  15
ENDBRANCH   1   9
BRANCH   3  18
ATOM     18  C   LIG    1        7.524   5.769   0.657  0.00  0.00    +0.230 C 
BRANCH  18  19
ATOM     19  O   LIG    1        8.291   6.824   1.241  0.00  0.00    -0.530 OA
ATOM     20  H   LIG    1        8.066   7.009   2.163  0.00  0.00    +0.380 HD
ENDBRANCH  18  19
BRANCH  18  21
ATOM     21  C   LIG    1        7.750   4.477   1.445  0.00  0.00    +0.060 C 
BRANCH  21  22
ATOM     22  C   LIG    1        9.188   4.048   1.306  0.00  0.00    -0.080 A 
ATOM     23  C   LIG    1        9.562   3.206   0.276  0.00  0.00    +0.000 A 
ATOM     24  C   LIG    1       10.882   2.817   0.145  0.00  0.00    +0.000 A 
ATOM     25  C   LIG    1       11.826   3.262   1.051  0.00  0.00    +0.000 A 
ATOM     26  C   LIG    1       11.452   4.100   2.084  0.00  0.00    +0.000 A 
ATOM     27  C   LIG    1       10.133   4.494   2.212  0.00  0.00    +0.020 A 
ENDBRANCH  21  22
ENDBRANCH  18  21
ENDBRANCH   3  18
TORSDOF 6
