REMARK  Name = ZINCtV000002uBKa.0
REMARK                            x       y       z     vdW  Elec       q    Type
REMARK                         _______ _______ _______ _____ _____    ______ ____
ROOT
ATOM      1  N   LIG    1        1.046  -4.583  -0.128  0.00  0.00    -0.460 N 
ATOM      2  C   LIG    1       -0.135  -5.264  -0.243  0.00  0.00    +0.150 A 
ATOM      3  N   LIG    1       -1.103  -4.400  -0.047  0.00  0.00    -0.290 NA
ATOM      4  N   LIG    1       -0.615  -3.235   0.187  0.00  0.00    -0.270 NA
ATOM      5  C   LIG    1        0.697  -3.281   0.145  0.00  0.00    +0.270 A 
ENDROOT
BRANCH   5   6
ATOM      6  C   LIG    1        1.623  -2.150   0.358  0.00  0.00    -0.110 A 
ATOM      7  C   LIG    1        2.697  -1.826  -0.407  0.00  0.00    +0.260 A 
ATOM      8  N   LIG    1        3.308  -0.717   0.104  0.00  0.00    -0.580 N 
ATOM      9  H   LIG    1        4.097  -0.296  -0.271  0.00  0.00    +0.420 HD
ATOM     10  C   LIG    1        2.642  -0.283   1.230  0.00  0.00    +0.100 A 
ATOM     11  C   LIG    1        2.847   0.777   2.107  0.00  0.00    -0.010 A 
ATOM     12  C   LIG    1        1.992   0.963   3.172  0.00  0.00    +0.040 A 
ATOM     13  C   LIG    1        0.924   0.101   3.380  0.00  0.00    -0.010 A 
ATOM     14  C   LIG    1        0.705  -0.954   2.523  0.00  0.00    +0.070 A 
ATOM     15  C   LIG    1        1.561  -1.154   1.442  0.00  0.00    -0.070 A 
ENDBRANCH   5   6
BRANCH   1  16
ATOM     16  C   LIG    1        2.400  -5.127  -0.266  0.00  0.00    +0.310 C 
BRANCH  16  17
ATOM     17  C   LIG    1        2.935  -5.518   1.113  0.00  0.00    +0.000 C 
BRANCH  17  18
ATOM     18  C   LIG    1        4.348  -6.086   0.969  0.00  0.00    +0.030 C 
BRANCH  18  19
ATOM     19  C   LIG    1        4.884  -6.477   2.348  0.00  0.00    +0.000 C 
BRANCH  19  21
ATOM     20  C   LIG    1        6.833  -7.435   3.583  0.00  0.00    +0.000 C 
ATOM     21  C   LIG    1        6.298  -7.045   2.204  0.00  0.00    +0.000 C 
ENDBRANCH  19  21
ENDBRANCH  18  19
ENDBRANCH  17  18
ENDBRANCH  16  17
ENDBRANCH   1  16
BRANCH   2  22
ATOM     22  S   LIG    1       -0.321  -6.982  -0.590  0.00  0.00    +0.010 S 
BRANCH  22  23
ATOM     23  C   LIG    1       -2.126  -7.111  -0.579  0.00  0.00    +0.160 C 
BRANCH  23  24
ATOM     24  C   LIG    1       -2.530  -8.535  -0.862  0.00  0.00    -0.050 A 
ATOM     25  C   LIG    1       -2.744  -8.947  -2.164  0.00  0.00    +0.020 A 
ATOM     26  C   LIG    1       -3.110 -10.254  -2.425  0.00  0.00    +0.050 A 
ATOM     27  C   LIG    1       -3.272 -11.148  -1.384  0.00  0.00    +0.000 A 
ATOM     28  C   LIG    1       -3.062 -10.735  -0.079  0.00  0.00    +0.100 A 
ATOM     29  F   LIG    1       -3.220 -11.608   0.940  0.00  0.00    -0.140 F 
ATOM     30  C   LIG    1       -2.691  -9.427   0.181  0.00  0.00    +0.010 A 
ENDBRANCH  23  24
ENDBRANCH  22  23
ENDBRANCH   2  22
TORSDOF 9
