REMARK  Name = ZINCqH00000369f2.0
REMARK                            x       y       z     vdW  Elec       q    Type
REMARK                         _______ _______ _______ _____ _____    ______ ____
ROOT
ATOM      1  N   LIG    1        2.302   5.484   0.006  0.00  0.00    -0.650 N 
ATOM      2  H   LIG    1        1.452   5.947  -0.058  0.00  0.00    +0.420 HD
ATOM      3  C   LIG    1        3.447   6.188   0.100  0.00  0.00    +0.600 C 
ATOM      4  O   LIG    1        4.517   5.612   0.087  0.00  0.00    -0.450 OA
ENDROOT
BRANCH   1   9
ATOM      5  C   LIG    1        4.888   0.125  -0.035  0.00  0.00    +0.150 A 
ATOM      6  C   LIG    1        4.833   1.500  -0.031  0.00  0.00    -0.010 A 
ATOM      7  C   LIG    1        3.587   2.146  -0.017  0.00  0.00    +0.200 A 
ATOM      8  N   LIG    1        3.504   3.481  -0.012  0.00  0.00    -0.480 NA
ATOM      9  C   LIG    1        2.338   4.094   0.002  0.00  0.00    +0.400 A 
ATOM     10  C   LIG    1        1.134   3.378   0.012  0.00  0.00    -0.070 A 
ATOM     11  C   LIG    1        1.154   2.014   0.007  0.00  0.00    +0.010 A 
ATOM     12  C   LIG    1       -0.128   1.223   0.017  0.00  0.00    +0.120 C 
ATOM     13  C   LIG    1        2.404   1.365  -0.008  0.00  0.00    -0.160 A 
ATOM     14  C   LIG    1        2.494  -0.037  -0.012  0.00  0.00    +0.080 A 
ATOM     15  C   LIG    1        3.715  -0.637  -0.025  0.00  0.00    -0.070 A 
BRANCH   5  17
ATOM     16  C   LIG    1        6.085  -1.928  -0.051  0.00  0.00    +0.250 C 
ATOM     17  O   LIG    1        6.094  -0.499  -0.048  0.00  0.00    -0.310 OA
ENDBRANCH   5  17
ENDBRANCH   1   9
BRANCH   3  18
ATOM     18  C   LIG    1        3.402   7.659   0.219  0.00  0.00    -0.010 A 
ATOM     19  N   LIG    1        2.320   8.415   0.240  0.00  0.00    -0.260 NA
ATOM     20  N   LIG    1        2.648   9.654   0.358  0.00  0.00    -0.370 N 
ATOM     21  H   LIG    1        2.021  10.394   0.393  0.00  0.00    +0.450 HD
ATOM     22  C   LIG    1        3.989   9.774   0.419  0.00  0.00    +0.020 A 
ATOM     23  C   LIG    1        4.786  11.043   0.577  0.00  0.00    +0.110 C 
ATOM     24  C   LIG    1        5.934  11.044  -0.438  0.00  0.00    +0.030 C 
ATOM     25  C   LIG    1        7.159  10.363   0.166  0.00  0.00    +0.010 C 
ATOM     26  C   LIG    1        6.744   9.233   1.106  0.00  0.00    +0.020 C 
ATOM     27  C   LIG    1        5.967   8.171   0.322  0.00  0.00    +0.120 C 
ATOM     28  C   LIG    1        4.506   8.529   0.324  0.00  0.00    -0.130 A 
ENDBRANCH   3  18
TORSDOF 3
