REMARK  Name = ZINCrH000004mZgo.0
REMARK                            x       y       z     vdW  Elec       q    Type
REMARK                         _______ _______ _______ _____ _____    ______ ____
ROOT
ATOM      1  N   LIG    1        2.372  -2.588  -0.923  0.00  0.00    -0.730 N 
ATOM      2  H   LIG    1        3.116  -1.996  -1.111  0.00  0.00    +0.400 HD
ATOM      3  C   LIG    1        2.322  -3.811  -1.489  0.00  0.00    +0.700 C 
ATOM      4  N   LIG    1        3.308  -4.210  -2.317  0.00  0.00    -0.640 N 
ATOM      5  H   LIG    1        4.052  -3.617  -2.506  0.00  0.00    +0.420 HD
ATOM      6  O   LIG    1        1.389  -4.553  -1.252  0.00  0.00    -0.520 OA
ENDROOT
BRANCH   4   7
ATOM      7  C   LIG    1        3.257  -5.470  -2.901  0.00  0.00    +0.280 A 
ATOM      8  N   LIG    1        2.310  -6.336  -2.717  0.00  0.00    -0.470 NA
ATOM      9  C   LIG    1        2.422  -7.488  -3.353  0.00  0.00    +0.250 A 
ATOM     10  C   LIG    1        3.515  -7.600  -4.110  0.00  0.00    -0.230 A 
ATOM     11  S   LIG    1        4.431  -6.101  -3.973  0.00  0.00    +0.130 S 
BRANCH  10  12
ATOM     12  C   LIG    1        3.897  -8.797  -4.941  0.00  0.00    +0.080 C 
ATOM     13  C   LIG    1        5.255  -9.332  -4.476  0.00  0.00    +0.000 C 
ATOM     14  C   LIG    1        5.671 -10.498  -5.376  0.00  0.00    +0.210 C 
ATOM     15  O   LIG    1        5.717 -10.057  -6.734  0.00  0.00    -0.380 OA
ATOM     16  C   LIG    1        4.464  -9.590  -7.239  0.00  0.00    +0.210 C 
ATOM     17  C   LIG    1        3.999  -8.387  -6.414  0.00  0.00    +0.000 C 
ENDBRANCH  10  12
ENDBRANCH   4   7
BRANCH   1  18
ATOM     18  C   LIG    1        1.300  -2.155  -0.022  0.00  0.00    +0.360 C 
BRANCH  18  22
ATOM     19  C   LIG    1        1.187   2.072   0.002  0.00  0.00    +0.320 A 
ATOM     20  C   LIG    1       -0.017   1.380   0.010  0.00  0.00    -0.030 A 
ATOM     21  C   LIG    1        0.002  -0.004   0.002  0.00  0.00    +0.130 A 
ATOM     22  C   LIG    1        1.231  -0.649  -0.013  0.00  0.00    -0.180 A 
ATOM     23  C   LIG    1        2.389   0.103  -0.020  0.00  0.00    +0.300 A 
ATOM     24  N   LIG    1        2.339   1.421  -0.013  0.00  0.00    -0.540 NA
BRANCH  19  26
ATOM     25  C   LIG    1        2.453   4.082   0.000  0.00  0.00    +0.260 C 
ATOM     26  O   LIG    1        1.182   3.429   0.009  0.00  0.00    -0.310 OA
ENDBRANCH  19  26
ENDBRANCH  18  22
BRANCH  18  27
ATOM     27  C   LIG    1        1.587  -2.661   1.393  0.00  0.00    -0.060 C 
ATOM     28  C   LIG    1        2.954  -3.299   1.651  0.00  0.00    +0.010 C 
ATOM     29  C   LIG    1        1.698  -4.173   1.593  0.00  0.00    +0.030 C 
ENDBRANCH  18  27
ENDBRANCH   1  18
TORSDOF 6
