REMARK  Name = ZINCtV00001bB3u3.0
REMARK                            x       y       z     vdW  Elec       q    Type
REMARK                         _______ _______ _______ _____ _____    ______ ____
ROOT
ATOM      1  C   LIG    1       -0.394   8.056   0.319  0.00  0.00    -0.080 A 
ATOM      2  C   LIG    1        0.030   6.743   0.123  0.00  0.00    +0.090 A 
ATOM      3  C   LIG    1       -0.884   5.734   0.032  0.00  0.00    +0.110 A 
ATOM      4  C   LIG    1       -2.253   6.020   0.137  0.00  0.00    -0.050 A 
ATOM      5  C   LIG    1       -2.676   7.344   0.329  0.00  0.00    +0.130 A 
ATOM      6  C   LIG    1       -1.754   8.346   0.423  0.00  0.00    -0.010 A 
ENDROOT
BRANCH   4   7
ATOM      7  C   LIG    1       -3.239   4.941   0.040  0.00  0.00    +0.170 C 
ATOM      8  C   LIG    1       -3.108   3.981  -0.923  0.00  0.00    -0.130 C 
ATOM      9  C   LIG    1       -3.873   2.731  -1.050  0.00  0.00    +0.560 C 
ATOM     10  N   LIG    1       -3.426   2.079  -2.137  0.00  0.00    -0.650 N 
ATOM     11  H   LIG    1       -3.768   1.224  -2.441  0.00  0.00    +0.420 HD
ATOM     12  C   LIG    1       -2.413   2.789  -2.773  0.00  0.00    +0.160 A 
ATOM     13  C   LIG    1       -1.659   2.509  -3.906  0.00  0.00    +0.020 A 
ATOM     14  C   LIG    1       -0.689   3.395  -4.330  0.00  0.00    +0.090 A 
ATOM     15  C   LIG    1       -0.452   4.568  -3.632  0.00  0.00    -0.060 A 
ATOM     16  C   LIG    1       -1.188   4.861  -2.500  0.00  0.00    +0.080 A 
ATOM     17 CL   LIG    1        0.771   5.671  -4.180  0.00  0.00    -0.050 Cl
ATOM     18  O   LIG    1       -4.757   2.352  -0.302  0.00  0.00    -0.490 OA
ATOM     19  C   LIG    1       -2.167   3.973  -2.065  0.00  0.00    -0.110 A 
ENDBRANCH   4   7
BRANCH   6  20
ATOM     20  N   LIG    1       -2.198   9.742   0.631  0.00  0.00    +0.020 N 
ATOM     21  O   LIG    1       -1.376  10.637   0.711  0.00  0.00    -0.110 OA
ATOM     22  O   LIG    1       -3.386   9.996   0.723  0.00  0.00    -0.160 OA
ENDBRANCH   6  20
BRANCH   1  23
ATOM     23  S   LIG    1        0.792   9.354   0.435  0.00  0.00    +0.060 S 
BRANCH  23  28
ATOM     24  C   LIG    1        0.913  10.556   6.349  0.00  0.00    +0.090 C 
ATOM     25  C   LIG    1        0.883  10.257   4.873  0.00  0.00    -0.090 A 
ATOM     26  C   LIG    1        1.744  10.918   4.016  0.00  0.00    +0.030 A 
ATOM     27  C   LIG    1        1.720  10.645   2.663  0.00  0.00    +0.040 A 
ATOM     28  C   LIG    1        0.827   9.705   2.162  0.00  0.00    -0.100 A 
ATOM     29  C   LIG    1       -0.041   9.047   3.024  0.00  0.00    -0.020 A 
ATOM     30  C   LIG    1       -0.007   9.321   4.377  0.00  0.00    +0.020 A 
ENDBRANCH  23  28
ENDBRANCH   1  23
TORSDOF 4
