REMARK  Name = ZINCue00000008jV.0
REMARK                            x       y       z     vdW  Elec       q    Type
REMARK                         _______ _______ _______ _____ _____    ______ ____
ROOT
ATOM      1  C   UNK    1       -2.090  -0.583   1.201  0.00  0.00    +0.020 C 
ENDROOT
BRANCH   1   2
ATOM      2  C   UNK    1       -3.303  -1.515   1.208  0.00  0.00    +0.040 C 
BRANCH   2   3
ATOM      3  C   UNK    1       -4.200  -1.175   2.400  0.00  0.00    +0.060 C 
BRANCH   3   6
ATOM      4  C   UNK    1       -6.181  -0.960   4.416  0.00  0.00    +0.290 C 
ATOM      5  N   UNK    1       -6.328  -1.978   3.373  0.00  0.00    -0.610 N 
ATOM      6  C   UNK    1       -5.395  -2.093   2.407  0.00  0.00    +0.520 C 
ATOM      7  O   UNK    1       -5.518  -2.936   1.544  0.00  0.00    -0.540 OA
BRANCH   5   8
ATOM      8  C   UNK    1       -7.490  -2.870   3.380  0.00  0.00    +0.320 C 
BRANCH   8   9
ATOM      9  C   UNK    1       -7.172  -4.103   4.185  0.00  0.00    +0.510 C 
ATOM     10  N   UNK    1       -8.098  -5.071   4.330  0.00  0.00    -0.620 N 
ATOM     11  C   UNK    1       -9.455  -5.050   3.765  0.00  0.00    +0.240 C 
ATOM     12  C   UNK    1      -10.158  -6.350   4.211  0.00  0.00    +0.030 C 
ATOM     13  C   UNK    1       -9.356  -6.759   5.475  0.00  0.00    +0.040 C 
ATOM     14  C   UNK    1       -7.921  -6.323   5.088  0.00  0.00    +0.250 C 
ATOM     15  O   UNK    1       -6.082  -4.225   4.703  0.00  0.00    -0.530 OA
ENDBRANCH   8   9
ENDBRANCH   5   8
ENDBRANCH   3   6
ENDBRANCH   2   3
ENDBRANCH   1   2
BRANCH   1  16
ATOM     16  C   UNK    1       -1.193  -0.922   0.009  0.00  0.00    +0.130 C 
BRANCH  16  17
ATOM     17  C   UNK    1        0.002  -0.004   0.002  0.00  0.00    -0.020 A 
ATOM     18  C   UNK    1        1.305  -0.371  -0.012  0.00  0.00    +0.140 A 
ATOM     19  N   UNK    1        2.020   0.778  -0.013  0.00  0.00    -0.290 N 
ATOM     20  N   UNK    1        1.195   1.766   0.000  0.00  0.00    -0.050 NA
ATOM     21  N   UNK    1       -0.016   1.333   0.009  0.00  0.00    -0.270 NA
BRANCH  19  22
ATOM     22  C   UNK    1        3.481   0.880  -0.027  0.00  0.00    +0.500 C 
BRANCH  22  23
ATOM     23  C   UNK    1        3.914   1.734  -1.190  0.00  0.00    +0.110 A 
ATOM     24  N   UNK    1        4.071   3.023  -1.159  0.00  0.00    -0.400 NA
ATOM     25  C   UNK    1        4.471   3.439  -2.392  0.00  0.00    -0.050 A 
ATOM     26  C   UNK    1        4.541   2.331  -3.184  0.00  0.00    +0.200 A 
ATOM     27  O   UNK    1        4.193   1.284  -2.422  0.00  0.00    -0.210 OA
BRANCH  25  28
ATOM     28  C   UNK    1        4.766   4.822  -2.796  0.00  0.00    +0.560 C 
ATOM     29  O   UNK    1        4.664   5.731  -1.983  0.00  0.00    -0.660 OA
ATOM     30  O   UNK    1        5.113   5.063  -3.944  0.00  0.00    -0.680 OA
ENDBRANCH  25  28
ENDBRANCH  22  23
ENDBRANCH  19  22
ENDBRANCH  16  17
ENDBRANCH   1  16
TORSDOF 10
