REMARK  Name = ZINCrD00000463DK.0
REMARK                            x       y       z     vdW  Elec       q    Type
REMARK                         _______ _______ _______ _____ _____    ______ ____
ROOT
ATOM      1  C   LIG    1       -3.252   3.848   1.053  0.00  0.00    -0.020 C 
ATOM      2  C   LIG    1       -2.340   4.249  -0.111  0.00  0.00    +0.040 C 
ATOM      3  C   LIG    1       -0.999   3.526   0.026  0.00  0.00    +0.210 C 
ATOM      4  N   LIG    1       -1.221   2.074   0.019  0.00  0.00    -0.470 N 
ATOM      5  C   LIG    1       -2.055   1.659   1.155  0.00  0.00    +0.200 C 
ATOM      6  C   LIG    1       -3.428   2.327   1.052  0.00  0.00    +0.060 C 
ENDROOT
BRANCH   4   7
ATOM      7  C   LIG    1       -0.017   1.387   0.010  0.00  0.00    +0.370 A 
ATOM      8  C   LIG    1        0.002  -0.004   0.002  0.00  0.00    -0.110 A 
ATOM      9  C   LIG    1        1.237  -0.646  -0.013  0.00  0.00    +0.370 A 
ATOM     10  N   LIG    1        2.347   0.088  -0.020  0.00  0.00    -0.580 NA
ATOM     11  C   LIG    1        2.288   1.404  -0.012  0.00  0.00    +0.550 A 
ATOM     12  N   LIG    1        1.139   2.049   0.002  0.00  0.00    -0.570 NA
BRANCH   9  13
ATOM     13  N   LIG    1        1.309  -2.031  -0.022  0.00  0.00    -0.470 N 
ATOM     14  C   LIG    1        0.588  -2.603   1.125  0.00  0.00    +0.180 C 
ATOM     15  C   LIG    1        0.643  -4.131   1.043  0.00  0.00    +0.240 C 
ATOM     16  O   LIG    1        2.008  -4.553   0.998  0.00  0.00    -0.380 OA
ATOM     17  C   LIG    1        2.740  -4.014  -0.107  0.00  0.00    +0.230 C 
ATOM     18  C   LIG    1        2.707  -2.485  -0.037  0.00  0.00    +0.190 C 
ENDBRANCH   9  13
ENDBRANCH   4   7
BRANCH   1  19
ATOM     19  C   LIG    1       -4.616   4.521   0.889  0.00  0.00    +0.250 C 
ATOM     20  F   LIG    1       -5.244   4.028  -0.260  0.00  0.00    -0.200 F 
BRANCH  19  27
ATOM     21  F   LIG    1       -6.154   2.172   1.129  0.00  0.00    -0.130 F 
ATOM     22  C   LIG    1       -6.204   3.052   2.153  0.00  0.00    +0.120 A 
ATOM     23  C   LIG    1       -6.988   2.782   3.262  0.00  0.00    -0.020 A 
ATOM     24  C   LIG    1       -7.037   3.683   4.309  0.00  0.00    +0.060 A 
ATOM     25  C   LIG    1       -6.305   4.853   4.249  0.00  0.00    +0.000 A 
ATOM     26  C   LIG    1       -5.516   5.122   3.146  0.00  0.00    +0.060 A 
ATOM     27  C   LIG    1       -5.470   4.225   2.095  0.00  0.00    -0.160 A 
ENDBRANCH  19  27
ENDBRANCH   1  19
TORSDOF 4
