REMARK  Name = ZINCrD00000jf32P.0
REMARK                            x       y       z     vdW  Elec       q    Type
REMARK                         _______ _______ _______ _____ _____    ______ ____
ROOT
ATOM      1  C   LIG    1        4.176  -0.329  -0.042  0.00  0.00    +0.520 C 
ATOM      2  N   LIG    1        3.455   0.810  -0.028  0.00  0.00    -0.620 N 
ATOM      3  H   LIG    1        3.906   1.669  -0.027  0.00  0.00    +0.430 HD
ATOM      4  O   LIG    1        3.613  -1.403  -0.042  0.00  0.00    -0.520 OA
ENDROOT
BRANCH   1   9
ATOM      5  O   LIG    1        7.922  -2.941   0.100  0.00  0.00    -0.510 OA
ATOM      6  C   LIG    1        7.276  -1.927   0.258  0.00  0.00    +0.530 C 
ATOM      7  C   LIG    1        7.522  -0.903   1.344  0.00  0.00    +0.090 C 
ATOM      8  C   LIG    1        6.223  -0.065   1.376  0.00  0.00    +0.060 C 
ATOM      9  C   LIG    1        5.682  -0.267  -0.057  0.00  0.00    +0.250 C 
ATOM     10  N   LIG    1        6.237  -1.549  -0.508  0.00  0.00    -0.710 N 
ATOM     11  H   LIG    1        5.899  -2.057  -1.261  0.00  0.00    +0.420 HD
BRANCH   8  12
ATOM     12  C   LIG    1        6.525   1.388   1.638  0.00  0.00    -0.080 A 
ATOM     13  C   LIG    1        5.875   2.056   2.659  0.00  0.00    +0.030 A 
ATOM     14  C   LIG    1        6.152   3.389   2.901  0.00  0.00    +0.040 A 
ATOM     15  C   LIG    1        7.079   4.054   2.121  0.00  0.00    +0.040 A 
ATOM     16  C   LIG    1        7.730   3.386   1.099  0.00  0.00    -0.030 A 
ATOM     17 CL   LIG    1        8.895   4.222   0.120  0.00  0.00    -0.060 Cl
ATOM     18  C   LIG    1        7.457   2.051   0.862  0.00  0.00    +0.030 A 
ENDBRANCH   8  12
ENDBRANCH   1   9
BRANCH   2  19
ATOM     19  C   LIG    1        2.068   0.754  -0.014  0.00  0.00    +0.430 A 
ATOM     20  N   LIG    1        1.262   1.787  -0.000  0.00  0.00    -0.490 NA
ATOM     21  C   LIG    1       -0.016   1.353   0.009  0.00  0.00    +0.060 A 
ATOM     22  C   LIG    1        0.002  -0.004   0.002  0.00  0.00    +0.160 A 
ATOM     23  N   LIG    1        1.321  -0.383  -0.013  0.00  0.00    -0.560 N 
ATOM     24  H   LIG    1        1.657  -1.293  -0.020  0.00  0.00    +0.430 HD
BRANCH  21  25
ATOM     25  C   LIG    1       -1.228   2.209   0.020  0.00  0.00    -0.000 A 
ATOM     26  C   LIG    1       -2.495   1.628   0.017  0.00  0.00    +0.010 A 
ATOM     27  C   LIG    1       -3.618   2.429   0.033  0.00  0.00    +0.000 A 
ATOM     28  C   LIG    1       -3.489   3.806   0.040  0.00  0.00    +0.000 A 
ATOM     29  C   LIG    1       -2.234   4.388   0.037  0.00  0.00    +0.000 A 
ATOM     30  C   LIG    1       -1.104   3.597   0.027  0.00  0.00    +0.040 A 
ENDBRANCH  21  25
ENDBRANCH   2  19
TORSDOF 4
