REMARK  Name = ZINCah0000002oRu.0
REMARK                            x       y       z     vdW  Elec       q    Type
REMARK                         _______ _______ _______ _____ _____    ______ ____
ROOT
ATOM      1  N   LIG    1        1.397   3.520   0.008  0.00  0.00    -0.360 N 
ATOM      2  C   LIG    1        2.019   4.307   0.898  0.00  0.00    +0.310 A 
ATOM      3  C   LIG    1        1.748   5.619   0.551  0.00  0.00    -0.350 A 
ATOM      4  C   LIG    1        0.926   5.583  -0.601  0.00  0.00    +0.290 A 
ATOM      5  N   LIG    1        0.730   4.333  -0.916  0.00  0.00    -0.300 NA
ENDROOT
BRANCH   3   6
ATOM      6  C   LIG    1        2.223   6.821   1.245  0.00  0.00    +0.510 C 
ATOM      7  O   LIG    1        1.913   7.920   0.837  0.00  0.00    -0.470 OA
ENDBRANCH   3   6
BRANCH   1   8
ATOM      8  C   LIG    1        1.417   2.055  -0.000  0.00  0.00    +0.320 C 
BRANCH   8  10
ATOM      9  C   LIG    1        0.002  -0.004   0.002  0.00  0.00    +0.030 C 
ATOM     10  C   LIG    1       -0.019   1.526   0.010  0.00  0.00    +0.010 C 
ENDBRANCH   8  10
ENDBRANCH   1   8
TORSDOF 3
