REMARK  Name = ZINCpk00000k0lKG.0
REMARK                            x       y       z     vdW  Elec       q    Type
REMARK                         _______ _______ _______ _____ _____    ______ ____
ROOT
ATOM      1  C   LIG    1       -2.205  -5.576   2.911  0.00  0.00    +0.340 C 
ATOM      2  N   LIG    1       -3.475  -4.859   3.057  0.00  0.00    -0.490 N 
ATOM      3  C   LIG    1       -4.582  -5.481   3.597  0.00  0.00    +0.120 A 
ATOM      4  C   LIG    1       -4.705  -6.795   4.071  0.00  0.00    +0.010 A 
ATOM      5  C   LIG    1       -5.900  -7.246   4.582  0.00  0.00    +0.070 A 
ATOM      6  C   LIG    1       -7.006  -6.415   4.640  0.00  0.00    +0.020 A 
ATOM      7  C   LIG    1       -6.907  -5.117   4.180  0.00  0.00    +0.100 A 
ATOM      8  C   LIG    1       -5.708  -4.657   3.664  0.00  0.00    -0.220 A 
ATOM      9  S   LIG    1       -5.211  -3.095   3.003  0.00  0.00    +0.280 S 
ATOM     10  C   LIG    1       -3.594  -3.574   2.666  0.00  0.00    +0.220 A 
ATOM     11  C   LIG    1       -2.586  -2.775   2.097  0.00  0.00    -0.270 C 
ENDROOT
BRANCH  11  12
ATOM     12  C   LIG    1       -2.823  -1.412   1.853  0.00  0.00    +0.420 C 
ATOM     13  O   LIG    1       -3.900  -0.923   2.135  0.00  0.00    -0.450 OA
BRANCH  12  14
ATOM     14  C   LIG    1       -1.743  -0.556   1.244  0.00  0.00    +0.180 C 
BRANCH  14  15
ATOM     15  N   LIG    1       -2.182   0.845   1.224  0.00  0.00    -0.470 NA
ATOM     16  C   LIG    1       -1.240   1.683   0.458  0.00  0.00    +0.280 C 
ATOM     17  C   LIG    1        0.121   1.595   1.106  0.00  0.00    +0.480 C 
ATOM     18  N   LIG    1        0.234   1.669   2.472  0.00  0.00    -0.600 N 
ATOM     19  C   LIG    1       -0.998   1.828   3.255  0.00  0.00    +0.170 C 
ATOM     20  C   LIG    1       -1.698   0.551   3.725  0.00  0.00    +0.020 C 
ATOM     21  C   LIG    1        1.535   1.606   3.142  0.00  0.00    +0.290 C 
ATOM     22  O   LIG    1        1.116   1.458   0.425  0.00  0.00    -0.530 OA
ATOM     23  C   LIG    1       -2.310   1.379   2.594  0.00  0.00    +0.190 C 
ENDBRANCH  14  15
ENDBRANCH  12  14
ENDBRANCH  11  12
BRANCH  11  24
ATOM     24  C   LIG    1       -1.317  -3.351   1.766  0.00  0.00    +0.270 C 
ATOM     25  N   LIG    1       -0.311  -3.808   1.503  0.00  0.00    -0.440 NA
ENDBRANCH  11  24
TORSDOF 4
