REMARK  Name = ZINCkj000005j5mL.0
REMARK                            x       y       z     vdW  Elec       q    Type
REMARK                         _______ _______ _______ _____ _____    ______ ____
ROOT
ATOM      1  C   UNK A  0       -5.301   3.016   1.482  0.00  0.00    +0.240 C 
ATOM      2  C   UNK A  0       -4.824   2.468   2.829  0.00  0.00    +0.030 C 
ENDROOT
BRANCH   1   3
ATOM      3  C   UNK A  0       -4.555   4.314   1.167  0.00  0.00    +0.000 C 
ATOM      4  C   UNK A  0       -5.031   4.864  -0.181  0.00  0.00    +0.050 C 
ATOM      5  C   UNK A  0       -4.678   3.861  -1.283  0.00  0.00    +0.050 C 
ATOM      6  C   UNK A  0       -3.170   3.600  -1.264  0.00  0.00    +0.250 C 
ATOM      7  N   UNK A  0       -2.782   3.052   0.041  0.00  0.00    -0.380 N 
ATOM      8  H   UNK A  0       -3.312   2.213   0.224  0.00  0.00    +0.420 HD
ATOM      9  C   UNK A  0       -3.052   4.037   1.096  0.00  0.00    +0.270 C 
BRANCH   7  10
ATOM     10  C   UNK A  0       -1.349   2.730   0.028  0.00  0.00    +0.150 C 
ATOM     11  C   UNK A  0       -0.959   1.695  -1.040  0.00  0.00    +0.050 C 
ATOM     12  C   UNK A  0       -0.013   1.086   0.008  0.00  0.00    +0.070 C 
ATOM     13  C   UNK A  0       -0.939   1.683   1.080  0.00  0.00    +0.050 C 
ENDBRANCH   7  10
ENDBRANCH   1   3
BRANCH   1  17
ATOM     14  N   ALA A  1       -8.944   2.537   1.365  0.00  0.00    -0.730 N 
ATOM     15  H   ALA A  1       -9.263   3.428   1.579  0.00  0.00    +0.400 HD
ATOM     16  C   UNK A  0       -7.620   2.291   1.307  0.00  0.00    +0.710 C 
ATOM     17  N   UNK A  0       -6.740   3.283   1.546  0.00  0.00    -0.740 N 
ATOM     18  H   UNK A  0       -7.059   4.174   1.759  0.00  0.00    +0.400 HD
ATOM     19  O   UNK A  0       -7.220   1.175   1.039  0.00  0.00    -0.590 OA
BRANCH  14  21
ATOM     20  CB  ALA A  1      -10.140   0.668   2.394  0.00  0.00    +0.040 C 
ATOM     21  CA  ALA A  1       -9.901   1.458   1.106  0.00  0.00    +0.260 C 
BRANCH  21  22
ATOM     22  C   ALA A  1      -11.224   2.056   0.622  0.00  0.00    +0.180 C 
BRANCH  22  23
ATOM     23  O   ALA A  1      -11.806   2.835   1.669  0.00  0.00    -0.570 OA
ATOM     24  H   ALA A  1      -12.649   3.245   1.431  0.00  0.00    +0.390 HD
ENDBRANCH  22  23
ENDBRANCH  21  22
ENDBRANCH  14  21
ENDBRANCH   1  17
TORSDOF 6
