REMARK  Name = ZINCkj000005j5mL.1
REMARK                            x       y       z     vdW  Elec       q    Type
REMARK                         _______ _______ _______ _____ _____    ______ ____
ROOT
ATOM      1  C   UNK A  0       -0.013   1.086   0.008  0.00  0.00    +0.270 C 
ATOM      2  C   UNK A  0       -0.729   1.579   1.267  0.00  0.00    +0.020 C 
ENDROOT
BRANCH   1   3
ATOM      3  C   UNK A  0        1.423   1.615  -0.003  0.00  0.00    -0.020 C 
ATOM      4  C   UNK A  0        2.140   1.122  -1.262  0.00  0.00    +0.040 C 
ATOM      5  C   UNK A  0        3.597   1.592  -1.225  0.00  0.00    +0.060 C 
ATOM      6  C   UNK A  0        4.259   1.082   0.057  0.00  0.00    +0.250 C 
ATOM      7  N   UNK A  0        3.543   1.609   1.225  0.00  0.00    -0.370 N 
ATOM      8  H   UNK A  0        3.530   2.617   1.183  0.00  0.00    +0.420 HD
ATOM      9  C   UNK A  0        2.165   1.105   1.234  0.00  0.00    +0.270 C 
BRANCH   7  10
ATOM     10  C   UNK A  0        4.228   1.181   2.451  0.00  0.00    +0.150 C 
ATOM     11  C   UNK A  0        3.902   2.052   3.676  0.00  0.00    +0.050 C 
ATOM     12  C   UNK A  0        5.389   1.933   4.057  0.00  0.00    +0.070 C 
ATOM     13  C   UNK A  0        5.672   1.698   2.564  0.00  0.00    +0.050 C 
ENDBRANCH   7  10
ENDBRANCH   1   3
BRANCH   1  17
ATOM     14  N   ALA A  1       -2.425   1.329  -2.756  0.00  0.00    -0.730 N 
ATOM     15  H   ALA A  1       -2.137   2.146  -3.193  0.00  0.00    +0.400 HD
ATOM     16  C   UNK A  0       -1.773   0.883  -1.664  0.00  0.00    +0.710 C 
ATOM     17  N   UNK A  0       -0.721   1.571  -1.179  0.00  0.00    -0.750 N 
ATOM     18  H   UNK A  0       -0.433   2.388  -1.615  0.00  0.00    +0.400 HD
ATOM     19  O   UNK A  0       -2.135  -0.141  -1.117  0.00  0.00    -0.580 OA
BRANCH  14  21
ATOM     20  CB  ALA A  1       -4.838   0.996  -2.536  0.00  0.00    +0.040 C 
ATOM     21  CA  ALA A  1       -3.569   0.581  -3.283  0.00  0.00    +0.260 C 
BRANCH  21  22
ATOM     22  C   ALA A  1       -3.733   0.883  -4.774  0.00  0.00    +0.190 C 
BRANCH  22  23
ATOM     23  O   ALA A  1       -4.071   2.261  -4.946  0.00  0.00    -0.570 OA
ATOM     24  H   ALA A  1       -4.190   2.524  -5.869  0.00  0.00    +0.390 HD
ENDBRANCH  22  23
ENDBRANCH  21  22
ENDBRANCH  14  21
ENDBRANCH   1  17
TORSDOF 6
