REMARK  Name = ZINCrD000000Cxrv.0
REMARK                            x       y       z     vdW  Elec       q    Type
REMARK                         _______ _______ _______ _____ _____    ______ ____
ROOT
ATOM      1  O   LIG    1       -2.286  -0.443   0.116  0.00  0.00    -0.530 OA
ATOM      2  C   LIG    1       -1.165  -0.902   0.008  0.00  0.00    +0.600 C 
ATOM      3  N   LIG    1       -0.991  -2.234  -0.103  0.00  0.00    -0.600 N 
ATOM      4  C   LIG    1        0.359  -2.813  -0.126  0.00  0.00    +0.270 C 
ATOM      5  C   LIG    1        0.446  -3.896   0.961  0.00  0.00    +0.020 C 
ATOM      6  C   LIG    1       -0.678  -4.913   0.749  0.00  0.00    +0.240 C 
ATOM      7  C   LIG    1       -2.033  -4.213   0.874  0.00  0.00    +0.020 C 
ATOM      8  C   LIG    1       -2.147  -3.134  -0.208  0.00  0.00    +0.290 C 
ENDROOT
BRANCH   6   9
ATOM      9  N   LIG    1       -0.578  -5.968   1.761  0.00  0.00    -0.600 N 
ATOM     10  C   LIG    1       -0.392  -7.339   1.303  0.00  0.00    +0.260 C 
ATOM     11  C   LIG    1        0.158  -8.210   2.436  0.00  0.00    +0.020 C 
ATOM     12  C   LIG    1       -0.726  -8.014   3.674  0.00  0.00    +0.020 C 
ATOM     13  C   LIG    1       -0.536  -6.583   4.183  0.00  0.00    +0.060 C 
ATOM     14  C   LIG    1       -0.669  -5.614   3.043  0.00  0.00    +0.520 C 
ATOM     15  O   LIG    1       -0.871  -4.446   3.304  0.00  0.00    -0.540 OA
ENDBRANCH   6   9
BRANCH   2  16
ATOM     16  C   LIG    1        0.002  -0.004  -0.003  0.00  0.00    -0.270 A 
ATOM     17  C   LIG    1        0.965   0.089  -0.986  0.00  0.00    +0.290 A 
ATOM     18  N   LIG    1        1.849   1.026  -0.611  0.00  0.00    -0.460 N 
ATOM     19  H   LIG    1        2.630   1.293  -1.120  0.00  0.00    +0.450 HD
ATOM     20  N   LIG    1        1.473   1.558   0.626  0.00  0.00    -0.270 NA
ATOM     21  C   LIG    1        0.369   0.971   1.029  0.00  0.00    +0.170 A 
BRANCH  21  22
ATOM     22  C   LIG    1       -0.367   1.245   2.286  0.00  0.00    -0.030 A 
ATOM     23  C   LIG    1       -1.760   1.182   2.309  0.00  0.00    +0.090 A 
ATOM     24  C   LIG    1       -2.441   1.432   3.482  0.00  0.00    +0.030 A 
ATOM     25  C   LIG    1       -1.744   1.757   4.634  0.00  0.00    -0.020 A 
ATOM     26  C   LIG    1       -0.361   1.826   4.616  0.00  0.00    +0.020 A 
ATOM     27 CL   LIG    1       -2.606   2.078   6.106  0.00  0.00    -0.070 Cl
ATOM     28  C   LIG    1        0.330   1.572   3.448  0.00  0.00    +0.070 A 
ENDBRANCH  21  22
ENDBRANCH   2  16
TORSDOF 3
