REMARK  Name = ZINCpk00000y6uee.0
REMARK                            x       y       z     vdW  Elec       q    Type
REMARK                         _______ _______ _______ _____ _____    ______ ____
ROOT
ATOM      1  C   LIG    1       -4.452   9.197   1.515  0.00  0.00    +0.270 C 
ATOM      2  C   LIG    1       -4.632   8.271   0.308  0.00  0.00    +0.330 C 
ATOM      3  N   LIG    1       -3.432   7.431   0.179  0.00  0.00    -0.610 N 
ATOM      4  C   LIG    1       -2.118   8.092   0.178  0.00  0.00    +0.290 C 
ATOM      5  C   LIG    1       -2.036   9.025   1.385  0.00  0.00    +0.190 C 
ATOM      6  C   LIG    1       -3.533   6.091   0.070  0.00  0.00    +0.570 C 
ATOM      7  O   LIG    1       -4.628   5.568   0.008  0.00  0.00    -0.510 OA
ATOM      8  N   LIG    1       -3.189   9.935   1.377  0.00  0.00    -0.530 NA
ATOM      9  C   LIG    1       -3.060  10.957   2.424  0.00  0.00    +0.210 C 
ENDROOT
BRANCH   6  10
ATOM     10  C   LIG    1       -2.311   5.259   0.026  0.00  0.00    -0.160 A 
ATOM     11  C   LIG    1       -1.270   5.588  -0.834  0.00  0.00    +0.120 A 
ATOM     12  C   LIG    1       -0.135   4.761  -0.833  0.00  0.00    -0.080 A 
ATOM     13  C   LIG    1        0.972   5.011  -1.662  0.00  0.00    +0.010 A 
ATOM     14  C   LIG    1        2.035   4.158  -1.607  0.00  0.00    +0.240 A 
ATOM     15  N   LIG    1        2.050   3.115  -0.790  0.00  0.00    -0.470 NA
ATOM     16  C   LIG    1        1.054   2.826   0.013  0.00  0.00    +0.350 A 
ATOM     17  C   LIG    1       -0.094   3.638   0.033  0.00  0.00    +0.080 A 
ATOM     18  N   LIG    1       -1.126   3.373   0.838  0.00  0.00    -0.450 NA
ATOM     19  C   LIG    1       -2.194   4.128   0.855  0.00  0.00    +0.350 A 
ENDBRANCH   6  10
BRANCH   1  24
ATOM     20  C   LIG    1       -8.665  11.591   2.775  0.00  0.00    +0.200 C 
ATOM     21  C   LIG    1       -7.378  11.192   2.100  0.00  0.00    +0.170 A 
ATOM     22  N   LIG    1       -6.808  11.807   1.108  0.00  0.00    -0.380 NA
ATOM     23  O   LIG    1       -5.785  11.236   0.793  0.00  0.00    +0.100 OA
ATOM     24  C   LIG    1       -5.600  10.171   1.579  0.00  0.00    +0.190 A 
ATOM     25  N   LIG    1       -6.612  10.131   2.411  0.00  0.00    -0.470 NA
ENDBRANCH   1  24
TORSDOF 2
