REMARK  Name = ZINCtj00000oNkiC.0
REMARK                            x       y       z     vdW  Elec       q    Type
REMARK                         _______ _______ _______ _____ _____    ______ ____
ROOT
ATOM      1  C   LIG    1        0.524  -0.678  -1.062  0.00  0.00    +0.730 C 
ENDROOT
BRANCH   1   2
ATOM      2  N   LIG    1        0.390  -2.046  -1.109  0.00  0.00    -0.590 NA
ATOM      3  C   LIG    1       -0.294  -2.774  -0.030  0.00  0.00    +0.320 C 
ATOM      4  C   LIG    1       -1.359  -3.685  -0.662  0.00  0.00    +0.210 C 
ATOM      5  N   LIG    1       -0.727  -4.534  -1.680  0.00  0.00    -0.470 N 
ATOM      6  C   LIG    1       -0.176  -3.729  -2.779  0.00  0.00    +0.230 C 
ATOM      7  C   LIG    1        0.931  -2.820  -2.236  0.00  0.00    +0.320 C 
BRANCH   5   8
ATOM      8  C   LIG    1       -1.619  -5.487  -2.159  0.00  0.00    +0.300 A 
ATOM      9  C   LIG    1       -2.244  -6.354  -1.269  0.00  0.00    -0.040 A 
ATOM     10  C   LIG    1       -3.134  -7.294  -1.759  0.00  0.00    +0.090 A 
ATOM     11  C   LIG    1       -3.361  -7.341  -3.128  0.00  0.00    -0.050 A 
ATOM     12  C   LIG    1       -2.702  -6.452  -3.954  0.00  0.00    +0.290 A 
ATOM     13  N   LIG    1       -1.862  -5.563  -3.458  0.00  0.00    -0.520 NA
ENDBRANCH   5   8
ENDBRANCH   1   2
BRANCH   1  14
ATOM     14  N   LIG    1        1.049  -0.041  -2.071  0.00  0.00    -0.660 NA
ATOM     15  H   LIG    1        1.442  -0.536  -2.807  0.00  0.00    +0.440 HD
BRANCH  14  16
ATOM     16  C   LIG    1        1.044   1.424  -2.094  0.00  0.00    +0.290 C 
BRANCH  16  17
ATOM     17  C   LIG    1        1.635   1.916  -3.417  0.00  0.00    +0.040 C 
BRANCH  17  18
ATOM     18  C   LIG    1        1.630   3.446  -3.440  0.00  0.00    +0.180 C 
BRANCH  18  19
ATOM     19  O   LIG    1        2.182   3.905  -4.676  0.00  0.00    -0.380 OA
BRANCH  19  21
ATOM     20  C   LIG    1        3.554   5.848  -4.254  0.00  0.00    +0.010 C 
ATOM     21  C   LIG    1        2.224   5.327  -4.801  0.00  0.00    +0.140 C 
ATOM     22  C   LIG    1        2.092   5.714  -6.275  0.00  0.00    +0.050 C 
ENDBRANCH  19  21
ENDBRANCH  18  19
ENDBRANCH  17  18
ENDBRANCH  16  17
ENDBRANCH  14  16
ENDBRANCH   1  14
BRANCH   1  23
ATOM     23  N   LIG    1        0.106   0.016   0.048  0.00  0.00    -0.690 NA
ATOM     24  H   LIG    1       -0.188  -0.464   0.838  0.00  0.00    +0.440 HD
BRANCH  23  25
ATOM     25  C   LIG    1        0.104   1.481   0.038  0.00  0.00    +0.310 C 
BRANCH  25  26
ATOM     26  C   LIG    1       -0.486   2.000   1.350  0.00  0.00    +0.120 C 
ATOM     27  C   LIG    1       -0.597   3.526   1.294  0.00  0.00    +0.210 C 
ATOM     28  O   LIG    1       -1.044   4.011   2.564  0.00  0.00    -0.370 OA
ATOM     29  C   LIG    1       -0.190   3.642   3.651  0.00  0.00    +0.210 C 
ATOM     30  C   LIG    1       -0.080   2.115   3.707  0.00  0.00    +0.220 C 
ATOM     31  O   LIG    1        0.367   1.630   2.438  0.00  0.00    -0.380 OA
ENDBRANCH  25  26
ENDBRANCH  23  25
ENDBRANCH   1  23
TORSDOF 11
