REMARK  Name = ZINCzw0000000dQs.0
REMARK                            x       y       z     vdW  Elec       q    Type
REMARK                         _______ _______ _______ _____ _____    ______ ____
ROOT
ATOM      1  C   LIG    1        2.391   6.315  -2.870  0.00  0.00    +0.220 C 
ENDROOT
BRANCH   1   2
ATOM      2  O   LIG    1        3.332   7.271  -2.378  0.00  0.00    -0.540 OA
ATOM      3  H   LIG    1        4.256   7.016  -2.508  0.00  0.00    +0.390 HD
ENDBRANCH   1   2
BRANCH   1   4
ATOM      4  C   LIG    1        2.597   4.979  -2.153  0.00  0.00    +0.170 C 
BRANCH   4   5
ATOM      5  O   LIG    1        2.291   5.131  -0.766  0.00  0.00    -0.360 OA
BRANCH   5   6
ATOM      6  C   LIG    1        2.452   3.935  -0.001  0.00  0.00    +0.270 C 
BRANCH   6  10
ATOM      7  C   LIG    1       -1.223   1.754   0.017  0.00  0.00    +0.140 A 
ATOM      8  C   LIG    1       -0.013   1.076   0.008  0.00  0.00    -0.020 A 
ATOM      9  C   LIG    1        1.174   1.783   0.000  0.00  0.00    +0.060 A 
ATOM     10  C   LIG    1        1.156   3.166   0.008  0.00  0.00    -0.160 A 
ATOM     11  C   LIG    1       -0.049   3.844   0.023  0.00  0.00    +0.080 A 
ATOM     12  C   LIG    1       -1.238   3.141   0.030  0.00  0.00    -0.080 A 
BRANCH   7  14
ATOM     13  C   LIG    1       -3.599   1.824   0.029  0.00  0.00    +0.250 C 
ATOM     14  O   LIG    1       -2.392   1.060   0.019  0.00  0.00    -0.320 OA
ENDBRANCH   7  14
ENDBRANCH   6  10
BRANCH   6  15
ATOM     15  C   LIG    1        2.834   4.291   1.413  0.00  0.00    -0.130 A 
ATOM     16  C   LIG    1        2.241   5.373   2.037  0.00  0.00    +0.080 A 
ATOM     17  C   LIG    1        2.586   5.698   3.334  0.00  0.00    -0.080 A 
ATOM     18  C   LIG    1        3.536   4.945   4.008  0.00  0.00    +0.140 A 
ATOM     19  C   LIG    1        4.133   3.862   3.378  0.00  0.00    -0.010 A 
ATOM     20  C   LIG    1        3.781   3.538   2.082  0.00  0.00    +0.060 A 
BRANCH  18  21
ATOM     21  O   LIG    1        3.881   5.266   5.282  0.00  0.00    -0.320 OA
ATOM     22  C   LIG    1        3.226   6.393   5.867  0.00  0.00    +0.250 C 
ENDBRANCH  18  21
ENDBRANCH   6  15
ENDBRANCH   5   6
ENDBRANCH   4   5
ENDBRANCH   1   4
BRANCH   1  23
ATOM     23  C   LIG    1        2.598   6.124  -4.374  0.00  0.00    +0.250 C 
BRANCH  23  24
ATOM     24  N   LIG    1        2.400   7.406  -5.063  0.00  0.00    -0.500 N 
ATOM     25  H   LIG    1        3.065   8.081  -4.715  0.00  0.00    +0.430 HD
ATOM     26  H   LIG    1        1.463   7.738  -4.892  0.00  0.00    +0.430 HD
BRANCH  24  27
ATOM     27  C   LIG    1        2.599   7.223  -6.507  0.00  0.00    +0.270 C 
BRANCH  27  28
ATOM     28  C   LIG    1        2.393   8.558  -7.224  0.00  0.00    +0.090 C 
BRANCH  28  29
ATOM     29  C   LIG    1        2.597   8.370  -8.705  0.00  0.00    -0.050 A 
ATOM     30  C   LIG    1        3.853   8.538  -9.257  0.00  0.00    +0.010 A 
ATOM     31  C   LIG    1        4.042   8.360 -10.614  0.00  0.00    +0.140 A 
ATOM     32  C   LIG    1        2.971   8.025 -11.422  0.00  0.00    -0.660 A 
ATOM     33  C   LIG    1        1.714   7.862 -10.872  0.00  0.00    +0.140 A 
ATOM     34  C   LIG    1        1.527   8.035  -9.513  0.00  0.00    +0.010 A 
BRANCH  32  35
ATOM     35  S   LIG    1        3.210   7.806 -13.154  0.00  0.00    +2.700 S 
ATOM     36  O   LIG    1        2.153   6.968 -13.602  0.00  0.00    -0.960 OA
ATOM     37  O   LIG    1        4.583   7.487 -13.333  0.00  0.00    -0.960 OA
BRANCH  35  38
ATOM     38  N   LIG    1        2.974   9.280 -13.872  0.00  0.00    -1.250 NA
ATOM     39  H   LIG    1        3.061   9.370 -14.834  0.00  0.00    +0.430 HD
ATOM     40  H   LIG    1        2.749  10.052 -13.331  0.00  0.00    +0.420 HD
ENDBRANCH  35  38
ENDBRANCH  32  35
ENDBRANCH  28  29
ENDBRANCH  27  28
ENDBRANCH  24  27
ENDBRANCH  23  24
ENDBRANCH   1  23
TORSDOF 15
