REMARK  Name = ZINCpe00000FUpqa.0
REMARK                            x       y       z     vdW  Elec       q    Type
REMARK                         _______ _______ _______ _____ _____    ______ ____
ROOT
ATOM      1  O   LIG    1        0.020   0.269   2.346  0.00  0.00    -0.450 OA
ATOM      2  C   LIG    1        0.022  -0.514   1.420  0.00  0.00    +0.410 C 
ENDROOT
BRANCH   2   3
ATOM      3  C   LIG    1        0.044  -1.957   1.680  0.00  0.00    -0.260 A 
ATOM      4  C   LIG    1        0.043  -2.966   0.730  0.00  0.00    +0.280 A 
ATOM      5  N   LIG    1        0.071  -4.146   1.367  0.00  0.00    -0.530 N 
ATOM      6  H   LIG    1        0.078  -5.016   0.938  0.00  0.00    +0.420 HD
ATOM      7  C   LIG    1        0.080  -3.928   2.728  0.00  0.00    -0.060 A 
ATOM      8  C   LIG    1        0.064  -2.584   2.949  0.00  0.00    +0.120 A 
BRANCH   7   9
ATOM      9  C   LIG    1        0.104  -4.968   3.764  0.00  0.00    +0.600 C 
ATOM     10  N   LIG    1        0.119  -6.269   3.413  0.00  0.00    -0.620 N 
ATOM     11  C   LIG    1        0.106  -6.785   2.036  0.00  0.00    +0.220 C 
ATOM     12  C   LIG    1        0.106  -8.326   2.124  0.00  0.00    +0.040 C 
ATOM     13  C   LIG    1       -0.462  -8.591   3.544  0.00  0.00    +0.040 C 
ATOM     14  C   LIG    1        0.143  -7.411   4.345  0.00  0.00    +0.260 C 
ATOM     15  O   LIG    1        0.111  -4.656   4.940  0.00  0.00    -0.520 OA
ENDBRANCH   7   9
ENDBRANCH   2   3
BRANCH   2  16
ATOM     16  C   LIG    1        0.002  -0.004   0.002  0.00  0.00    +0.340 C 
BRANCH  16  17
ATOM     17  N   LIG    1       -0.018   1.461   0.010  0.00  0.00    -0.570 N 
ATOM     18  C   LIG    1       -1.145   2.206   0.019  0.00  0.00    +0.530 C 
ATOM     19  C   LIG    1       -0.679   3.635  -0.095  0.00  0.00    +0.180 C 
ATOM     20  C   LIG    1       -1.153   4.501   1.089  0.00  0.00    +0.070 C 
ATOM     21  C   LIG    1       -0.010   5.543   1.211  0.00  0.00    +0.040 C 
ATOM     22  C   LIG    1        1.209   4.876   0.537  0.00  0.00    +0.330 C 
ATOM     23  N   LIG    1        0.784   3.525   0.154  0.00  0.00    -0.640 N 
ATOM     24  O   LIG    1       -2.288   1.810   0.103  0.00  0.00    -0.460 OA
ATOM     25  C   LIG    1        1.081   2.231   0.004  0.00  0.00    +0.740 C 
ATOM     26  O   LIG    1        2.212   1.804  -0.124  0.00  0.00    -0.530 OA
ENDBRANCH  16  17
ENDBRANCH   2  16
TORSDOF 4
