REMARK  Name = ZINCtV000002JRtR.0
REMARK                            x       y       z     vdW  Elec       q    Type
REMARK                         _______ _______ _______ _____ _____    ______ ____
ROOT
ATOM      1  N   LIG    1       -3.729   5.896   6.453  0.00  0.00    -0.670 N 
ATOM      2  H   LIG    1       -3.456   6.618   5.865  0.00  0.00    +0.410 HD
ATOM      3  C   LIG    1       -3.366   4.628   6.177  0.00  0.00    +0.510 C 
ATOM      4  O   LIG    1       -3.625   3.739   6.960  0.00  0.00    -0.480 OA
ENDROOT
BRANCH   1   9
ATOM      5  C   LIG    1       -6.202   5.531   9.160  0.00  0.00    -0.000 A 
ATOM      6  C   LIG    1       -6.020   6.734   9.841  0.00  0.00    +0.010 A 
ATOM      7  C   LIG    1       -5.083   7.645   9.395  0.00  0.00    +0.030 A 
ATOM      8  C   LIG    1       -4.324   7.369   8.274  0.00  0.00    -0.010 A 
ATOM      9  C   LIG    1       -4.499   6.172   7.589  0.00  0.00    +0.140 A 
ATOM     10  C   LIG    1       -5.441   5.255   8.027  0.00  0.00    +0.060 A 
BRANCH   5  14
ATOM     11  C   LIG    1       -8.588   1.199   9.118  0.00  0.00    +0.180 C 
ATOM     12  C   LIG    1       -8.269   2.591   9.600  0.00  0.00    +0.060 A 
ATOM     13  N   LIG    1       -7.361   3.352   9.095  0.00  0.00    -0.460 NA
ATOM     14  C   LIG    1       -7.208   4.551   9.639  0.00  0.00    +0.110 A 
ATOM     15  C   LIG    1       -8.043   4.800  10.668  0.00  0.00    -0.070 A 
ATOM     16  S   LIG    1       -9.060   3.379  10.894  0.00  0.00    +0.130 S 
ENDBRANCH   5  14
ENDBRANCH   1   9
BRANCH   3  17
ATOM     17  C   LIG    1       -2.639   4.315   4.895  0.00  0.00    +0.240 C 
BRANCH  17  18
ATOM     18  O   LIG    1       -2.366   2.913   4.832  0.00  0.00    -0.290 OA
BRANCH  18  19
ATOM     19  C   LIG    1       -1.710   2.461   3.731  0.00  0.00    +0.140 A 
ATOM     20  C   LIG    1       -1.413   1.112   3.605  0.00  0.00    -0.010 A 
ATOM     21  C   LIG    1       -0.747   0.654   2.485  0.00  0.00    +0.080 A 
ATOM     22  C   LIG    1       -0.377   1.540   1.489  0.00  0.00    -0.100 A 
ATOM     23  C   LIG    1       -0.667   2.886   1.615  0.00  0.00    +0.100 A 
ATOM     24  C   LIG    1       -1.338   3.348   2.731  0.00  0.00    -0.080 A 
BRANCH  22  25
ATOM     25  C   LIG    1        0.350   1.038   0.268  0.00  0.00    +0.130 C 
ATOM     26  S   LIG    1       -0.624   1.414  -1.217  0.00  0.00    -0.220 S 
ATOM     27  C   LIG    1        0.439   0.817  -2.559  0.00  0.00    +0.100 C 
ATOM     28  C   LIG    1        1.748   1.598  -2.577  0.00  0.00    +0.060 C 
ATOM     29  C   LIG    1        2.636   1.194  -1.405  0.00  0.00    +0.100 C 
ATOM     30  S   LIG    1        1.964   1.859   0.142  0.00  0.00    -0.220 S 
ENDBRANCH  22  25
ENDBRANCH  18  19
ENDBRANCH  17  18
ENDBRANCH   3  17
TORSDOF 6
