REMARK  Name = ZINCrD0000074cw5.0
REMARK                            x       y       z     vdW  Elec       q    Type
REMARK                         _______ _______ _______ _____ _____    ______ ____
ROOT
ATOM      1  C   LIG    1       -3.978   8.891   1.425  0.00  0.00    +0.080 C 
ATOM      2  C   LIG    1       -3.830   8.602  -0.071  0.00  0.00    +0.190 C 
ENDROOT
BRANCH   2   3
ATOM      3  C   LIG    1       -3.377   9.851  -0.781  0.00  0.00    +0.520 C 
ATOM      4  N   LIG    1       -4.136  10.964  -0.738  0.00  0.00    -0.670 N 
ATOM      5  H   LIG    1       -5.009  10.939  -0.316  0.00  0.00    +0.420 HD
ATOM      6  O   LIG    1       -2.328   9.855  -1.391  0.00  0.00    -0.490 OA
BRANCH   4   7
ATOM      7  C   LIG    1       -3.667  12.150  -1.301  0.00  0.00    +0.180 A 
ATOM      8  C   LIG    1       -2.308  12.445  -1.267  0.00  0.00    +0.010 A 
ATOM      9  C   LIG    1       -1.840  13.613  -1.826  0.00  0.00    +0.070 A 
ATOM     10  C   LIG    1       -2.735  14.508  -2.418  0.00  0.00    -0.160 A 
ATOM     11  C   LIG    1       -4.100  14.212  -2.446  0.00  0.00    +0.100 A 
ATOM     12  C   LIG    1       -4.560  13.039  -1.891  0.00  0.00    -0.010 A 
BRANCH  10  13
ATOM     13  C   LIG    1       -2.238  15.765  -3.013  0.00  0.00    +0.560 C 
ATOM     14  O   LIG    1       -3.018  16.544  -3.527  0.00  0.00    -0.540 OA
ATOM     15  N   LIG    1       -0.921  16.049  -2.985  0.00  0.00    -0.850 N 
ATOM     16  H   LIG    1       -0.595  16.875  -3.375  0.00  0.00    +0.410 HD
ATOM     17  H   LIG    1       -0.299  15.428  -2.574  0.00  0.00    +0.400 HD
ENDBRANCH  10  13
ENDBRANCH   4   7
ENDBRANCH   2   3
BRANCH   2  18
ATOM     18  O   LIG    1       -2.847   7.551  -0.265  0.00  0.00    -0.320 OA
BRANCH  18  19
ATOM     19  C   LIG    1       -3.301   6.281  -0.274  0.00  0.00    +0.540 C 
ATOM     20  O   LIG    1       -4.487   6.059  -0.123  0.00  0.00    -0.490 OA
BRANCH  19  21
ATOM     21  C   LIG    1       -2.365   5.168  -0.466  0.00  0.00    -0.230 A 
ATOM     22  C   LIG    1       -2.713   3.876  -0.490  0.00  0.00    +0.140 A 
ATOM     23  C   LIG    1       -1.661   2.968  -0.686  0.00  0.00    -0.110 A 
ATOM     24  C   LIG    1       -1.710   1.556  -0.764  0.00  0.00    +0.120 A 
ATOM     25  C   LIG    1       -0.575   0.835  -0.956  0.00  0.00    +0.000 A 
ATOM     26  C   LIG    1        0.656   1.471  -1.089  0.00  0.00    +0.140 A 
ATOM     27  C   LIG    1        0.735   2.844  -1.022  0.00  0.00    +0.020 A 
ATOM     28  F   LIG    1        1.775   0.740  -1.286  0.00  0.00    -0.130 F 
ATOM     29  C   LIG    1       -0.420   3.605  -0.821  0.00  0.00    -0.110 A 
ATOM     30  S   LIG    1       -0.634   5.347  -0.693  0.00  0.00    +0.200 S 
ENDBRANCH  19  21
ENDBRANCH  18  19
ENDBRANCH   2  18
TORSDOF 6
