REMARK  Name = ZINCvU0000000Gxa.0
REMARK                            x       y       z     vdW  Elec       q    Type
REMARK                         _______ _______ _______ _____ _____    ______ ____
ROOT
ATOM      1  C   LIG    1       -1.240   3.553   0.027  0.00  0.00    +0.310 C 
ENDROOT
BRANCH   1   3
ATOM      2  O   LIG    1       -3.579   3.241   0.037  0.00  0.00    -0.540 OA
ATOM      3  C   LIG    1       -2.666   4.039   0.037  0.00  0.00    +0.510 C 
ATOM      4  N   LIG    1       -2.927   5.362   0.045  0.00  0.00    -0.610 N 
ATOM      5  C   LIG    1       -1.831   6.341   0.051  0.00  0.00    +0.270 C 
ATOM      6  C   LIG    1       -2.042   7.318  -1.115  0.00  0.00    +0.020 C 
ATOM      7  C   LIG    1       -3.438   7.936  -1.009  0.00  0.00    +0.000 C 
ATOM      8  C   LIG    1       -4.495   6.834  -1.107  0.00  0.00    +0.020 C 
ATOM      9  C   LIG    1       -4.312   5.851   0.054  0.00  0.00    +0.270 C 
BRANCH   7  10
ATOM     10  C   LIG    1       -3.640   8.938  -2.147  0.00  0.00    +0.060 C 
BRANCH  10  11
ATOM     11  C   LIG    1       -2.679  10.087  -1.981  0.00  0.00    -0.080 A 
ATOM     12  C   LIG    1       -3.053  11.201  -1.251  0.00  0.00    +0.000 A 
ATOM     13  C   LIG    1       -2.170  12.253  -1.095  0.00  0.00    +0.000 A 
ATOM     14  C   LIG    1       -0.917  12.196  -1.676  0.00  0.00    +0.000 A 
ATOM     15  C   LIG    1       -0.545  11.085  -2.410  0.00  0.00    +0.000 A 
ATOM     16  C   LIG    1       -1.426  10.031  -2.562  0.00  0.00    +0.000 A 
ENDBRANCH  10  11
ENDBRANCH   7  10
ENDBRANCH   1   3
BRANCH   1  17
ATOM     17  N   LIG    1       -1.223   2.088   0.019  0.00  0.00    -0.700 N 
ATOM     18  H   LIG    1       -2.058   1.593   0.021  0.00  0.00    +0.420 HD
BRANCH  17  19
ATOM     19  C   LIG    1       -0.017   1.409   0.010  0.00  0.00    +0.460 A 
ATOM     20  N   LIG    1        1.120   2.078   0.003  0.00  0.00    -0.540 NA
ATOM     21  C   LIG    1        2.303   1.478  -0.012  0.00  0.00    +0.080 A 
ATOM     22  C   LIG    1        2.425   0.124  -0.021  0.00  0.00    -0.010 A 
ATOM     23  C   LIG    1        1.257  -0.664  -0.013  0.00  0.00    +0.010 A 
ATOM     24  C   LIG    1        1.301  -2.064  -0.021  0.00  0.00    +0.030 A 
ATOM     25  C   LIG    1        0.136  -2.772  -0.013  0.00  0.00    +0.040 A 
ATOM     26  C   LIG    1       -1.096  -2.124   0.002  0.00  0.00    +0.010 A 
ATOM     27  C   LIG    1       -1.175  -0.763   0.010  0.00  0.00    +0.050 A 
ATOM     28  C   LIG    1        0.002  -0.004   0.002  0.00  0.00    -0.120 A 
BRANCH  21  29
ATOM     29  C   LIG    1        3.551   2.324  -0.020  0.00  0.00    +0.520 C 
ATOM     30  F   LIG    1        4.584   1.637   0.626  0.00  0.00    -0.170 F 
ATOM     31  F   LIG    1        3.302   3.528   0.649  0.00  0.00    -0.170 F 
ATOM     32  F   LIG    1        3.924   2.593  -1.341  0.00  0.00    -0.170 F 
ENDBRANCH  21  29
ENDBRANCH  17  19
ENDBRANCH   1  17
TORSDOF 6
