REMARK  Name = ZINCrD00000hQ6AW.0
REMARK                            x       y       z     vdW  Elec       q    Type
REMARK                         _______ _______ _______ _____ _____    ______ ____
ROOT
ATOM      1  C   LIG    1       -0.328  -2.185  -0.006  0.00  0.00    +0.270 A 
ATOM      2  N   LIG    1        0.974  -1.976  -0.018  0.00  0.00    -0.490 NA
ATOM      3  C   LIG    1        1.225  -0.667  -0.013  0.00  0.00    +0.340 A 
ATOM      4  C   LIG    1        0.002  -0.004   0.002  0.00  0.00    -0.150 A 
ATOM      5  C   LIG    1       -0.017   1.401   0.010  0.00  0.00    +0.600 A 
ATOM      6  N   LIG    1        1.150   2.078   0.002  0.00  0.00    -0.650 N 
ATOM      7  H   LIG    1        1.140   3.048   0.007  0.00  0.00    +0.440 HD
ATOM      8  C   LIG    1        2.327   1.428  -0.013  0.00  0.00    +0.710 A 
ATOM      9  O   LIG    1        3.359   2.071  -0.019  0.00  0.00    -0.530 OA
ATOM     10  O   LIG    1       -1.077   2.003   0.018  0.00  0.00    -0.510 OA
ATOM     11  N   LIG    1        2.390   0.083  -0.020  0.00  0.00    -0.510 N 
ATOM     12  C   LIG    1        3.693  -0.588  -0.036  0.00  0.00    +0.350 C 
ATOM     13  N   LIG    1       -0.977  -0.989   0.006  0.00  0.00    -0.390 N 
ENDROOT
BRANCH   1  14
ATOM     14  S   LIG    1       -1.106  -3.766  -0.008  0.00  0.00    +0.020 S 
BRANCH  14  15
ATOM     15  C   LIG    1        0.354  -4.835  -0.028  0.00  0.00    +0.100 C 
BRANCH  15  16
ATOM     16  C   LIG    1       -0.086  -6.300  -0.032  0.00  0.00    +0.040 C 
BRANCH  16  17
ATOM     17  C   LIG    1        1.148  -7.204  -0.049  0.00  0.00    +0.030 C 
BRANCH  17  18
ATOM     18  C   LIG    1        0.707  -8.669  -0.053  0.00  0.00    +0.000 C 
BRANCH  18  19
ATOM     19  C   LIG    1        1.942  -9.573  -0.070  0.00  0.00    +0.000 C 
BRANCH  19  20
ATOM     20  C   LIG    1        1.501 -11.038  -0.074  0.00  0.00    +0.000 C 
BRANCH  20  21
ATOM     21  C   LIG    1        2.736 -11.942  -0.091  0.00  0.00    +0.000 C 
BRANCH  21  22
ATOM     22  C   LIG    1        2.295 -13.407  -0.095  0.00  0.00    +0.000 C 
BRANCH  22  24
ATOM     23  C   LIG    1        3.089 -15.776  -0.116  0.00  0.00    +0.000 C 
ATOM     24  C   LIG    1        3.530 -14.311  -0.112  0.00  0.00    -0.010 C 
ENDBRANCH  22  24
ENDBRANCH  21  22
ENDBRANCH  20  21
ENDBRANCH  19  20
ENDBRANCH  18  19
ENDBRANCH  17  18
ENDBRANCH  16  17
ENDBRANCH  15  16
ENDBRANCH  14  15
ENDBRANCH   1  14
BRANCH  13  25
ATOM     25  C   LIG    1       -2.427  -0.781   0.021  0.00  0.00    +0.330 C 
BRANCH  25  26
ATOM     26  C   LIG    1       -2.946  -0.701  -1.416  0.00  0.00    +0.170 C 
BRANCH  26  27
ATOM     27  O   LIG    1       -4.360  -0.498  -1.401  0.00  0.00    -0.380 OA
ATOM     28  C   LIG    1       -4.948  -0.408  -2.700  0.00  0.00    +0.210 C 
ENDBRANCH  26  27
ENDBRANCH  25  26
ENDBRANCH  13  25
TORSDOF 13
