REMARK  Name = ZINCrD000000BsCg.0
REMARK                            x       y       z     vdW  Elec       q    Type
REMARK                         _______ _______ _______ _____ _____    ______ ____
ROOT
ATOM      1  O   LIG    1        0.777   0.546   2.530  0.00  0.00    -0.590 OA
ATOM      2  C   LIG    1       -0.222   1.232   2.431  0.00  0.00    +0.710 C 
ATOM      3  N   LIG    1       -0.853   1.667   3.540  0.00  0.00    -0.740 N 
ATOM      4  H   LIG    1       -1.650   2.214   3.462  0.00  0.00    +0.400 HD
ATOM      5  N   LIG    1       -0.698   1.558   1.213  0.00  0.00    -0.730 N 
ATOM      6  H   LIG    1       -1.495   2.106   1.135  0.00  0.00    +0.390 HD
ENDROOT
BRANCH   3   7
ATOM      7  C   LIG    1       -0.335   1.313   4.864  0.00  0.00    +0.260 C 
ATOM      8  C   LIG    1        0.751   2.312   5.274  0.00  0.00    -0.020 C 
ATOM      9  C   LIG    1        1.229   1.983   6.690  0.00  0.00    +0.230 C 
ATOM     10  O   LIG    1        0.117   2.014   7.588  0.00  0.00    -0.370 OA
ATOM     11  C   LIG    1       -0.907   1.066   7.281  0.00  0.00    +0.210 C 
ATOM     12  C   LIG    1       -1.472   1.360   5.889  0.00  0.00    +0.010 C 
BRANCH  11  13
ATOM     13  C   LIG    1       -2.010   1.169   8.303  0.00  0.00    -0.140 A 
ATOM     14  C   LIG    1       -2.633   0.026   8.781  0.00  0.00    +0.080 A 
ATOM     15  C   LIG    1       -3.639   0.169   9.725  0.00  0.00    -0.030 A 
ATOM     16  C   LIG    1       -3.992   1.437  10.146  0.00  0.00    +0.260 A 
ATOM     17  N   LIG    1       -3.381   2.502   9.665  0.00  0.00    -0.490 NA
ATOM     18  C   LIG    1       -2.417   2.404   8.771  0.00  0.00    +0.290 A 
ENDBRANCH  11  13
ENDBRANCH   3   7
BRANCH   5  19
ATOM     19  C   LIG    1       -0.013   1.086   0.008  0.00  0.00    +0.340 C 
BRANCH  19  20
ATOM     20  C   LIG    1       -0.742   1.585  -1.213  0.00  0.00    -0.090 A 
ATOM     21  C   LIG    1       -1.592   0.762  -1.885  0.00  0.00    +0.050 A 
ATOM     22  C   LIG    1       -2.276   1.203  -3.016  0.00  0.00    +0.010 A 
ATOM     23  C   LIG    1       -2.113   2.473  -3.480  0.00  0.00    +0.040 A 
ATOM     24  C   LIG    1       -1.244   3.350  -2.812  0.00  0.00    -0.110 A 
ATOM     25  C   LIG    1       -1.047   4.670  -3.259  0.00  0.00    +0.080 A 
ATOM     26  C   LIG    1       -0.187   5.466  -2.558  0.00  0.00    -0.030 A 
ATOM     27  C   LIG    1        0.467   4.965  -1.435  0.00  0.00    +0.300 A 
ATOM     28  N   LIG    1        0.281   3.735  -1.021  0.00  0.00    -0.470 NA
ATOM     29  C   LIG    1       -0.550   2.905  -1.659  0.00  0.00    +0.140 A 
ENDBRANCH  19  20
ENDBRANCH   5  19
TORSDOF 4
