REMARK  Name = ZINCrH000004v5eC.0
REMARK                            x       y       z     vdW  Elec       q    Type
REMARK                         _______ _______ _______ _____ _____    ______ ____
ROOT
ATOM      1  C   LIG    1        3.594   6.641  -0.211  0.00  0.00    -0.080 A 
ATOM      2  C   LIG    1        4.814   5.961  -0.221  0.00  0.00    +0.030 A 
ATOM      3  C   LIG    1        5.992   6.668  -0.339  0.00  0.00    +0.120 A 
ATOM      4  C   LIG    1        5.969   8.048  -0.435  0.00  0.00    -0.650 A 
ATOM      5  C   LIG    1        4.764   8.728  -0.420  0.00  0.00    +0.130 A 
ATOM      6  C   LIG    1        3.578   8.033  -0.308  0.00  0.00    +0.070 A 
ENDROOT
BRANCH   1   8
ATOM      7  O   LIG    1        1.267   6.485  -0.077  0.00  0.00    -0.500 OA
ATOM      8  C   LIG    1        2.327   5.890  -0.091  0.00  0.00    +0.560 C 
ATOM      9  N   LIG    1        2.346   4.545   0.004  0.00  0.00    -0.670 N 
ATOM     10  H   LIG    1        3.193   4.076   0.070  0.00  0.00    +0.420 HD
BRANCH   9  11
ATOM     11  C   LIG    1        1.146   3.827   0.006  0.00  0.00    +0.160 A 
ATOM     12  C   LIG    1        1.037   2.657   0.746  0.00  0.00    +0.010 A 
ATOM     13  C   LIG    1       -0.149   1.949   0.747  0.00  0.00    +0.070 A 
ATOM     14  C   LIG    1       -1.230   2.407   0.016  0.00  0.00    -0.050 A 
ATOM     15  C   LIG    1       -1.123   3.571  -0.728  0.00  0.00    -0.010 A 
ATOM     16 CL   LIG    1       -2.480   4.140  -1.649  0.00  0.00    -0.040 Cl
ATOM     17 CL   LIG    1       -2.722   1.519   0.025  0.00  0.00    -0.040 Cl
ATOM     18  C   LIG    1        0.061   4.283  -0.732  0.00  0.00    +0.050 A 
ENDBRANCH   9  11
ENDBRANCH   1   8
BRANCH   4  19
ATOM     19  S   LIG    1        7.480   8.943  -0.578  0.00  0.00    +2.700 S 
ATOM     20  O   LIG    1        7.156  10.181  -1.196  0.00  0.00    -0.950 OA
ATOM     21  O   LIG    1        8.435   8.035  -1.111  0.00  0.00    -0.950 OA
BRANCH  19  22
ATOM     22  N   LIG    1        7.983   9.304   0.957  0.00  0.00    -1.110 NA
ATOM     23  H   LIG    1        8.026  10.228   1.249  0.00  0.00    +0.420 HD
BRANCH  22  24
ATOM     24  C   LIG    1        8.363   8.227   1.875  0.00  0.00    +0.290 C 
BRANCH  24  25
ATOM     25  C   LIG    1        9.129   8.816   3.062  0.00  0.00    +0.150 C 
ATOM     26  C   LIG    1        9.533   7.691   4.035  0.00  0.00    +0.010 C 
ATOM     27  C   LIG    1       11.077   7.789   4.107  0.00  0.00    +0.000 C 
ATOM     28  C   LIG    1       11.332   9.242   3.632  0.00  0.00    +0.200 C 
ATOM     29  O   LIG    1       10.339   9.440   2.603  0.00  0.00    -0.370 OA
ENDBRANCH  24  25
ENDBRANCH  22  24
ENDBRANCH  19  22
ENDBRANCH   4  19
TORSDOF 6
