REMARK  Name = ZINCkj000005hTPe.1
REMARK                            x       y       z     vdW  Elec       q    Type
REMARK                         _______ _______ _______ _____ _____    ______ ____
ROOT
ATOM      1  N   LIG    1       -2.112   1.144   1.331  0.00  0.00    -0.370 N 
ATOM      2  C   LIG    1       -0.780   1.754   1.214  0.00  0.00    +0.260 C 
ATOM      3  C   LIG    1       -0.059   1.179  -0.007  0.00  0.00    +0.060 C 
ATOM      4  C   LIG    1       -0.875   1.483  -1.267  0.00  0.00    +0.060 C 
ATOM      5  C   LIG    1       -2.284   0.907  -1.102  0.00  0.00    +0.080 C 
ATOM      6  C   LIG    1       -2.924   1.492   0.159  0.00  0.00    +0.170 C 
ATOM      7  H   LIG    1       -2.017   0.141   1.388  0.00  0.00    +0.430 HD
ENDROOT
BRANCH   6   8
ATOM      8  C   LIG    1       -4.312   0.928   0.326  0.00  0.00    +0.510 C 
ATOM      9  O   LIG    1       -4.482  -0.080   0.980  0.00  0.00    -0.520 OA
ATOM     10  N   LIG    1       -5.363   1.542  -0.252  0.00  0.00    -0.820 N 
ATOM     11  H   LIG    1       -6.256   1.179  -0.145  0.00  0.00    +0.420 HD
ATOM     12  H   LIG    1       -5.226   2.348  -0.775  0.00  0.00    +0.410 HD
ENDBRANCH   6   8
BRANCH   1  13
ATOM     13  C   LIG    1       -2.769   1.642   2.547  0.00  0.00    +0.310 C 
BRANCH  13  17
ATOM     14  C   LIG    1       -0.627   0.280   5.988  0.00  0.00    -0.090 A 
ATOM     15  C   LIG    1       -0.291   1.496   5.389  0.00  0.00    +0.100 A 
ATOM     16  C   LIG    1       -0.986   1.929   4.279  0.00  0.00    +0.030 A 
ATOM     17  C   LIG    1       -2.014   1.162   3.759  0.00  0.00    -0.130 A 
ATOM     18  C   LIG    1       -2.356  -0.041   4.351  0.00  0.00    +0.050 A 
ATOM     19  C   LIG    1       -1.666  -0.489   5.459  0.00  0.00    +0.090 A 
BRANCH  14  20
ATOM     20  C   LIG    1        0.113  -0.191   7.177  0.00  0.00    +0.500 C 
ATOM     21  O   LIG    1        1.016   0.480   7.635  0.00  0.00    -0.490 OA
BRANCH  20  23
ATOM     22  C   LIG    1        0.556  -1.764   8.917  0.00  0.00    +0.290 C 
ATOM     23  O   LIG    1       -0.214  -1.364   7.753  0.00  0.00    -0.350 OA
ENDBRANCH  20  23
ENDBRANCH  14  20
ENDBRANCH  13  17
ENDBRANCH   1  13
TORSDOF 5
