REMARK  Name = ZINCkj000005hTPe.2
REMARK                            x       y       z     vdW  Elec       q    Type
REMARK                         _______ _______ _______ _____ _____    ______ ____
ROOT
ATOM      1  N   LIG    1       -0.731   1.590  -0.988  0.00  0.00    -0.360 N 
ATOM      2  C   LIG    1       -0.077   1.268   0.285  0.00  0.00    +0.250 C 
ATOM      3  C   LIG    1       -0.842   1.925   1.436  0.00  0.00    +0.060 C 
ATOM      4  C   LIG    1       -0.852   3.443   1.235  0.00  0.00    +0.040 C 
ATOM      5  C   LIG    1       -1.469   3.763  -0.129  0.00  0.00    +0.090 C 
ATOM      6  C   LIG    1       -0.681   3.038  -1.222  0.00  0.00    +0.170 C 
ATOM      7  H   LIG    1       -1.693   1.289  -0.956  0.00  0.00    +0.420 HD
ENDROOT
BRANCH   6   8
ATOM      8  C   LIG    1        0.753   3.501  -1.196  0.00  0.00    +0.520 C 
ATOM      9  O   LIG    1        1.649   2.695  -1.058  0.00  0.00    -0.530 OA
ATOM     10  N   LIG    1        1.041   4.811  -1.327  0.00  0.00    -0.820 N 
ATOM     11  H   LIG    1        1.964   5.109  -1.310  0.00  0.00    +0.420 HD
ATOM     12  H   LIG    1        0.325   5.456  -1.438  0.00  0.00    +0.410 HD
ENDBRANCH   6   8
BRANCH   1  13
ATOM     13  C   LIG    1       -0.039   0.895  -2.082  0.00  0.00    +0.320 C 
BRANCH  13  17
ATOM     14  C   LIG    1       -0.504  -3.330  -1.605  0.00  0.00    -0.090 A 
ATOM     15  C   LIG    1       -1.437  -2.601  -2.344  0.00  0.00    +0.100 A 
ATOM     16  C   LIG    1       -1.281  -1.238  -2.494  0.00  0.00    +0.040 A 
ATOM     17  C   LIG    1       -0.203  -0.594  -1.914  0.00  0.00    -0.120 A 
ATOM     18  C   LIG    1        0.729  -1.311  -1.184  0.00  0.00    +0.040 A 
ATOM     19  C   LIG    1        0.582  -2.673  -1.021  0.00  0.00    +0.090 A 
BRANCH  14  20
ATOM     20  C   LIG    1       -0.664  -4.789  -1.440  0.00  0.00    +0.500 C 
ATOM     21  O   LIG    1       -1.610  -5.357  -1.949  0.00  0.00    -0.490 OA
BRANCH  20  23
ATOM     22  C   LIG    1        0.017  -6.919  -0.606  0.00  0.00    +0.290 C 
ATOM     23  O   LIG    1        0.238  -5.489  -0.726  0.00  0.00    -0.350 OA
ENDBRANCH  20  23
ENDBRANCH  14  20
ENDBRANCH  13  17
ENDBRANCH   1  13
TORSDOF 5
