REMARK  Name = ZINCrD000000A7AT.0
REMARK                            x       y       z     vdW  Elec       q    Type
REMARK                         _______ _______ _______ _____ _____    ______ ____
ROOT
ATOM      1  C   LIG    1       -0.393   7.545  -1.752  0.00  0.00    -0.020 C 
ATOM      2  C   LIG    1        0.594   8.101  -0.722  0.00  0.00    +0.050 C 
ATOM      3  C   LIG    1        1.750   8.791  -1.451  0.00  0.00    +0.190 C 
ATOM      4  N   LIG    1        1.224   9.876  -2.289  0.00  0.00    -0.500 N 
ATOM      5  C   LIG    1        0.310   9.360  -3.316  0.00  0.00    +0.180 C 
ATOM      6  C   LIG    1       -0.889   8.688  -2.643  0.00  0.00    +0.080 C 
ENDROOT
BRANCH   1   8
ATOM      7  O   LIG    1       -2.685   7.341  -1.227  0.00  0.00    -0.530 OA
ATOM      8  C   LIG    1       -1.564   6.918  -1.040  0.00  0.00    +0.530 C 
ATOM      9  N   LIG    1       -1.365   5.887  -0.195  0.00  0.00    -0.610 N 
ATOM     10  C   LIG    1       -2.488   5.253   0.516  0.00  0.00    +0.290 C 
ATOM     11  C   LIG    1       -2.596   3.808   0.029  0.00  0.00    +0.070 C 
ATOM     12  C   LIG    1       -1.246   3.140   0.029  0.00  0.00    -0.070 A 
ATOM     13  C   LIG    1       -1.216   1.751   0.017  0.00  0.00    +0.000 A 
ATOM     14  C   LIG    1       -0.013   1.076   0.008  0.00  0.00    +0.000 A 
ATOM     15  C   LIG    1        1.174   1.785   0.000  0.00  0.00    +0.000 A 
ATOM     16  C   LIG    1        1.146   3.165   0.012  0.00  0.00    +0.010 A 
ATOM     17  C   LIG    1       -0.063   3.845   0.028  0.00  0.00    -0.100 A 
ATOM     18  C   LIG    1       -0.022   5.352   0.054  0.00  0.00    +0.330 C 
ENDBRANCH   1   8
BRANCH   4  19
ATOM     19  C   LIG    1        2.263  10.610  -2.866  0.00  0.00    +0.160 A 
ATOM     20  C   LIG    1        3.127  10.003  -3.768  0.00  0.00    -0.010 A 
ATOM     21  C   LIG    1        4.149  10.733  -4.342  0.00  0.00    +0.080 A 
ATOM     22  C   LIG    1        4.320  12.065  -4.010  0.00  0.00    +0.030 A 
ATOM     23  C   LIG    1        3.465  12.671  -3.108  0.00  0.00    +0.110 A 
ATOM     24  C   LIG    1        2.437  11.948  -2.535  0.00  0.00    -0.030 A 
BRANCH  24  25
ATOM     25  N   LIG    1        1.523  12.598  -1.570  0.00  0.00    +0.030 N 
ATOM     26  O   LIG    1        0.616  11.960  -1.066  0.00  0.00    -0.100 OA
ATOM     27  O   LIG    1        1.676  13.771  -1.281  0.00  0.00    -0.200 OA
ENDBRANCH  24  25
ENDBRANCH   4  19
TORSDOF 3
