REMARK  Name = ZINCnE000004wPFi.0
REMARK                            x       y       z     vdW  Elec       q    Type
REMARK                         _______ _______ _______ _____ _____    ______ ____
ROOT
ATOM      1  C   LIG    1       -0.018   1.503   0.010  0.00  0.00    -0.080 C 
ATOM      2  C   LIG    1       -0.754   2.007  -1.232  0.00  0.00    +0.250 C 
ATOM      3  N   LIG    1       -0.962   3.457  -1.095  0.00  0.00    -0.520 NA
ATOM      4  C   LIG    1       -1.976   3.728  -0.071  0.00  0.00    +0.260 C 
ATOM      5  C   LIG    1       -1.626   3.025   1.215  0.00  0.00    -0.120 A 
ATOM      6  C   LIG    1       -2.244   3.443   2.384  0.00  0.00    +0.000 A 
ATOM      7  C   LIG    1       -1.959   2.822   3.585  0.00  0.00    -0.040 A 
ATOM      8  C   LIG    1       -1.052   1.778   3.622  0.00  0.00    +0.010 A 
ATOM      9  C   LIG    1       -0.435   1.363   2.458  0.00  0.00    +0.090 A 
ATOM     10 CL   LIG    1       -2.736   3.351   5.044  0.00  0.00    -0.090 Cl
ATOM     11  C   LIG    1       -0.720   1.987   1.253  0.00  0.00    -0.040 A 
ENDROOT
BRANCH   1  13
ATOM     12  O   LIG    1       -0.509  -0.626   0.918  0.00  0.00    -0.680 OA
ATOM     13  C   LIG    1        0.002  -0.004   0.002  0.00  0.00    +0.500 C 
ATOM     14  O   LIG    1        0.529  -0.602  -0.921  0.00  0.00    -0.690 OA
ENDBRANCH   1  13
BRANCH   3  15
ATOM     15  C   LIG    1        0.298   4.145  -0.783  0.00  0.00    +0.290 C 
BRANCH  15  16
ATOM     16  C   LIG    1        0.091   5.635  -0.868  0.00  0.00    +0.040 A 
ATOM     17  N   LIG    1        0.163   6.373  -1.939  0.00  0.00    -0.330 NA
ATOM     18  O   LIG    1       -0.055   7.537  -1.693  0.00  0.00    +0.130 OA
ATOM     19  C   LIG    1       -0.297   7.728  -0.388  0.00  0.00    -0.140 A 
ATOM     20  C   LIG    1       -0.213   6.510   0.200  0.00  0.00    +0.020 A 
BRANCH  19  21
ATOM     21  C   LIG    1       -0.602   9.038   0.290  0.00  0.00    +0.510 C 
ATOM     22  F   LIG    1        0.371   9.298   1.262  0.00  0.00    -0.180 F 
ATOM     23  F   LIG    1       -1.860   8.968   0.897  0.00  0.00    -0.180 F 
ENDBRANCH  19  21
ENDBRANCH  15  16
ENDBRANCH   3  15
TORSDOF 4
