REMARK  Name = ZINCrH000004jyUa.0
REMARK                            x       y       z     vdW  Elec       q    Type
REMARK                         _______ _______ _______ _____ _____    ______ ____
ROOT
ATOM      1  C   LIG    1        1.423   4.909  -2.111  0.00  0.00    +0.280 C 
ATOM      2  N   LIG    1        1.226   5.512  -0.790  0.00  0.00    -0.600 N 
ATOM      3  C   LIG    1        2.014   6.529  -0.389  0.00  0.00    +0.560 C 
ATOM      4  O   LIG    1        1.913   6.968   0.740  0.00  0.00    -0.510 OA
ENDROOT
BRANCH   2   5
ATOM      5  C   LIG    1        0.171   5.011   0.094  0.00  0.00    +0.300 C 
ATOM      6  C   LIG    1       -1.185   5.197  -0.584  0.00  0.00    +0.010 C 
ATOM      7  C   LIG    1       -2.248   4.476   0.254  0.00  0.00    +0.030 C 
ATOM      8  C   LIG    1       -2.026   2.971   0.122  0.00  0.00    +0.080 C 
ATOM      9  C   LIG    1       -0.591   2.620   0.413  0.00  0.00    -0.060 A 
ATOM     10  C   LIG    1       -0.295   1.294   0.702  0.00  0.00    +0.000 A 
ATOM     11  C   LIG    1        1.002   0.908   0.972  0.00  0.00    +0.010 A 
ATOM     12  C   LIG    1        2.018   1.846   0.942  0.00  0.00    +0.000 A 
ATOM     13  C   LIG    1        1.726   3.163   0.651  0.00  0.00    +0.020 A 
ATOM     14  C   LIG    1        0.420   3.555   0.389  0.00  0.00    -0.090 A 
ENDBRANCH   2   5
BRANCH   3  15
ATOM     15  C   LIG    1        3.003   7.110  -1.322  0.00  0.00    -0.150 A 
ATOM     16  C   LIG    1        2.832   6.970  -2.700  0.00  0.00    +0.170 A 
ATOM     17  C   LIG    1        3.755   7.520  -3.565  0.00  0.00    -0.690 A 
ATOM     18  C   LIG    1        4.854   8.199  -3.070  0.00  0.00    +0.180 A 
ATOM     19  C   LIG    1        5.034   8.336  -1.706  0.00  0.00    +0.010 A 
ATOM     20  C   LIG    1        4.115   7.796  -0.828  0.00  0.00    +0.060 A 
ATOM     21 CL   LIG    1        4.341   7.970   0.885  0.00  0.00    -0.020 Cl
BRANCH  17  22
ATOM     22  S   LIG    1        3.537   7.352  -5.306  0.00  0.00    +2.690 S 
ATOM     23  O   LIG    1        4.261   8.417  -5.906  0.00  0.00    -0.950 OA
ATOM     24  O   LIG    1        2.147   7.140  -5.517  0.00  0.00    -0.950 OA
BRANCH  22  25
ATOM     25  N   LIG    1        4.297   5.954  -5.762  0.00  0.00    -1.000 NA
ATOM     26  C   LIG    1        5.707   5.983  -6.161  0.00  0.00    +0.310 C 
ATOM     27  C   LIG    1        3.561   4.687  -5.767  0.00  0.00    +0.310 C 
ENDBRANCH  22  25
ENDBRANCH  17  22
ENDBRANCH   3  15
TORSDOF 4
