REMARK  Name = ZINCpe00000zfYsK.1
REMARK                            x       y       z     vdW  Elec       q    Type
REMARK                         _______ _______ _______ _____ _____    ______ ____
ROOT
ATOM      1  C   LIG    1       -1.268   1.654   2.084  0.00  0.00    +0.600 C 
ATOM      2  N   LIG    1       -2.234   2.206   1.323  0.00  0.00    -0.610 N 
ATOM      3  C   LIG    1       -2.306   3.663   1.146  0.00  0.00    +0.280 C 
ATOM      4  C   LIG    1       -2.288   3.970  -0.361  0.00  0.00    +0.250 C 
ATOM      5  N   LIG    1       -3.292   3.126  -1.023  0.00  0.00    -0.610 N 
ATOM      6  C   LIG    1       -3.224   1.669  -0.841  0.00  0.00    +0.290 C 
ATOM      7  C   LIG    1       -4.259   3.677  -1.783  0.00  0.00    +0.600 C 
ATOM      8  O   LIG    1       -5.201   3.002  -2.154  0.00  0.00    -0.510 OA
ATOM      9  C   LIG    1       -3.238   1.361   0.661  0.00  0.00    +0.290 C 
ATOM     10  O   LIG    1       -1.241   0.450   2.254  0.00  0.00    -0.540 OA
ENDROOT
BRANCH   7  11
ATOM     11  C   LIG    1       -4.175   5.089  -2.163  0.00  0.00    -0.040 A 
ATOM     12  C   LIG    1       -5.244   5.942  -2.466  0.00  0.00    -0.090 A 
ATOM     13  C   LIG    1       -6.640   5.840  -2.516  0.00  0.00    +0.060 A 
ATOM     14  C   LIG    1       -7.379   6.930  -2.859  0.00  0.00    +0.010 A 
ATOM     15  C   LIG    1       -6.781   8.154  -3.157  0.00  0.00    +0.030 A 
ATOM     16  C   LIG    1       -5.433   8.320  -3.121  0.00  0.00    +0.050 A 
ATOM     17  C   LIG    1       -4.608   7.232  -2.775  0.00  0.00    +0.050 A 
ATOM     18  N   LIG    1       -3.307   7.041  -2.644  0.00  0.00    -0.260 NA
ATOM     19  N   LIG    1       -3.042   5.833  -2.298  0.00  0.00    -0.330 N 
ATOM     20  H   LIG    1       -2.146   5.492  -2.151  0.00  0.00    +0.450 HD
ENDBRANCH   7  11
BRANCH   1  24
ATOM     21  C   LIG    1        3.075   3.307   3.919  0.00  0.00    +0.360 C 
ATOM     22  N   LIG    1        1.671   3.230   3.510  0.00  0.00    -0.360 N 
ATOM     23  C   LIG    1        1.079   2.172   2.932  0.00  0.00    +0.320 A 
ATOM     24  C   LIG    1       -0.240   2.510   2.705  0.00  0.00    -0.300 A 
ATOM     25  C   LIG    1       -0.422   3.826   3.185  0.00  0.00    +0.270 A 
ATOM     26  N   LIG    1        0.718   4.244   3.660  0.00  0.00    -0.290 NA
ENDBRANCH   1  24
TORSDOF 2
